MODEL 1
REMARK VINA RESULT:      -8.4      0.000      0.000
REMARK  Name = 
REMARK  6 active torsions:
REMARK  status: ('A' for Active; 'I' for Inactive)
REMARK    1  A    between atoms: C_1  and  C_2
REMARK    2  A    between atoms: C_8  and  N_9
REMARK    3  A    between atoms: C_10  and  C_12
REMARK    4  A    between atoms: C_16  and  C_17
REMARK    5  A    between atoms: N_21  and  C_22
REMARK    6  A    between atoms: C_22  and  C_23
REMARK                            x       y       z     vdW  Elec       q    Type
REMARK                         _______ _______ _______ _____ _____    ______ ____
ROOT
ATOM      1  C   UNL     1       3.321   4.025  19.416  0.00  0.00    +0.000 C 
ATOM      2  C   UNL     1       2.606   2.697  19.297  0.00  0.00    +0.000 C 
ATOM      3  C   UNL     1       3.558   1.829  18.513  0.00  0.00    +0.000 C 
ATOM      4  O   UNL     1       4.381   2.692  17.736  0.00  0.00    +0.000 OA
ATOM      5  C   UNL     1       4.068   4.057  18.044  0.00  0.00    +0.000 C 
ENDROOT
BRANCH   5   6
ATOM      6  C   UNL     1       5.367   4.816  18.016  0.00  0.00    +0.000 A 
ATOM      7  C   UNL     1       6.306   4.907  19.030  0.00  0.00    +0.000 A 
ATOM      8  C   UNL     1       7.301   5.768  18.561  0.00  0.00    +0.000 A 
ATOM      9  N   UNL     1       7.034   6.234  17.347  0.00  0.00    +0.000 NA
ATOM     10  N   UNL     1       5.868   5.623  16.994  0.00  0.00    +0.000 N 
BRANCH  10  11
ATOM     11  C   UNL     1       5.332   5.965  15.668  0.00  0.00    +0.000 C 
BRANCH  11  12
ATOM     12  C   UNL     1       5.921   5.130  14.546  0.00  0.00    +0.000 A 
ATOM     13  C   UNL     1       7.212   5.418  14.078  0.00  0.00    +0.000 A 
ATOM     14  C   UNL     1       7.715   4.797  12.934  0.00  0.00    +0.000 A 
ATOM     15  C   UNL     1       6.965   3.820  12.285  0.00  0.00    +0.000 A 
ATOM     16  C   UNL     1       5.736   3.429  12.813  0.00  0.00    +0.000 A 
ATOM     17  C   UNL     1       5.215   4.077  13.939  0.00  0.00    +0.000 A 
ENDBRANCH  11  12
ENDBRANCH  10  11
ENDBRANCH   5   6
BRANCH   1  19
ATOM     18  N   UNL     1       2.780   6.482  19.700  0.00  0.00    +0.000 N 
ATOM     19  C   UNL     1       2.293   5.150  19.655  0.00  0.00    +0.000 C 
ATOM     20  O   UNL     1       1.095   4.845  19.755  0.00  0.00    +0.000 OA
ATOM     21  H   UNL     1       3.720   6.660  19.365  0.00  0.00    +0.000 HD
BRANCH  18  29
ATOM     22  C   UNL     1       2.172   8.792  17.670  0.00  0.00    +0.000 C 
ATOM     23  C   UNL     1       1.647   8.664  19.067  0.00  0.00    +0.000 A 
ATOM     24  C   UNL     1       0.754   9.708  19.461  0.00  0.00    +0.000 A 
ATOM     25  C   UNL     1       0.244   9.779  20.742  0.00  0.00    +0.000 A 
ATOM     26  F   UNL     1      -0.598  10.765  21.075  0.00  0.00    +0.000 F 
ATOM     27  C   UNL     1       0.636   8.860  21.695  0.00  0.00    +0.000 A 
ATOM     28  C   UNL     1       1.485   7.811  21.321  0.00  0.00    +0.000 A 
ATOM     29  C   UNL     1       1.976   7.643  20.015  0.00  0.00    +0.000 A 
ENDBRANCH  18  29
ENDBRANCH   1  19
TORSDOF 5
ENDMDL
MODEL 2
REMARK VINA RESULT:      -8.2      4.173      8.673
REMARK  Name = 
REMARK  6 active torsions:
REMARK  status: ('A' for Active; 'I' for Inactive)
REMARK    1  A    between atoms: C_1  and  C_2
REMARK    2  A    between atoms: C_8  and  N_9
REMARK    3  A    between atoms: C_10  and  C_12
REMARK    4  A    between atoms: C_16  and  C_17
REMARK    5  A    between atoms: N_21  and  C_22
REMARK    6  A    between atoms: C_22  and  C_23
REMARK                            x       y       z     vdW  Elec       q    Type
REMARK                         _______ _______ _______ _____ _____    ______ ____
ROOT
ATOM      1  C   UNL     1       0.896   9.306  19.724  0.00  0.00    +0.000 C 
ATOM      2  C   UNL     1       0.965   8.535  21.024  0.00  0.00    +0.000 C 
ATOM      3  C   UNL     1       0.638   9.557  22.083  0.00  0.00    +0.000 C 
ATOM      4  O   UNL     1       0.980  10.837  21.561  0.00  0.00    +0.000 OA
ATOM      5  C   UNL     1       1.422  10.697  20.204  0.00  0.00    +0.000 C 
ENDROOT
BRANCH   5   6
ATOM      6  C   UNL     1       0.904  11.895  19.455  0.00  0.00    +0.000 A 
ATOM      7  C   UNL     1       1.644  12.949  18.945  0.00  0.00    +0.000 A 
ATOM      8  C   UNL     1       0.720  13.843  18.397  0.00  0.00    +0.000 A 
ATOM      9  N   UNL     1      -0.533  13.432  18.555  0.00  0.00    +0.000 NA
ATOM     10  N   UNL     1      -0.423  12.221  19.168  0.00  0.00    +0.000 N 
BRANCH  10  11
ATOM     11  C   UNL     1      -1.685  11.528  19.468  0.00  0.00    +0.000 C 
BRANCH  11  12
ATOM     12  C   UNL     1      -2.447  11.101  18.226  0.00  0.00    +0.000 A 
ATOM     13  C   UNL     1      -1.859  10.189  17.337  0.00  0.00    +0.000 A 
ATOM     14  C   UNL     1      -2.445   9.913  16.102  0.00  0.00    +0.000 A 
ATOM     15  C   UNL     1      -3.668  10.487  15.768  0.00  0.00    +0.000 A 
ATOM     16  C   UNL     1      -4.329  11.293  16.693  0.00  0.00    +0.000 A 
ATOM     17  C   UNL     1      -3.725  11.598  17.918  0.00  0.00    +0.000 A 
ENDBRANCH  11  12
ENDBRANCH  10  11
ENDBRANCH   5   6
BRANCH   1  19
ATOM     18  N   UNL     1       2.322   7.345  18.996  0.00  0.00    +0.000 N 
ATOM     19  C   UNL     1       1.746   8.595  18.651  0.00  0.00    +0.000 C 
ATOM     20  O   UNL     1       1.852   9.124  17.534  0.00  0.00    +0.000 OA
ATOM     21  H   UNL     1       1.984   6.875  19.829  0.00  0.00    +0.000 HD
BRANCH  18  29
ATOM     22  C   UNL     1       2.035   4.277  18.419  0.00  0.00    +0.000 C 
ATOM     23  C   UNL     1       3.056   5.207  17.840  0.00  0.00    +0.000 A 
ATOM     24  C   UNL     1       3.951   4.597  16.907  0.00  0.00    +0.000 A 
ATOM     25  C   UNL     1       4.997   5.298  16.343  0.00  0.00    +0.000 A 
ATOM     26  F   UNL     1       5.811   4.698  15.465  0.00  0.00    +0.000 F 
ATOM     27  C   UNL     1       5.235   6.606  16.716  0.00  0.00    +0.000 A 
ATOM     28  C   UNL     1       4.352   7.232  17.605  0.00  0.00    +0.000 A 
ATOM     29  C   UNL     1       3.226   6.593  18.153  0.00  0.00    +0.000 A 
ENDBRANCH  18  29
ENDBRANCH   1  19
TORSDOF 5
ENDMDL
MODEL 3
REMARK VINA RESULT:      -8.0      0.608      1.094
REMARK  Name = 
REMARK  6 active torsions:
REMARK  status: ('A' for Active; 'I' for Inactive)
REMARK    1  A    between atoms: C_1  and  C_2
REMARK    2  A    between atoms: C_8  and  N_9
REMARK    3  A    between atoms: C_10  and  C_12
REMARK    4  A    between atoms: C_16  and  C_17
REMARK    5  A    between atoms: N_21  and  C_22
REMARK    6  A    between atoms: C_22  and  C_23
REMARK                            x       y       z     vdW  Elec       q    Type
REMARK                         _______ _______ _______ _____ _____    ______ ____
ROOT
ATOM      1  C   UNL     1       3.340   4.131  18.957  0.00  0.00    +0.000 C 
ATOM      2  C   UNL     1       2.488   2.884  19.049  0.00  0.00    +0.000 C 
ATOM      3  C   UNL     1       3.369   1.788  18.505  0.00  0.00    +0.000 C 
ATOM      4  O   UNL     1       4.314   2.394  17.631  0.00  0.00    +0.000 OA
ATOM      5  C   UNL     1       4.142   3.818  17.654  0.00  0.00    +0.000 C 
ENDROOT
BRANCH   5   6
ATOM      6  C   UNL     1       5.518   4.421  17.562  0.00  0.00    +0.000 A 
ATOM      7  C   UNL     1       6.535   4.331  18.498  0.00  0.00    +0.000 A 
ATOM      8  C   UNL     1       7.589   5.102  18.000  0.00  0.00    +0.000 A 
ATOM      9  N   UNL     1       7.288   5.681  16.844  0.00  0.00    +0.000 NA
ATOM     10  N   UNL     1       6.034   5.236  16.553  0.00  0.00    +0.000 N 
BRANCH  10  11
ATOM     11  C   UNL     1       5.443   5.731  15.301  0.00  0.00    +0.000 C 
BRANCH  11  12
ATOM     12  C   UNL     1       5.934   4.990  14.070  0.00  0.00    +0.000 A 
ATOM     13  C   UNL     1       5.119   4.010  13.485  0.00  0.00    +0.000 A 
ATOM     14  C   UNL     1       5.604   3.185  12.471  0.00  0.00    +0.000 A 
ATOM     15  C   UNL     1       6.889   3.378  11.971  0.00  0.00    +0.000 A 
ATOM     16  C   UNL     1       7.665   4.432  12.451  0.00  0.00    +0.000 A 
ATOM     17  C   UNL     1       7.192   5.237  13.493  0.00  0.00    +0.000 A 
ENDBRANCH  11  12
ENDBRANCH  10  11
ENDBRANCH   5   6
BRANCH   1  19
ATOM     18  N   UNL     1       2.717   6.425  19.828  0.00  0.00    +0.000 N 
ATOM     19  C   UNL     1       2.434   5.379  18.912  0.00  0.00    +0.000 C 
ATOM     20  O   UNL     1       1.534   5.425  18.060  0.00  0.00    +0.000 OA
ATOM     21  H   UNL     1       3.608   6.412  20.310  0.00  0.00    +0.000 HD
BRANCH  18  29
ATOM     22  C   UNL     1       2.505   8.705  17.686  0.00  0.00    +0.000 C 
ATOM     23  C   UNL     1       1.766   8.624  18.986  0.00  0.00    +0.000 A 
ATOM     24  C   UNL     1       0.856   9.702  19.218  0.00  0.00    +0.000 A 
ATOM     25  C   UNL     1       0.157   9.817  20.402  0.00  0.00    +0.000 A 
ATOM     26  F   UNL     1      -0.694  10.835  20.582  0.00  0.00    +0.000 F 
ATOM     27  C   UNL     1       0.367   8.909  21.421  0.00  0.00    +0.000 A 
ATOM     28  C   UNL     1       1.230   7.828  21.203  0.00  0.00    +0.000 A 
ATOM     29  C   UNL     1       1.911   7.616  19.992  0.00  0.00    +0.000 A 
ENDBRANCH  18  29
ENDBRANCH   1  19
TORSDOF 5
ENDMDL
MODEL 4
REMARK VINA RESULT:      -7.9      0.974      1.637
REMARK  Name = 
REMARK  6 active torsions:
REMARK  status: ('A' for Active; 'I' for Inactive)
REMARK    1  A    between atoms: C_1  and  C_2
REMARK    2  A    between atoms: C_8  and  N_9
REMARK    3  A    between atoms: C_10  and  C_12
REMARK    4  A    between atoms: C_16  and  C_17
REMARK    5  A    between atoms: N_21  and  C_22
REMARK    6  A    between atoms: C_22  and  C_23
REMARK                            x       y       z     vdW  Elec       q    Type
REMARK                         _______ _______ _______ _____ _____    ______ ____
ROOT
ATOM      1  C   UNL     1       3.228   4.530  19.008  0.00  0.00    +0.000 C 
ATOM      2  C   UNL     1       2.311   3.356  19.271  0.00  0.00    +0.000 C 
ATOM      3  C   UNL     1       3.170   2.144  19.012  0.00  0.00    +0.000 C 
ATOM      4  O   UNL     1       4.200   2.536  18.112  0.00  0.00    +0.000 OA
ATOM      5  C   UNL     1       4.098   3.943  17.851  0.00  0.00    +0.000 C 
ENDROOT
BRANCH   5   6
ATOM      6  C   UNL     1       5.505   4.467  17.750  0.00  0.00    +0.000 A 
ATOM      7  C   UNL     1       6.507   4.366  18.702  0.00  0.00    +0.000 A 
ATOM      8  C   UNL     1       7.606   5.056  18.183  0.00  0.00    +0.000 A 
ATOM      9  N   UNL     1       7.348   5.596  16.997  0.00  0.00    +0.000 NA
ATOM     10  N   UNL     1       6.075   5.205  16.711  0.00  0.00    +0.000 N 
BRANCH  10  11
ATOM     11  C   UNL     1       5.525   5.672  15.430  0.00  0.00    +0.000 C 
BRANCH  11  12
ATOM     12  C   UNL     1       6.063   4.912  14.231  0.00  0.00    +0.000 A 
ATOM     13  C   UNL     1       7.303   5.274  13.685  0.00  0.00    +0.000 A 
ATOM     14  C   UNL     1       7.745   4.725  12.481  0.00  0.00    +0.000 A 
ATOM     15  C   UNL     1       6.987   3.747  11.843  0.00  0.00    +0.000 A 
ATOM     16  C   UNL     1       5.817   3.281  12.438  0.00  0.00    +0.000 A 
ATOM     17  C   UNL     1       5.356   3.857  13.628  0.00  0.00    +0.000 A 
ENDBRANCH  11  12
ENDBRANCH  10  11
ENDBRANCH   5   6
BRANCH   1  19
ATOM     18  N   UNL     1       2.729   6.993  19.309  0.00  0.00    +0.000 N 
ATOM     19  C   UNL     1       2.391   5.778  18.660  0.00  0.00    +0.000 C 
ATOM     20  O   UNL     1       1.496   5.670  17.808  0.00  0.00    +0.000 OA
ATOM     21  H   UNL     1       3.617   7.047  19.794  0.00  0.00    +0.000 HD
BRANCH  18  29
ATOM     22  C   UNL     1       0.836   8.140  21.529  0.00  0.00    +0.000 C 
ATOM     23  C   UNL     1       1.174   8.783  20.219  0.00  0.00    +0.000 A 
ATOM     24  C   UNL     1       0.577  10.066  20.018  0.00  0.00    +0.000 A 
ATOM     25  C   UNL     1       0.727  10.756  18.832  0.00  0.00    +0.000 A 
ATOM     26  F   UNL     1       0.161  11.960  18.680  0.00  0.00    +0.000 F 
ATOM     27  C   UNL     1       1.421  10.186  17.782  0.00  0.00    +0.000 A 
ATOM     28  C   UNL     1       2.041   8.944  17.970  0.00  0.00    +0.000 A 
ATOM     29  C   UNL     1       1.988   8.230  19.179  0.00  0.00    +0.000 A 
ENDBRANCH  18  29
ENDBRANCH   1  19
TORSDOF 5
ENDMDL
MODEL 5
REMARK VINA RESULT:      -7.8      1.096      1.436
REMARK  Name = 
REMARK  6 active torsions:
REMARK  status: ('A' for Active; 'I' for Inactive)
REMARK    1  A    between atoms: C_1  and  C_2
REMARK    2  A    between atoms: C_8  and  N_9
REMARK    3  A    between atoms: C_10  and  C_12
REMARK    4  A    between atoms: C_16  and  C_17
REMARK    5  A    between atoms: N_21  and  C_22
REMARK    6  A    between atoms: C_22  and  C_23
REMARK                            x       y       z     vdW  Elec       q    Type
REMARK                         _______ _______ _______ _____ _____    ______ ____
ROOT
ATOM      1  C   UNL     1       3.591   4.802  19.865  0.00  0.00    +0.000 C 
ATOM      2  C   UNL     1       2.869   3.657  20.542  0.00  0.00    +0.000 C 
ATOM      3  C   UNL     1       3.770   2.468  20.328  0.00  0.00    +0.000 C 
ATOM      4  O   UNL     1       4.545   2.723  19.162  0.00  0.00    +0.000 OA
ATOM      5  C   UNL     1       4.252   4.040  18.672  0.00  0.00    +0.000 C 
ENDROOT
BRANCH   5   6
ATOM      6  C   UNL     1       5.548   4.608  18.160  0.00  0.00    +0.000 A 
ATOM      7  C   UNL     1       6.367   5.529  18.793  0.00  0.00    +0.000 A 
ATOM      8  C   UNL     1       7.410   5.796  17.903  0.00  0.00    +0.000 A 
ATOM      9  N   UNL     1       7.282   5.131  16.761  0.00  0.00    +0.000 NA
ATOM     10  N   UNL     1       6.163   4.373  16.929  0.00  0.00    +0.000 N 
BRANCH  10  11
ATOM     11  C   UNL     1       5.779   3.520  15.794  0.00  0.00    +0.000 C 
BRANCH  11  12
ATOM     12  C   UNL     1       6.305   4.021  14.461  0.00  0.00    +0.000 A 
ATOM     13  C   UNL     1       5.832   3.444  13.273  0.00  0.00    +0.000 A 
ATOM     14  C   UNL     1       6.419   3.746  12.045  0.00  0.00    +0.000 A 
ATOM     15  C   UNL     1       7.440   4.691  11.975  0.00  0.00    +0.000 A 
ATOM     16  C   UNL     1       7.833   5.369  13.127  0.00  0.00    +0.000 A 
ATOM     17  C   UNL     1       7.269   5.039  14.364  0.00  0.00    +0.000 A 
ENDBRANCH  11  12
ENDBRANCH  10  11
ENDBRANCH   5   6
BRANCH   1  19
ATOM     18  N   UNL     1       2.550   7.069  20.297  0.00  0.00    +0.000 N 
ATOM     19  C   UNL     1       2.580   5.904  19.487  0.00  0.00    +0.000 C 
ATOM     20  O   UNL     1       1.875   5.740  18.480  0.00  0.00    +0.000 OA
ATOM     21  H   UNL     1       3.319   7.226  20.938  0.00  0.00    +0.000 HD
BRANCH  18  29
ATOM     22  C   UNL     1       2.417   8.952  17.794  0.00  0.00    +0.000 C 
ATOM     23  C   UNL     1       1.500   8.968  18.978  0.00  0.00    +0.000 A 
ATOM     24  C   UNL     1       0.449   9.934  18.901  0.00  0.00    +0.000 A 
ATOM     25  C   UNL     1      -0.433  10.129  19.944  0.00  0.00    +0.000 A 
ATOM     26  F   UNL     1      -1.411  11.037  19.835  0.00  0.00    +0.000 F 
ATOM     27  C   UNL     1      -0.282   9.421  21.120  0.00  0.00    +0.000 A 
ATOM     28  C   UNL     1       0.720   8.446  21.205  0.00  0.00    +0.000 A 
ATOM     29  C   UNL     1       1.600   8.150  20.149  0.00  0.00    +0.000 A 
ENDBRANCH  18  29
ENDBRANCH   1  19
TORSDOF 5
ENDMDL
MODEL 6
REMARK VINA RESULT:      -7.8      4.091      8.695
REMARK  Name = 
REMARK  6 active torsions:
REMARK  status: ('A' for Active; 'I' for Inactive)
REMARK    1  A    between atoms: C_1  and  C_2
REMARK    2  A    between atoms: C_8  and  N_9
REMARK    3  A    between atoms: C_10  and  C_12
REMARK    4  A    between atoms: C_16  and  C_17
REMARK    5  A    between atoms: N_21  and  C_22
REMARK    6  A    between atoms: C_22  and  C_23
REMARK                            x       y       z     vdW  Elec       q    Type
REMARK                         _______ _______ _______ _____ _____    ______ ____
ROOT
ATOM      1  C   UNL     1       0.138   9.608  21.170  0.00  0.00    +0.000 C 
ATOM      2  C   UNL     1      -0.356   9.266  22.558  0.00  0.00    +0.000 C 
ATOM      3  C   UNL     1      -0.960  10.550  23.068  0.00  0.00    +0.000 C 
ATOM      4  O   UNL     1      -0.332  11.622  22.374  0.00  0.00    +0.000 OA
ATOM      5  C   UNL     1       0.571  11.093  21.393  0.00  0.00    +0.000 C 
ENDROOT
BRANCH   5   6
ATOM      6  C   UNL     1       0.483  11.996  20.193  0.00  0.00    +0.000 A 
ATOM      7  C   UNL     1       1.506  12.739  19.627  0.00  0.00    +0.000 A 
ATOM      8  C   UNL     1       0.926  13.463  18.581  0.00  0.00    +0.000 A 
ATOM      9  N   UNL     1      -0.379  13.242  18.478  0.00  0.00    +0.000 NA
ATOM     10  N   UNL     1      -0.648  12.315  19.439  0.00  0.00    +0.000 N 
BRANCH  10  11
ATOM     11  C   UNL     1      -2.048  11.880  19.548  0.00  0.00    +0.000 C 
BRANCH  11  12
ATOM     12  C   UNL     1      -2.580  11.236  18.281  0.00  0.00    +0.000 A 
ATOM     13  C   UNL     1      -1.827  10.236  17.648  0.00  0.00    +0.000 A 
ATOM     14  C   UNL     1      -2.190   9.751  16.392  0.00  0.00    +0.000 A 
ATOM     15  C   UNL     1      -3.356  10.204  15.781  0.00  0.00    +0.000 A 
ATOM     16  C   UNL     1      -4.184  11.101  16.453  0.00  0.00    +0.000 A 
ATOM     17  C   UNL     1      -3.802  11.614  17.698  0.00  0.00    +0.000 A 
ENDBRANCH  11  12
ENDBRANCH  10  11
ENDBRANCH   5   6
BRANCH   1  19
ATOM     18  N   UNL     1       1.395   8.337  19.378  0.00  0.00    +0.000 N 
ATOM     19  C   UNL     1       1.258   8.630  20.759  0.00  0.00    +0.000 C 
ATOM     20  O   UNL     1       2.004   8.182  21.642  0.00  0.00    +0.000 OA
ATOM     21  H   UNL     1       0.913   8.929  18.711  0.00  0.00    +0.000 HD
BRANCH  18  29
ATOM     22  C   UNL     1       1.517   5.335  20.273  0.00  0.00    +0.000 C 
ATOM     23  C   UNL     1       2.330   5.983  19.194  0.00  0.00    +0.000 A 
ATOM     24  C   UNL     1       3.214   5.096  18.506  0.00  0.00    +0.000 A 
ATOM     25  C   UNL     1       4.087   5.552  17.539  0.00  0.00    +0.000 A 
ATOM     26  F   UNL     1       4.897   4.692  16.907  0.00  0.00    +0.000 F 
ATOM     27  C   UNL     1       4.161   6.901  17.252  0.00  0.00    +0.000 A 
ATOM     28  C   UNL     1       3.281   7.782  17.892  0.00  0.00    +0.000 A 
ATOM     29  C   UNL     1       2.319   7.367  18.829  0.00  0.00    +0.000 A 
ENDBRANCH  18  29
ENDBRANCH   1  19
TORSDOF 5
ENDMDL
MODEL 7
REMARK VINA RESULT:      -7.6      1.295      1.980
REMARK  Name = 
REMARK  6 active torsions:
REMARK  status: ('A' for Active; 'I' for Inactive)
REMARK    1  A    between atoms: C_1  and  C_2
REMARK    2  A    between atoms: C_8  and  N_9
REMARK    3  A    between atoms: C_10  and  C_12
REMARK    4  A    between atoms: C_16  and  C_17
REMARK    5  A    between atoms: N_21  and  C_22
REMARK    6  A    between atoms: C_22  and  C_23
REMARK                            x       y       z     vdW  Elec       q    Type
REMARK                         _______ _______ _______ _____ _____    ______ ____
ROOT
ATOM      1  C   UNL     1       3.132   5.513  19.007  0.00  0.00    +0.000 C 
ATOM      2  C   UNL     1       1.885   4.663  19.120  0.00  0.00    +0.000 C 
ATOM      3  C   UNL     1       2.316   3.300  18.642  0.00  0.00    +0.000 C 
ATOM      4  O   UNL     1       3.429   3.484  17.773  0.00  0.00    +0.000 OA
ATOM      5  C   UNL     1       3.784   4.874  17.739  0.00  0.00    +0.000 C 
ENDROOT
BRANCH   5   6
ATOM      6  C   UNL     1       5.285   4.935  17.665  0.00  0.00    +0.000 A 
ATOM      7  C   UNL     1       6.187   4.594  18.660  0.00  0.00    +0.000 A 
ATOM      8  C   UNL     1       7.456   4.880  18.148  0.00  0.00    +0.000 A 
ATOM      9  N   UNL     1       7.402   5.395  16.925  0.00  0.00    +0.000 NA
ATOM     10  N   UNL     1       6.076   5.394  16.611  0.00  0.00    +0.000 N 
BRANCH  10  11
ATOM     11  C   UNL     1       5.723   5.923  15.285  0.00  0.00    +0.000 C 
BRANCH  11  12
ATOM     12  C   UNL     1       6.107   4.997  14.146  0.00  0.00    +0.000 A 
ATOM     13  C   UNL     1       7.323   5.197  13.476  0.00  0.00    +0.000 A 
ATOM     14  C   UNL     1       7.628   4.487  12.314  0.00  0.00    +0.000 A 
ATOM     15  C   UNL     1       6.753   3.510  11.846  0.00  0.00    +0.000 A 
ATOM     16  C   UNL     1       5.603   3.208  12.572  0.00  0.00    +0.000 A 
ATOM     17  C   UNL     1       5.280   3.945  13.717  0.00  0.00    +0.000 A 
ENDBRANCH  11  12
ENDBRANCH  10  11
ENDBRANCH   5   6
BRANCH   1  19
ATOM     18  N   UNL     1       1.857   7.522  19.872  0.00  0.00    +0.000 N 
ATOM     19  C   UNL     1       2.740   7.000  18.891  0.00  0.00    +0.000 C 
ATOM     20  O   UNL     1       3.241   7.674  17.978  0.00  0.00    +0.000 OA
ATOM     21  H   UNL     1       1.696   6.977  20.711  0.00  0.00    +0.000 HD
BRANCH  18  29
ATOM     22  C   UNL     1       1.085   9.127  22.452  0.00  0.00    +0.000 C 
ATOM     23  C   UNL     1       1.015   9.615  21.037  0.00  0.00    +0.000 A 
ATOM     24  C   UNL     1       0.579  10.969  20.899  0.00  0.00    +0.000 A 
ATOM     25  C   UNL     1       0.387  11.545  19.660  0.00  0.00    +0.000 A 
ATOM     26  F   UNL     1      -0.014  12.819  19.567  0.00  0.00    +0.000 F 
ATOM     27  C   UNL     1       0.564  10.795  18.514  0.00  0.00    +0.000 A 
ATOM     28  C   UNL     1       1.022   9.477  18.626  0.00  0.00    +0.000 A 
ATOM     29  C   UNL     1       1.307   8.861  19.856  0.00  0.00    +0.000 A 
ENDBRANCH  18  29
ENDBRANCH   1  19
TORSDOF 5
ENDMDL
MODEL 8
REMARK VINA RESULT:      -7.6      0.981      1.388
REMARK  Name = 
REMARK  6 active torsions:
REMARK  status: ('A' for Active; 'I' for Inactive)
REMARK    1  A    between atoms: C_1  and  C_2
REMARK    2  A    between atoms: C_8  and  N_9
REMARK    3  A    between atoms: C_10  and  C_12
REMARK    4  A    between atoms: C_16  and  C_17
REMARK    5  A    between atoms: N_21  and  C_22
REMARK    6  A    between atoms: C_22  and  C_23
REMARK                            x       y       z     vdW  Elec       q    Type
REMARK                         _______ _______ _______ _____ _____    ______ ____
ROOT
ATOM      1  C   UNL     1       3.482   4.559  18.900  0.00  0.00    +0.000 C 
ATOM      2  C   UNL     1       2.910   3.164  18.774  0.00  0.00    +0.000 C 
ATOM      3  C   UNL     1       3.813   2.477  17.781  0.00  0.00    +0.000 C 
ATOM      4  O   UNL     1       4.399   3.486  16.967  0.00  0.00    +0.000 OA
ATOM      5  C   UNL     1       3.990   4.778  17.439  0.00  0.00    +0.000 C 
ENDROOT
BRANCH   5   6
ATOM      6  C   UNL     1       5.175   5.691  17.280  0.00  0.00    +0.000 A 
ATOM      7  C   UNL     1       5.277   7.011  17.690  0.00  0.00    +0.000 A 
ATOM      8  C   UNL     1       6.534   7.453  17.267  0.00  0.00    +0.000 A 
ATOM      9  N   UNL     1       7.201   6.515  16.605  0.00  0.00    +0.000 NA
ATOM     10  N   UNL     1       6.388   5.423  16.644  0.00  0.00    +0.000 N 
BRANCH  10  11
ATOM     11  C   UNL     1       6.891   4.215  15.973  0.00  0.00    +0.000 C 
BRANCH  11  12
ATOM     12  C   UNL     1       6.832   4.299  14.458  0.00  0.00    +0.000 A 
ATOM     13  C   UNL     1       5.911   3.505  13.760  0.00  0.00    +0.000 A 
ATOM     14  C   UNL     1       5.949   3.418  12.368  0.00  0.00    +0.000 A 
ATOM     15  C   UNL     1       6.861   4.184  11.647  0.00  0.00    +0.000 A 
ATOM     16  C   UNL     1       7.696   5.075  12.318  0.00  0.00    +0.000 A 
ATOM     17  C   UNL     1       7.682   5.137  13.716  0.00  0.00    +0.000 A 
ENDBRANCH  11  12
ENDBRANCH  10  11
ENDBRANCH   5   6
BRANCH   1  19
ATOM     18  N   UNL     1       2.681   6.917  19.354  0.00  0.00    +0.000 N 
ATOM     19  C   UNL     1       2.388   5.529  19.390  0.00  0.00    +0.000 C 
ATOM     20  O   UNL     1       1.299   5.057  19.751  0.00  0.00    +0.000 OA
ATOM     21  H   UNL     1       3.486   7.223  18.819  0.00  0.00    +0.000 HD
BRANCH  18  29
ATOM     22  C   UNL     1       1.885   9.488  17.746  0.00  0.00    +0.000 C 
ATOM     23  C   UNL     1       1.401   9.096  19.109  0.00  0.00    +0.000 A 
ATOM     24  C   UNL     1       0.454  10.000  19.683  0.00  0.00    +0.000 A 
ATOM     25  C   UNL     1      -0.029   9.824  20.964  0.00  0.00    +0.000 A 
ATOM     26  F   UNL     1      -0.922  10.685  21.468  0.00  0.00    +0.000 F 
ATOM     27  C   UNL     1       0.441   8.787  21.745  0.00  0.00    +0.000 A 
ATOM     28  C   UNL     1       1.344   7.872  21.190  0.00  0.00    +0.000 A 
ATOM     29  C   UNL     1       1.814   7.955  19.868  0.00  0.00    +0.000 A 
ENDBRANCH  18  29
ENDBRANCH   1  19
TORSDOF 5
ENDMDL
MODEL 9
REMARK VINA RESULT:      -7.6      2.280      3.391
REMARK  Name = 
REMARK  6 active torsions:
REMARK  status: ('A' for Active; 'I' for Inactive)
REMARK    1  A    between atoms: C_1  and  C_2
REMARK    2  A    between atoms: C_8  and  N_9
REMARK    3  A    between atoms: C_10  and  C_12
REMARK    4  A    between atoms: C_16  and  C_17
REMARK    5  A    between atoms: N_21  and  C_22
REMARK    6  A    between atoms: C_22  and  C_23
REMARK                            x       y       z     vdW  Elec       q    Type
REMARK                         _______ _______ _______ _____ _____    ______ ____
ROOT
ATOM      1  C   UNL     1       2.604   4.485  20.582  0.00  0.00    +0.000 C 
ATOM      2  C   UNL     1       2.310   3.716  21.851  0.00  0.00    +0.000 C 
ATOM      3  C   UNL     1       2.776   2.313  21.556  0.00  0.00    +0.000 C 
ATOM      4  O   UNL     1       2.728   2.136  20.145  0.00  0.00    +0.000 OA
ATOM      5  C   UNL     1       2.343   3.369  19.520  0.00  0.00    +0.000 C 
ENDROOT
BRANCH   5   6
ATOM      6  C   UNL     1       3.133   3.472  18.244  0.00  0.00    +0.000 A 
ATOM      7  C   UNL     1       2.696   3.176  16.963  0.00  0.00    +0.000 A 
ATOM      8  C   UNL     1       3.798   3.363  16.124  0.00  0.00    +0.000 A 
ATOM      9  N   UNL     1       4.886   3.725  16.795  0.00  0.00    +0.000 NA
ATOM     10  N   UNL     1       4.473   3.830  18.088  0.00  0.00    +0.000 N 
BRANCH  10  11
ATOM     11  C   UNL     1       5.497   4.225  19.067  0.00  0.00    +0.000 C 
BRANCH  11  12
ATOM     12  C   UNL     1       6.247   5.485  18.678  0.00  0.00    +0.000 A 
ATOM     13  C   UNL     1       5.670   6.375  17.760  0.00  0.00    +0.000 A 
ATOM     14  C   UNL     1       6.400   7.444  17.241  0.00  0.00    +0.000 A 
ATOM     15  C   UNL     1       7.696   7.685  17.690  0.00  0.00    +0.000 A 
ATOM     16  C   UNL     1       8.237   6.889  18.696  0.00  0.00    +0.000 A 
ATOM     17  C   UNL     1       7.519   5.795  19.191  0.00  0.00    +0.000 A 
ENDBRANCH  11  12
ENDBRANCH  10  11
ENDBRANCH   5   6
BRANCH   1  19
ATOM     18  N   UNL     1       2.316   6.992  20.377  0.00  0.00    +0.000 N 
ATOM     19  C   UNL     1       1.689   5.725  20.500  0.00  0.00    +0.000 C 
ATOM     20  O   UNL     1       0.461   5.554  20.505  0.00  0.00    +0.000 OA
ATOM     21  H   UNL     1       3.299   7.019  20.133  0.00  0.00    +0.000 HD
BRANCH  18  29
ATOM     22  C   UNL     1       1.899   8.788  17.842  0.00  0.00    +0.000 C 
ATOM     23  C   UNL     1       1.374   9.047  19.221  0.00  0.00    +0.000 A 
ATOM     24  C   UNL     1       0.578  10.228  19.339  0.00  0.00    +0.000 A 
ATOM     25  C   UNL     1       0.086  10.650  20.557  0.00  0.00    +0.000 A 
ATOM     26  F   UNL     1      -0.664  11.757  20.630  0.00  0.00    +0.000 F 
ATOM     27  C   UNL     1       0.402   9.958  21.709  0.00  0.00    +0.000 A 
ATOM     28  C   UNL     1       1.154   8.780  21.611  0.00  0.00    +0.000 A 
ATOM     29  C   UNL     1       1.618   8.260  20.391  0.00  0.00    +0.000 A 
ENDBRANCH  18  29
ENDBRANCH   1  19
TORSDOF 5
ENDMDL
