MODEL 1
REMARK VINA RESULT:      -8.7      0.000      0.000
REMARK  Name = 
REMARK  4 active torsions:
REMARK  status: ('A' for Active; 'I' for Inactive)
REMARK    1  A    between atoms: C_9  and  C_10
REMARK    2  A    between atoms: N_12  and  C_13
REMARK    3  A    between atoms: C_17  and  O_18
REMARK    4  A    between atoms: O_18  and  C_19
REMARK                            x       y       z     vdW  Elec       q    Type
REMARK                         _______ _______ _______ _____ _____    ______ ____
ROOT
ATOM      1  C   UNL     1       1.929   8.932  18.336  0.00  0.00    +0.000 C 
ATOM      2  O   UNL     1       2.207   9.408  17.238  0.00  0.00    +0.000 OA
ATOM      3  N   UNL     1       1.137   9.525  19.309  0.00  0.00    +0.000 N 
ATOM      4  H   UNL     1       1.139   9.123  20.237  0.00  0.00    +0.000 HD
ENDROOT
BRANCH   1  13
ATOM      5  O   UNL     1       1.873   3.047  22.311  0.00  0.00    +0.000 OA
ATOM      6  C   UNL     1       2.094   3.544  21.207  0.00  0.00    +0.000 C 
ATOM      7  C   UNL     1       1.922   2.750  19.936  0.00  0.00    +0.000 C 
ATOM      8  C   UNL     1       3.222   2.273  19.334  0.00  0.00    +0.000 C 
ATOM      9  S   UNL     1       4.537   3.513  19.153  0.00  0.00    +0.000 S 
ATOM     10  C   UNL     1       3.606   5.028  18.951  0.00  0.00    +0.000 A 
ATOM     11  C   UNL     1       3.900   5.780  17.810  0.00  0.00    +0.000 A 
ATOM     12  C   UNL     1       3.360   7.054  17.650  0.00  0.00    +0.000 A 
ATOM     13  C   UNL     1       2.553   7.620  18.647  0.00  0.00    +0.000 A 
ATOM     14  C   UNL     1       2.276   6.893  19.808  0.00  0.00    +0.000 A 
ATOM     15  C   UNL     1       2.765   5.580  19.943  0.00  0.00    +0.000 A 
ATOM     16  N   UNL     1       2.389   4.879  21.103  0.00  0.00    +0.000 N 
ATOM     17  H   UNL     1       2.182   5.397  21.947  0.00  0.00    +0.000 HD
ENDBRANCH   1  13
BRANCH   3  18
ATOM     18  C   UNL     1       0.505  10.792  19.165  0.00  0.00    +0.000 A 
ATOM     19  C   UNL     1      -0.730  10.946  18.527  0.00  0.00    +0.000 A 
ATOM     20  C   UNL     1      -1.276  12.209  18.300  0.00  0.00    +0.000 A 
ATOM     21  C   UNL     1      -0.605  13.340  18.737  0.00  0.00    +0.000 A 
ATOM     22  C   UNL     1       0.578  13.210  19.472  0.00  0.00    +0.000 A 
ATOM     23  C   UNL     1       1.145  11.938  19.664  0.00  0.00    +0.000 A 
BRANCH  22  24
ATOM     24  O   UNL     1       1.281  14.295  19.958  0.00  0.00    +0.000 OA
BRANCH  24  25
ATOM     25  C   UNL     1       1.922  15.121  19.042  0.00  0.00    +0.000 A 
ATOM     26  C   UNL     1       1.503  16.441  18.951  0.00  0.00    +0.000 A 
ATOM     27  N   UNL     1       2.077  17.335  18.105  0.00  0.00    +0.000 NA
ATOM     28  C   UNL     1       3.086  16.845  17.346  0.00  0.00    +0.000 A 
ATOM     29  C   UNL     1       3.491  15.525  17.421  0.00  0.00    +0.000 A 
ATOM     30  N   UNL     1       2.909  14.631  18.253  0.00  0.00    +0.000 NA
ENDBRANCH  24  25
ENDBRANCH  22  24
ENDBRANCH   3  18
TORSDOF 4
ENDMDL
MODEL 2
REMARK VINA RESULT:      -8.7      3.565      9.279
REMARK  Name = 
REMARK  4 active torsions:
REMARK  status: ('A' for Active; 'I' for Inactive)
REMARK    1  A    between atoms: C_9  and  C_10
REMARK    2  A    between atoms: N_12  and  C_13
REMARK    3  A    between atoms: C_17  and  O_18
REMARK    4  A    between atoms: O_18  and  C_19
REMARK                            x       y       z     vdW  Elec       q    Type
REMARK                         _______ _______ _______ _____ _____    ______ ____
ROOT
ATOM      1  C   UNL     1       1.820   7.555  19.982  0.00  0.00    +0.000 C 
ATOM      2  O   UNL     1       2.232   7.720  18.837  0.00  0.00    +0.000 OA
ATOM      3  N   UNL     1       1.879   6.375  20.711  0.00  0.00    +0.000 N 
ATOM      4  H   UNL     1       1.339   6.313  21.564  0.00  0.00    +0.000 HD
ENDROOT
BRANCH   1  13
ATOM      5  O   UNL     1      -0.806  14.102  19.161  0.00  0.00    +0.000 OA
ATOM      6  C   UNL     1      -0.905  13.014  19.728  0.00  0.00    +0.000 C 
ATOM      7  C   UNL     1      -2.242  12.478  20.178  0.00  0.00    +0.000 C 
ATOM      8  C   UNL     1      -2.486  12.618  21.662  0.00  0.00    +0.000 C 
ATOM      9  S   UNL     1      -1.156  12.054  22.762  0.00  0.00    +0.000 S 
ATOM     10  C   UNL     1      -0.379  10.767  21.791  0.00  0.00    +0.000 A 
ATOM     11  C   UNL     1      -0.271   9.517  22.406  0.00  0.00    +0.000 A 
ATOM     12  C   UNL     1       0.470   8.501  21.806  0.00  0.00    +0.000 A 
ATOM     13  C   UNL     1       1.155   8.728  20.605  0.00  0.00    +0.000 A 
ATOM     14  C   UNL     1       1.082   9.984  19.994  0.00  0.00    +0.000 A 
ATOM     15  C   UNL     1       0.281  10.992  20.562  0.00  0.00    +0.000 A 
ATOM     16  N   UNL     1       0.194  12.206  19.858  0.00  0.00    +0.000 N 
ATOM     17  H   UNL     1       0.967  12.491  19.269  0.00  0.00    +0.000 HD
ENDBRANCH   1  13
BRANCH   3  18
ATOM     18  C   UNL     1       2.453   5.164  20.231  0.00  0.00    +0.000 A 
ATOM     19  C   UNL     1       1.745   3.958  20.203  0.00  0.00    +0.000 A 
ATOM     20  C   UNL     1       2.361   2.764  19.833  0.00  0.00    +0.000 A 
ATOM     21  C   UNL     1       3.695   2.764  19.455  0.00  0.00    +0.000 A 
ATOM     22  C   UNL     1       4.397   3.971  19.371  0.00  0.00    +0.000 A 
ATOM     23  C   UNL     1       3.783   5.167  19.782  0.00  0.00    +0.000 A 
BRANCH  22  24
ATOM     24  O   UNL     1       5.719   4.042  18.976  0.00  0.00    +0.000 OA
BRANCH  24  25
ATOM     25  C   UNL     1       5.986   4.280  17.633  0.00  0.00    +0.000 A 
ATOM     26  C   UNL     1       7.268   4.683  17.285  0.00  0.00    +0.000 A 
ATOM     27  N   UNL     1       7.638   4.920  16.000  0.00  0.00    +0.000 NA
ATOM     28  C   UNL     1       6.663   4.742  15.078  0.00  0.00    +0.000 A 
ATOM     29  C   UNL     1       5.380   4.359  15.424  0.00  0.00    +0.000 A 
ATOM     30  N   UNL     1       5.008   4.139  16.705  0.00  0.00    +0.000 NA
ENDBRANCH  24  25
ENDBRANCH  22  24
ENDBRANCH   3  18
TORSDOF 4
ENDMDL
MODEL 3
REMARK VINA RESULT:      -8.6      3.021      4.816
REMARK  Name = 
REMARK  4 active torsions:
REMARK  status: ('A' for Active; 'I' for Inactive)
REMARK    1  A    between atoms: C_9  and  C_10
REMARK    2  A    between atoms: N_12  and  C_13
REMARK    3  A    between atoms: C_17  and  O_18
REMARK    4  A    between atoms: O_18  and  C_19
REMARK                            x       y       z     vdW  Elec       q    Type
REMARK                         _______ _______ _______ _____ _____    ______ ____
ROOT
ATOM      1  C   UNL     1       1.655   8.985  18.307  0.00  0.00    +0.000 C 
ATOM      2  O   UNL     1       2.157   9.740  17.478  0.00  0.00    +0.000 OA
ATOM      3  N   UNL     1       0.474   9.203  19.002  0.00  0.00    +0.000 N 
ATOM      4  H   UNL     1       0.266   8.604  19.790  0.00  0.00    +0.000 HD
ENDROOT
BRANCH   1  13
ATOM      5  O   UNL     1       2.226   3.053  22.168  0.00  0.00    +0.000 OA
ATOM      6  C   UNL     1       2.414   3.598  21.081  0.00  0.00    +0.000 C 
ATOM      7  C   UNL     1       2.380   2.817  19.790  0.00  0.00    +0.000 C 
ATOM      8  C   UNL     1       3.748   2.521  19.222  0.00  0.00    +0.000 C 
ATOM      9  S   UNL     1       4.900   3.920  19.106  0.00  0.00    +0.000 S 
ATOM     10  C   UNL     1       3.791   5.310  18.902  0.00  0.00    +0.000 A 
ATOM     11  C   UNL     1       4.022   6.119  17.785  0.00  0.00    +0.000 A 
ATOM     12  C   UNL     1       3.330   7.318  17.632  0.00  0.00    +0.000 A 
ATOM     13  C   UNL     1       2.430   7.755  18.613  0.00  0.00    +0.000 A 
ATOM     14  C   UNL     1       2.213   6.973  19.751  0.00  0.00    +0.000 A 
ATOM     15  C   UNL     1       2.860   5.730  19.877  0.00  0.00    +0.000 A 
ATOM     16  N   UNL     1       2.541   4.961  21.011  0.00  0.00    +0.000 N 
ATOM     17  H   UNL     1       2.247   5.430  21.858  0.00  0.00    +0.000 HD
ENDBRANCH   1  13
BRANCH   3  18
ATOM     18  C   UNL     1      -0.353  10.350  18.840  0.00  0.00    +0.000 A 
ATOM     19  C   UNL     1      -0.175  11.515  19.594  0.00  0.00    +0.000 A 
ATOM     20  C   UNL     1      -1.063  12.585  19.497  0.00  0.00    +0.000 A 
ATOM     21  C   UNL     1      -2.132  12.516  18.616  0.00  0.00    +0.000 A 
ATOM     22  C   UNL     1      -2.273  11.409  17.773  0.00  0.00    +0.000 A 
ATOM     23  C   UNL     1      -1.397  10.316  17.902  0.00  0.00    +0.000 A 
BRANCH  22  24
ATOM     24  O   UNL     1      -3.299  11.291  16.857  0.00  0.00    +0.000 OA
BRANCH  24  25
ATOM     25  C   UNL     1      -4.603  11.439  17.315  0.00  0.00    +0.000 A 
ATOM     26  C   UNL     1      -5.082  10.510  18.228  0.00  0.00    +0.000 A 
ATOM     27  N   UNL     1      -6.333  10.577  18.754  0.00  0.00    +0.000 NA
ATOM     28  C   UNL     1      -7.086  11.613  18.316  0.00  0.00    +0.000 A 
ATOM     29  C   UNL     1      -6.618  12.528  17.390  0.00  0.00    +0.000 A 
ATOM     30  N   UNL     1      -5.378  12.452  16.856  0.00  0.00    +0.000 NA
ENDBRANCH  24  25
ENDBRANCH  22  24
ENDBRANCH   3  18
TORSDOF 4
ENDMDL
MODEL 4
REMARK VINA RESULT:      -8.6      2.757      4.585
REMARK  Name = 
REMARK  4 active torsions:
REMARK  status: ('A' for Active; 'I' for Inactive)
REMARK    1  A    between atoms: C_9  and  C_10
REMARK    2  A    between atoms: N_12  and  C_13
REMARK    3  A    between atoms: C_17  and  O_18
REMARK    4  A    between atoms: O_18  and  C_19
REMARK                            x       y       z     vdW  Elec       q    Type
REMARK                         _______ _______ _______ _____ _____    ______ ____
ROOT
ATOM      1  C   UNL     1       1.758   8.946  18.429  0.00  0.00    +0.000 C 
ATOM      2  O   UNL     1       2.091   9.511  17.390  0.00  0.00    +0.000 OA
ATOM      3  N   UNL     1       0.845   9.418  19.361  0.00  0.00    +0.000 N 
ATOM      4  H   UNL     1       0.799   8.958  20.260  0.00  0.00    +0.000 HD
ENDROOT
BRANCH   1  13
ATOM      5  O   UNL     1       1.996   2.981  22.276  0.00  0.00    +0.000 OA
ATOM      6  C   UNL     1       2.196   3.513  21.185  0.00  0.00    +0.000 C 
ATOM      7  C   UNL     1       2.076   2.739  19.895  0.00  0.00    +0.000 C 
ATOM      8  C   UNL     1       3.405   2.347  19.295  0.00  0.00    +0.000 C 
ATOM      9  S   UNL     1       4.652   3.661  19.151  0.00  0.00    +0.000 S 
ATOM     10  C   UNL     1       3.640   5.126  18.973  0.00  0.00    +0.000 A 
ATOM     11  C   UNL     1       3.902   5.918  17.852  0.00  0.00    +0.000 A 
ATOM     12  C   UNL     1       3.294   7.164  17.714  0.00  0.00    +0.000 A 
ATOM     13  C   UNL     1       2.451   7.663  18.717  0.00  0.00    +0.000 A 
ATOM     14  C   UNL     1       2.205   6.897  19.859  0.00  0.00    +0.000 A 
ATOM     15  C   UNL     1       2.765   5.610  19.971  0.00  0.00    +0.000 A 
ATOM     16  N   UNL     1       2.419   4.864  21.112  0.00  0.00    +0.000 N 
ATOM     17  H   UNL     1       2.179   5.351  21.965  0.00  0.00    +0.000 HD
ENDBRANCH   1  13
BRANCH   3  18
ATOM     18  C   UNL     1       0.135  10.646  19.236  0.00  0.00    +0.000 A 
ATOM     19  C   UNL     1       0.587  11.836  19.816  0.00  0.00    +0.000 A 
ATOM     20  C   UNL     1      -0.180  12.999  19.775  0.00  0.00    +0.000 A 
ATOM     21  C   UNL     1      -1.404  12.996  19.123  0.00  0.00    +0.000 A 
ATOM     22  C   UNL     1      -1.831  11.851  18.444  0.00  0.00    +0.000 A 
ATOM     23  C   UNL     1      -1.073  10.669  18.521  0.00  0.00    +0.000 A 
BRANCH  22  24
ATOM     24  O   UNL     1      -3.026  11.791  17.755  0.00  0.00    +0.000 OA
BRANCH  24  25
ATOM     25  C   UNL     1      -4.200  11.679  18.492  0.00  0.00    +0.000 A 
ATOM     26  C   UNL     1      -5.154  10.768  18.063  0.00  0.00    +0.000 A 
ATOM     27  N   UNL     1      -6.324  10.566  18.723  0.00  0.00    +0.000 NA
ATOM     28  C   UNL     1      -6.498  11.325  19.831  0.00  0.00    +0.000 A 
ATOM     29  C   UNL     1      -5.557  12.248  20.249  0.00  0.00    +0.000 A 
ATOM     30  N   UNL     1      -4.400  12.460  19.582  0.00  0.00    +0.000 NA
ENDBRANCH  24  25
ENDBRANCH  22  24
ENDBRANCH   3  18
TORSDOF 4
ENDMDL
MODEL 5
REMARK VINA RESULT:      -8.5      0.753      1.114
REMARK  Name = 
REMARK  4 active torsions:
REMARK  status: ('A' for Active; 'I' for Inactive)
REMARK    1  A    between atoms: C_9  and  C_10
REMARK    2  A    between atoms: N_12  and  C_13
REMARK    3  A    between atoms: C_17  and  O_18
REMARK    4  A    between atoms: O_18  and  C_19
REMARK                            x       y       z     vdW  Elec       q    Type
REMARK                         _______ _______ _______ _____ _____    ______ ____
ROOT
ATOM      1  C   UNL     1       1.876   8.921  18.384  0.00  0.00    +0.000 C 
ATOM      2  O   UNL     1       2.155   9.417  17.295  0.00  0.00    +0.000 OA
ATOM      3  N   UNL     1       1.067   9.488  19.358  0.00  0.00    +0.000 N 
ATOM      4  H   UNL     1       1.069   9.073  20.281  0.00  0.00    +0.000 HD
ENDROOT
BRANCH   1  13
ATOM      5  O   UNL     1       1.899   2.994  22.296  0.00  0.00    +0.000 OA
ATOM      6  C   UNL     1       2.113   3.506  21.197  0.00  0.00    +0.000 C 
ATOM      7  C   UNL     1       1.953   2.723  19.917  0.00  0.00    +0.000 C 
ATOM      8  C   UNL     1       3.261   2.271  19.312  0.00  0.00    +0.000 C 
ATOM      9  S   UNL     1       4.559   3.531  19.145  0.00  0.00    +0.000 S 
ATOM     10  C   UNL     1       3.606   5.034  18.958  0.00  0.00    +0.000 A 
ATOM     11  C   UNL     1       3.891   5.803  17.826  0.00  0.00    +0.000 A 
ATOM     12  C   UNL     1       3.333   7.071  17.679  0.00  0.00    +0.000 A 
ATOM     13  C   UNL     1       2.518   7.614  18.681  0.00  0.00    +0.000 A 
ATOM     14  C   UNL     1       2.250   6.871  19.834  0.00  0.00    +0.000 A 
ATOM     15  C   UNL     1       2.758   5.564  19.956  0.00  0.00    +0.000 A 
ATOM     16  N   UNL     1       2.389   4.845  21.107  0.00  0.00    +0.000 N 
ATOM     17  H   UNL     1       2.175   5.351  21.957  0.00  0.00    +0.000 HD
ENDBRANCH   1  13
BRANCH   3  18
ATOM     18  C   UNL     1       0.417  10.748  19.227  0.00  0.00    +0.000 A 
ATOM     19  C   UNL     1      -0.807  10.895  18.566  0.00  0.00    +0.000 A 
ATOM     20  C   UNL     1      -1.370  12.152  18.353  0.00  0.00    +0.000 A 
ATOM     21  C   UNL     1      -0.727  13.285  18.829  0.00  0.00    +0.000 A 
ATOM     22  C   UNL     1       0.442  13.159  19.586  0.00  0.00    +0.000 A 
ATOM     23  C   UNL     1       1.026  11.893  19.764  0.00  0.00    +0.000 A 
BRANCH  22  24
ATOM     24  O   UNL     1       1.115  14.245  20.110  0.00  0.00    +0.000 OA
BRANCH  24  25
ATOM     25  C   UNL     1       2.351  14.573  19.563  0.00  0.00    +0.000 A 
ATOM     26  C   UNL     1       3.450  14.604  20.409  0.00  0.00    +0.000 A 
ATOM     27  N   UNL     1       4.704  14.891  19.971  0.00  0.00    +0.000 NA
ATOM     28  C   UNL     1       4.805  15.154  18.646  0.00  0.00    +0.000 A 
ATOM     29  C   UNL     1       3.707  15.144  17.806  0.00  0.00    +0.000 A 
ATOM     30  N   UNL     1       2.457  14.873  18.245  0.00  0.00    +0.000 NA
ENDBRANCH  24  25
ENDBRANCH  22  24
ENDBRANCH   3  18
TORSDOF 4
ENDMDL
MODEL 6
REMARK VINA RESULT:      -8.5      1.362      1.694
REMARK  Name = 
REMARK  4 active torsions:
REMARK  status: ('A' for Active; 'I' for Inactive)
REMARK    1  A    between atoms: C_9  and  C_10
REMARK    2  A    between atoms: N_12  and  C_13
REMARK    3  A    between atoms: C_17  and  O_18
REMARK    4  A    between atoms: O_18  and  C_19
REMARK                            x       y       z     vdW  Elec       q    Type
REMARK                         _______ _______ _______ _____ _____    ______ ____
ROOT
ATOM      1  C   UNL     1       1.898   8.880  18.353  0.00  0.00    +0.000 C 
ATOM      2  O   UNL     1       2.172   9.362  17.256  0.00  0.00    +0.000 OA
ATOM      3  N   UNL     1       1.099   9.463  19.326  0.00  0.00    +0.000 N 
ATOM      4  H   UNL     1       1.105   9.059  20.253  0.00  0.00    +0.000 HD
ENDROOT
BRANCH   1  13
ATOM      5  O   UNL     1       1.897   2.985  22.314  0.00  0.00    +0.000 OA
ATOM      6  C   UNL     1       2.114   3.487  21.211  0.00  0.00    +0.000 C 
ATOM      7  C   UNL     1       1.951   2.694  19.937  0.00  0.00    +0.000 C 
ATOM      8  C   UNL     1       3.257   2.232  19.337  0.00  0.00    +0.000 C 
ATOM      9  S   UNL     1       4.560   3.486  19.160  0.00  0.00    +0.000 S 
ATOM     10  C   UNL     1       3.613   4.991  18.960  0.00  0.00    +0.000 A 
ATOM     11  C   UNL     1       3.901   5.750  17.822  0.00  0.00    +0.000 A 
ATOM     12  C   UNL     1       3.348   7.018  17.664  0.00  0.00    +0.000 A 
ATOM     13  C   UNL     1       2.535   7.573  18.661  0.00  0.00    +0.000 A 
ATOM     14  C   UNL     1       2.264   6.841  19.820  0.00  0.00    +0.000 A 
ATOM     15  C   UNL     1       2.766   5.533  19.953  0.00  0.00    +0.000 A 
ATOM     16  N   UNL     1       2.395   4.825  21.110  0.00  0.00    +0.000 N 
ATOM     17  H   UNL     1       2.183   5.339  21.956  0.00  0.00    +0.000 HD
ENDBRANCH   1  13
BRANCH   3  18
ATOM     18  C   UNL     1       0.455  10.724  19.185  0.00  0.00    +0.000 A 
ATOM     19  C   UNL     1      -0.932  10.847  19.053  0.00  0.00    +0.000 A 
ATOM     20  C   UNL     1      -1.530  12.082  18.805  0.00  0.00    +0.000 A 
ATOM     21  C   UNL     1      -0.746  13.223  18.715  0.00  0.00    +0.000 A 
ATOM     22  C   UNL     1       0.630  13.145  18.949  0.00  0.00    +0.000 A 
ATOM     23  C   UNL     1       1.233  11.892  19.160  0.00  0.00    +0.000 A 
BRANCH  22  24
ATOM     24  O   UNL     1       1.461  14.246  18.900  0.00  0.00    +0.000 OA
BRANCH  24  25
ATOM     25  C   UNL     1       2.312  14.470  19.976  0.00  0.00    +0.000 A 
ATOM     26  C   UNL     1       1.742  14.692  21.222  0.00  0.00    +0.000 A 
ATOM     27  N   UNL     1       2.484  14.898  22.341  0.00  0.00    +0.000 NA
ATOM     28  C   UNL     1       3.825  14.881  22.153  0.00  0.00    +0.000 A 
ATOM     29  C   UNL     1       4.395  14.681  20.909  0.00  0.00    +0.000 A 
ATOM     30  N   UNL     1       3.655  14.490  19.793  0.00  0.00    +0.000 NA
ENDBRANCH  24  25
ENDBRANCH  22  24
ENDBRANCH   3  18
TORSDOF 4
ENDMDL
MODEL 7
REMARK VINA RESULT:      -8.5      2.489      4.015
REMARK  Name = 
REMARK  4 active torsions:
REMARK  status: ('A' for Active; 'I' for Inactive)
REMARK    1  A    between atoms: C_9  and  C_10
REMARK    2  A    between atoms: N_12  and  C_13
REMARK    3  A    between atoms: C_17  and  O_18
REMARK    4  A    between atoms: O_18  and  C_19
REMARK                            x       y       z     vdW  Elec       q    Type
REMARK                         _______ _______ _______ _____ _____    ______ ____
ROOT
ATOM      1  C   UNL     1       1.938   8.657  18.427  0.00  0.00    +0.000 C 
ATOM      2  O   UNL     1       2.084   9.045  17.270  0.00  0.00    +0.000 OA
ATOM      3  N   UNL     1       1.306   9.351  19.449  0.00  0.00    +0.000 N 
ATOM      4  H   UNL     1       1.417   9.013  20.396  0.00  0.00    +0.000 HD
ENDROOT
BRANCH   1  13
ATOM      5  O   UNL     1       1.614   2.649  22.199  0.00  0.00    +0.000 OA
ATOM      6  C   UNL     1       1.922   3.182  21.133  0.00  0.00    +0.000 C 
ATOM      7  C   UNL     1       1.867   2.428  19.828  0.00  0.00    +0.000 C 
ATOM      8  C   UNL     1       3.219   1.982  19.325  0.00  0.00    +0.000 C 
ATOM      9  S   UNL     1       4.530   3.239  19.294  0.00  0.00    +0.000 S 
ATOM     10  C   UNL     1       3.601   4.751  19.061  0.00  0.00    +0.000 A 
ATOM     11  C   UNL     1       3.983   5.542  17.973  0.00  0.00    +0.000 A 
ATOM     12  C   UNL     1       3.443   6.815  17.807  0.00  0.00    +0.000 A 
ATOM     13  C   UNL     1       2.549   7.342  18.749  0.00  0.00    +0.000 A 
ATOM     14  C   UNL     1       2.183   6.575  19.859  0.00  0.00    +0.000 A 
ATOM     15  C   UNL     1       2.674   5.263  19.995  0.00  0.00    +0.000 A 
ATOM     16  N   UNL     1       2.209   4.522  21.096  0.00  0.00    +0.000 N 
ATOM     17  H   UNL     1       1.926   5.011  21.935  0.00  0.00    +0.000 HD
ENDBRANCH   1  13
BRANCH   3  18
ATOM     18  C   UNL     1       0.708  10.634  19.296  0.00  0.00    +0.000 A 
ATOM     19  C   UNL     1       1.419  11.740  18.817  0.00  0.00    +0.000 A 
ATOM     20  C   UNL     1       0.846  13.010  18.781  0.00  0.00    +0.000 A 
ATOM     21  C   UNL     1      -0.465  13.188  19.198  0.00  0.00    +0.000 A 
ATOM     22  C   UNL     1      -1.232  12.083  19.580  0.00  0.00    +0.000 A 
ATOM     23  C   UNL     1      -0.638  10.811  19.652  0.00  0.00    +0.000 A 
BRANCH  22  24
ATOM     24  O   UNL     1      -2.549  12.189  19.980  0.00  0.00    +0.000 OA
BRANCH  24  25
ATOM     25  C   UNL     1      -3.539  12.027  19.017  0.00  0.00    +0.000 A 
ATOM     26  C   UNL     1      -4.850  12.304  19.377  0.00  0.00    +0.000 A 
ATOM     27  N   UNL     1      -5.887  12.199  18.506  0.00  0.00    +0.000 NA
ATOM     28  C   UNL     1      -5.551  11.796  17.257  0.00  0.00    +0.000 A 
ATOM     29  C   UNL     1      -4.248  11.501  16.902  0.00  0.00    +0.000 A 
ATOM     30  N   UNL     1      -3.218  11.591  17.774  0.00  0.00    +0.000 NA
ENDBRANCH  24  25
ENDBRANCH  22  24
ENDBRANCH   3  18
TORSDOF 4
ENDMDL
MODEL 8
REMARK VINA RESULT:      -8.5      3.558      8.890
REMARK  Name = 
REMARK  4 active torsions:
REMARK  status: ('A' for Active; 'I' for Inactive)
REMARK    1  A    between atoms: C_9  and  C_10
REMARK    2  A    between atoms: N_12  and  C_13
REMARK    3  A    between atoms: C_17  and  O_18
REMARK    4  A    between atoms: O_18  and  C_19
REMARK                            x       y       z     vdW  Elec       q    Type
REMARK                         _______ _______ _______ _____ _____    ______ ____
ROOT
ATOM      1  C   UNL     1       1.825   7.622  19.822  0.00  0.00    +0.000 C 
ATOM      2  O   UNL     1       2.285   7.874  18.711  0.00  0.00    +0.000 OA
ATOM      3  N   UNL     1       1.840   6.386  20.453  0.00  0.00    +0.000 N 
ATOM      4  H   UNL     1       1.265   6.263  21.275  0.00  0.00    +0.000 HD
ENDROOT
BRANCH   1  13
ATOM      5  O   UNL     1      -0.850  14.186  19.391  0.00  0.00    +0.000 OA
ATOM      6  C   UNL     1      -0.941  13.066  19.892  0.00  0.00    +0.000 C 
ATOM      7  C   UNL     1      -2.274  12.494  20.309  0.00  0.00    +0.000 C 
ATOM      8  C   UNL     1      -2.519  12.544  21.798  0.00  0.00    +0.000 C 
ATOM      9  S   UNL     1      -1.184  11.925  22.864  0.00  0.00    +0.000 S 
ATOM     10  C   UNL     1      -0.398  10.704  21.817  0.00  0.00    +0.000 A 
ATOM     11  C   UNL     1      -0.280   9.421  22.357  0.00  0.00    +0.000 A 
ATOM     12  C   UNL     1       0.468   8.447  21.698  0.00  0.00    +0.000 A 
ATOM     13  C   UNL     1       1.151   8.751  20.513  0.00  0.00    +0.000 A 
ATOM     14  C   UNL     1       1.069  10.040  19.978  0.00  0.00    +0.000 A 
ATOM     15  C   UNL     1       0.260  11.006  20.605  0.00  0.00    +0.000 A 
ATOM     16  N   UNL     1       0.165  12.260  19.974  0.00  0.00    +0.000 N 
ATOM     17  H   UNL     1       0.934  12.585  19.403  0.00  0.00    +0.000 HD
ENDBRANCH   1  13
BRANCH   3  18
ATOM     18  C   UNL     1       2.416   5.209  19.897  0.00  0.00    +0.000 A 
ATOM     19  C   UNL     1       1.643   4.119  19.481  0.00  0.00    +0.000 A 
ATOM     20  C   UNL     1       2.235   2.935  19.044  0.00  0.00    +0.000 A 
ATOM     21  C   UNL     1       3.617   2.835  18.986  0.00  0.00    +0.000 A 
ATOM     22  C   UNL     1       4.411   3.944  19.293  0.00  0.00    +0.000 A 
ATOM     23  C   UNL     1       3.812   5.122  19.771  0.00  0.00    +0.000 A 
BRANCH  22  24
ATOM     24  O   UNL     1       5.790   3.917  19.231  0.00  0.00    +0.000 OA
BRANCH  24  25
ATOM     25  C   UNL     1       6.438   4.995  18.637  0.00  0.00    +0.000 A 
ATOM     26  C   UNL     1       6.078   5.339  17.342  0.00  0.00    +0.000 A 
ATOM     27  N   UNL     1       6.634   6.388  16.681  0.00  0.00    +0.000 NA
ATOM     28  C   UNL     1       7.573   7.073  17.375  0.00  0.00    +0.000 A 
ATOM     29  C   UNL     1       7.947   6.720  18.659  0.00  0.00    +0.000 A 
ATOM     30  N   UNL     1       7.404   5.666  19.310  0.00  0.00    +0.000 NA
ENDBRANCH  24  25
ENDBRANCH  22  24
ENDBRANCH   3  18
TORSDOF 4
ENDMDL
MODEL 9
REMARK VINA RESULT:      -8.4      1.214      1.521
REMARK  Name = 
REMARK  4 active torsions:
REMARK  status: ('A' for Active; 'I' for Inactive)
REMARK    1  A    between atoms: C_9  and  C_10
REMARK    2  A    between atoms: N_12  and  C_13
REMARK    3  A    between atoms: C_17  and  O_18
REMARK    4  A    between atoms: O_18  and  C_19
REMARK                            x       y       z     vdW  Elec       q    Type
REMARK                         _______ _______ _______ _____ _____    ______ ____
ROOT
ATOM      1  C   UNL     1       1.847   8.847  18.475  0.00  0.00    +0.000 C 
ATOM      2  O   UNL     1       2.177   9.400  17.428  0.00  0.00    +0.000 OA
ATOM      3  N   UNL     1       0.973   9.352  19.427  0.00  0.00    +0.000 N 
ATOM      4  H   UNL     1       0.930   8.893  20.327  0.00  0.00    +0.000 HD
ENDROOT
BRANCH   1  13
ATOM      5  O   UNL     1       1.942   2.872  22.313  0.00  0.00    +0.000 OA
ATOM      6  C   UNL     1       2.137   3.398  21.217  0.00  0.00    +0.000 C 
ATOM      7  C   UNL     1       1.958   2.630  19.930  0.00  0.00    +0.000 C 
ATOM      8  C   UNL     1       3.256   2.188  19.299  0.00  0.00    +0.000 C 
ATOM      9  S   UNL     1       4.549   3.453  19.127  0.00  0.00    +0.000 S 
ATOM     10  C   UNL     1       3.591   4.956  18.974  0.00  0.00    +0.000 A 
ATOM     11  C   UNL     1       3.857   5.739  17.846  0.00  0.00    +0.000 A 
ATOM     12  C   UNL     1       3.295   7.008  17.724  0.00  0.00    +0.000 A 
ATOM     13  C   UNL     1       2.495   7.538  18.745  0.00  0.00    +0.000 A 
ATOM     14  C   UNL     1       2.247   6.780  19.893  0.00  0.00    +0.000 A 
ATOM     15  C   UNL     1       2.758   5.472  19.991  0.00  0.00    +0.000 A 
ATOM     16  N   UNL     1       2.410   4.739  21.139  0.00  0.00    +0.000 N 
ATOM     17  H   UNL     1       2.209   5.234  21.999  0.00  0.00    +0.000 HD
ENDBRANCH   1  13
BRANCH   3  18
ATOM     18  C   UNL     1       0.308  10.606  19.319  0.00  0.00    +0.000 A 
ATOM     19  C   UNL     1      -0.753  10.819  18.432  0.00  0.00    +0.000 A 
ATOM     20  C   UNL     1      -1.315  12.083  18.264  0.00  0.00    +0.000 A 
ATOM     21  C   UNL     1      -0.842  13.153  19.008  0.00  0.00    +0.000 A 
ATOM     22  C   UNL     1       0.144  12.948  19.978  0.00  0.00    +0.000 A 
ATOM     23  C   UNL     1       0.735  11.680  20.117  0.00  0.00    +0.000 A 
BRANCH  22  24
ATOM     24  O   UNL     1       0.638  13.965  20.770  0.00  0.00    +0.000 OA
BRANCH  24  25
ATOM     25  C   UNL     1       1.991  14.272  20.669  0.00  0.00    +0.000 A 
ATOM     26  C   UNL     1       2.458  14.770  19.461  0.00  0.00    +0.000 A 
ATOM     27  N   UNL     1       3.756  15.121  19.266  0.00  0.00    +0.000 NA
ATOM     28  C   UNL     1       4.567  14.942  20.335  0.00  0.00    +0.000 A 
ATOM     29  C   UNL     1       4.108  14.426  21.533  0.00  0.00    +0.000 A 
ATOM     30  N   UNL     1       2.819  14.063  21.722  0.00  0.00    +0.000 NA
ENDBRANCH  24  25
ENDBRANCH  22  24
ENDBRANCH   3  18
TORSDOF 4
ENDMDL
