MODEL 1
REMARK VINA RESULT:      -9.6      0.000      0.000
REMARK  Name = 
REMARK  4 active torsions:
REMARK  status: ('A' for Active; 'I' for Inactive)
REMARK    1  A    between atoms: C_4  and  C_5
REMARK    2  A    between atoms: C_7  and  N_8
REMARK    3  A    between atoms: N_8  and  C_9
REMARK    4  A    between atoms: C_9  and  C_10
REMARK                            x       y       z     vdW  Elec       q    Type
REMARK                         _______ _______ _______ _____ _____    ______ ____
ROOT
ATOM      1  C   UNL     1       6.532   4.576  15.769  0.00  0.00    +0.000 A 
ATOM      2  C   UNL     1       5.344   3.917  16.395  0.00  0.00    +0.000 A 
ATOM      3  C   UNL     1       5.180   4.049  17.722  0.00  0.00    +0.000 A 
ATOM      4  N   UNL     1       6.158   4.792  18.425  0.00  0.00    +0.000 N 
ATOM      5  N   UNL     1       6.223   5.088  19.755  0.00  0.00    +0.000 NA
ATOM      6  C   UNL     1       7.364   5.780  19.827  0.00  0.00    +0.000 A 
ATOM      7  N   UNL     1       8.029   5.958  18.655  0.00  0.00    +0.000 NA
ATOM      8  C   UNL     1       7.270   5.347  17.772  0.00  0.00    +0.000 A 
ATOM      9  N   UNL     1       7.451   5.226  16.425  0.00  0.00    +0.000 NA
ENDROOT
BRANCH   1  13
ATOM     10  C   UNL     1       6.815   4.113  11.514  0.00  0.00    +0.000 A 
ATOM     11  C   UNL     1       7.683   4.985  12.166  0.00  0.00    +0.000 A 
ATOM     12  C   UNL     1       7.605   5.143  13.551  0.00  0.00    +0.000 A 
ATOM     13  C   UNL     1       6.642   4.437  14.288  0.00  0.00    +0.000 A 
ATOM     14  C   UNL     1       5.776   3.559  13.626  0.00  0.00    +0.000 A 
ATOM     15  C   UNL     1       5.864   3.399  12.242  0.00  0.00    +0.000 A 
ENDBRANCH   1  13
BRANCH   3  16
ATOM     16  N   UNL     1       4.124   3.482  18.432  0.00  0.00    +0.000 N 
ATOM     17  H   UNL     1       4.419   2.929  19.241  0.00  0.00    +0.000 HD
BRANCH  16  18
ATOM     18  C   UNL     1       2.707   3.795  18.329  0.00  0.00    +0.000 C 
BRANCH  18  19
ATOM     19  C   UNL     1       2.366   5.149  18.890  0.00  0.00    +0.000 A 
ATOM     20  C   UNL     1       2.598   6.327  18.191  0.00  0.00    +0.000 A 
ATOM     21  C   UNL     1       2.295   7.554  18.780  0.00  0.00    +0.000 A 
ATOM     22  C   UNL     1       1.777   7.619  20.074  0.00  0.00    +0.000 A 
ATOM     23  N   UNL     1       1.489   8.841  20.651  0.00  0.00    +0.000 N 
ATOM     24  C   UNL     1       1.541   9.000  22.101  0.00  0.00    +0.000 C 
ATOM     25  C   UNL     1       0.166   9.345  22.667  0.00  0.00    +0.000 C 
ATOM     26  C   UNL     1      -0.474  10.515  21.922  0.00  0.00    +0.000 C 
ATOM     27  C   UNL     1      -0.510  10.243  20.422  0.00  0.00    +0.000 C 
ATOM     28  C   UNL     1       0.881   9.921  19.879  0.00  0.00    +0.000 C 
ATOM     29  N   UNL     1       1.591   6.482  20.778  0.00  0.00    +0.000 NA
ATOM     30  C   UNL     1       1.877   5.294  20.183  0.00  0.00    +0.000 A 
ENDBRANCH  18  19
ENDBRANCH  16  18
ENDBRANCH   3  16
TORSDOF 4
ENDMDL
MODEL 2
REMARK VINA RESULT:      -8.9      4.928      7.740
REMARK  Name = 
REMARK  4 active torsions:
REMARK  status: ('A' for Active; 'I' for Inactive)
REMARK    1  A    between atoms: C_4  and  C_5
REMARK    2  A    between atoms: C_7  and  N_8
REMARK    3  A    between atoms: N_8  and  C_9
REMARK    4  A    between atoms: C_9  and  C_10
REMARK                            x       y       z     vdW  Elec       q    Type
REMARK                         _______ _______ _______ _____ _____    ______ ____
ROOT
ATOM      1  C   UNL     1       4.291   4.923  17.667  0.00  0.00    +0.000 A 
ATOM      2  C   UNL     1       5.043   6.188  17.927  0.00  0.00    +0.000 A 
ATOM      3  C   UNL     1       6.053   6.500  17.098  0.00  0.00    +0.000 A 
ATOM      4  N   UNL     1       6.333   5.593  16.049  0.00  0.00    +0.000 N 
ATOM      5  N   UNL     1       7.280   5.674  15.069  0.00  0.00    +0.000 NA
ATOM      6  C   UNL     1       7.082   4.534  14.401  0.00  0.00    +0.000 A 
ATOM      7  N   UNL     1       6.085   3.735  14.864  0.00  0.00    +0.000 NA
ATOM      8  C   UNL     1       5.606   4.402  15.893  0.00  0.00    +0.000 A 
ATOM      9  N   UNL     1       4.576   4.071  16.724  0.00  0.00    +0.000 NA
ENDROOT
BRANCH   1  13
ATOM     10  C   UNL     1       1.054   4.152  20.374  0.00  0.00    +0.000 A 
ATOM     11  C   UNL     1       1.067   3.528  19.128  0.00  0.00    +0.000 A 
ATOM     12  C   UNL     1       2.116   3.767  18.239  0.00  0.00    +0.000 A 
ATOM     13  C   UNL     1       3.151   4.647  18.589  0.00  0.00    +0.000 A 
ATOM     14  C   UNL     1       3.133   5.266  19.844  0.00  0.00    +0.000 A 
ATOM     15  C   UNL     1       2.085   5.019  20.733  0.00  0.00    +0.000 A 
ENDBRANCH   1  13
BRANCH   3  16
ATOM     16  N   UNL     1       6.839   7.642  17.229  0.00  0.00    +0.000 N 
ATOM     17  H   UNL     1       6.347   8.511  17.007  0.00  0.00    +0.000 HD
BRANCH  16  18
ATOM     18  C   UNL     1       8.134   7.766  17.881  0.00  0.00    +0.000 C 
BRANCH  18  19
ATOM     19  C   UNL     1       8.473   9.188  18.238  0.00  0.00    +0.000 A 
ATOM     20  C   UNL     1       9.201   9.519  19.374  0.00  0.00    +0.000 A 
ATOM     21  C   UNL     1       9.452  10.858  19.672  0.00  0.00    +0.000 A 
ATOM     22  C   UNL     1       8.966  11.877  18.853  0.00  0.00    +0.000 A 
ATOM     23  N   UNL     1       9.212  13.201  19.163  0.00  0.00    +0.000 N 
ATOM     24  C   UNL     1       8.279  14.241  18.742  0.00  0.00    +0.000 C 
ATOM     25  C   UNL     1       8.939  15.211  17.765  0.00  0.00    +0.000 C 
ATOM     26  C   UNL     1      10.271  15.732  18.300  0.00  0.00    +0.000 C 
ATOM     27  C   UNL     1      11.186  14.574  18.683  0.00  0.00    +0.000 C 
ATOM     28  C   UNL     1      10.509  13.632  19.677  0.00  0.00    +0.000 C 
ATOM     29  N   UNL     1       8.218  11.568  17.771  0.00  0.00    +0.000 NA
ATOM     30  C   UNL     1       7.996  10.257  17.488  0.00  0.00    +0.000 A 
ENDBRANCH  18  19
ENDBRANCH  16  18
ENDBRANCH   3  16
TORSDOF 4
ENDMDL
MODEL 3
REMARK VINA RESULT:      -8.8      4.859      7.560
REMARK  Name = 
REMARK  4 active torsions:
REMARK  status: ('A' for Active; 'I' for Inactive)
REMARK    1  A    between atoms: C_4  and  C_5
REMARK    2  A    between atoms: C_7  and  N_8
REMARK    3  A    between atoms: N_8  and  C_9
REMARK    4  A    between atoms: C_9  and  C_10
REMARK                            x       y       z     vdW  Elec       q    Type
REMARK                         _______ _______ _______ _____ _____    ______ ____
ROOT
ATOM      1  C   UNL     1       4.411   4.998  17.719  0.00  0.00    +0.000 A 
ATOM      2  C   UNL     1       5.229   6.226  17.964  0.00  0.00    +0.000 A 
ATOM      3  C   UNL     1       6.224   6.498  17.104  0.00  0.00    +0.000 A 
ATOM      4  N   UNL     1       6.428   5.588  16.040  0.00  0.00    +0.000 N 
ATOM      5  N   UNL     1       7.347   5.634  15.032  0.00  0.00    +0.000 NA
ATOM      6  C   UNL     1       7.075   4.509  14.362  0.00  0.00    +0.000 A 
ATOM      7  N   UNL     1       6.058   3.753  14.852  0.00  0.00    +0.000 NA
ATOM      8  C   UNL     1       5.644   4.432  15.900  0.00  0.00    +0.000 A 
ATOM      9  N   UNL     1       4.627   4.142  16.762  0.00  0.00    +0.000 NA
ENDROOT
BRANCH   1  13
ATOM     10  C   UNL     1       1.211   4.387  20.511  0.00  0.00    +0.000 A 
ATOM     11  C   UNL     1       1.575   3.353  19.651  0.00  0.00    +0.000 A 
ATOM     12  C   UNL     1       2.617   3.537  18.740  0.00  0.00    +0.000 A 
ATOM     13  C   UNL     1       3.290   4.766  18.676  0.00  0.00    +0.000 A 
ATOM     14  C   UNL     1       2.921   5.799  19.546  0.00  0.00    +0.000 A 
ATOM     15  C   UNL     1       1.884   5.608  20.460  0.00  0.00    +0.000 A 
ENDBRANCH   1  13
BRANCH   3  16
ATOM     16  N   UNL     1       7.066   7.602  17.218  0.00  0.00    +0.000 N 
ATOM     17  H   UNL     1       6.759   8.414  16.676  0.00  0.00    +0.000 HD
BRANCH  16  18
ATOM     18  C   UNL     1       8.129   7.820  18.187  0.00  0.00    +0.000 C 
BRANCH  18  19
ATOM     19  C   UNL     1       8.450   9.277  18.382  0.00  0.00    +0.000 A 
ATOM     20  C   UNL     1       8.082  10.252  17.464  0.00  0.00    +0.000 A 
ATOM     21  C   UNL     1       8.442  11.582  17.682  0.00  0.00    +0.000 A 
ATOM     22  C   UNL     1       9.186  11.948  18.803  0.00  0.00    +0.000 A 
ATOM     23  N   UNL     1       9.546  13.267  19.005  0.00  0.00    +0.000 N 
ATOM     24  C   UNL     1      10.755  13.594  19.752  0.00  0.00    +0.000 C 
ATOM     25  C   UNL     1      10.423  14.357  21.032  0.00  0.00    +0.000 C 
ATOM     26  C   UNL     1       9.505  15.546  20.758  0.00  0.00    +0.000 C 
ATOM     27  C   UNL     1       8.258  15.100  20.002  0.00  0.00    +0.000 C 
ATOM     28  C   UNL     1       8.620  14.358  18.716  0.00  0.00    +0.000 C 
ATOM     29  N   UNL     1       9.589  11.001  19.678  0.00  0.00    +0.000 NA
ATOM     30  C   UNL     1       9.216   9.712  19.458  0.00  0.00    +0.000 A 
ENDBRANCH  18  19
ENDBRANCH  16  18
ENDBRANCH   3  16
TORSDOF 4
ENDMDL
MODEL 4
REMARK VINA RESULT:      -8.8      0.947      1.471
REMARK  Name = 
REMARK  4 active torsions:
REMARK  status: ('A' for Active; 'I' for Inactive)
REMARK    1  A    between atoms: C_4  and  C_5
REMARK    2  A    between atoms: C_7  and  N_8
REMARK    3  A    between atoms: N_8  and  C_9
REMARK    4  A    between atoms: C_9  and  C_10
REMARK                            x       y       z     vdW  Elec       q    Type
REMARK                         _______ _______ _______ _____ _____    ______ ____
ROOT
ATOM      1  C   UNL     1       6.426   4.477  15.770  0.00  0.00    +0.000 A 
ATOM      2  C   UNL     1       5.078   4.163  16.336  0.00  0.00    +0.000 A 
ATOM      3  C   UNL     1       4.896   4.334  17.656  0.00  0.00    +0.000 A 
ATOM      4  N   UNL     1       6.005   4.784  18.409  0.00  0.00    +0.000 N 
ATOM      5  N   UNL     1       6.089   5.051  19.745  0.00  0.00    +0.000 NA
ATOM      6  C   UNL     1       7.370   5.409  19.874  0.00  0.00    +0.000 A 
ATOM      7  N   UNL     1       8.110   5.401  18.735  0.00  0.00    +0.000 NA
ATOM      8  C   UNL     1       7.254   5.018  17.812  0.00  0.00    +0.000 A 
ATOM      9  N   UNL     1       7.456   4.854  16.472  0.00  0.00    +0.000 NA
ENDROOT
BRANCH   1  13
ATOM     10  C   UNL     1       6.851   4.073  11.520  0.00  0.00    +0.000 A 
ATOM     11  C   UNL     1       5.845   3.368  12.177  0.00  0.00    +0.000 A 
ATOM     12  C   UNL     1       5.693   3.492  13.559  0.00  0.00    +0.000 A 
ATOM     13  C   UNL     1       6.561   4.315  14.293  0.00  0.00    +0.000 A 
ATOM     14  C   UNL     1       7.566   5.024  13.625  0.00  0.00    +0.000 A 
ATOM     15  C   UNL     1       7.709   4.902  12.243  0.00  0.00    +0.000 A 
ENDBRANCH   1  13
BRANCH   3  16
ATOM     16  N   UNL     1       3.696   4.073  18.313  0.00  0.00    +0.000 N 
ATOM     17  H   UNL     1       3.179   3.277  17.931  0.00  0.00    +0.000 HD
BRANCH  16  18
ATOM     18  C   UNL     1       3.244   4.598  19.592  0.00  0.00    +0.000 C 
BRANCH  18  19
ATOM     19  C   UNL     1       2.638   5.970  19.478  0.00  0.00    +0.000 A 
ATOM     20  C   UNL     1       2.761   6.747  18.333  0.00  0.00    +0.000 A 
ATOM     21  C   UNL     1       2.208   8.028  18.300  0.00  0.00    +0.000 A 
ATOM     22  C   UNL     1       1.547   8.551  19.411  0.00  0.00    +0.000 A 
ATOM     23  N   UNL     1       1.012   9.824  19.372  0.00  0.00    +0.000 N 
ATOM     24  C   UNL     1       0.878  10.604  20.597  0.00  0.00    +0.000 C 
ATOM     25  C   UNL     1      -0.588  10.897  20.908  0.00  0.00    +0.000 C 
ATOM     26  C   UNL     1      -1.315  11.483  19.699  0.00  0.00    +0.000 C 
ATOM     27  C   UNL     1      -1.143  10.584  18.480  0.00  0.00    +0.000 C 
ATOM     28  C   UNL     1       0.333  10.325  18.180  0.00  0.00    +0.000 C 
ATOM     29  N   UNL     1       1.462   7.821  20.545  0.00  0.00    +0.000 NA
ATOM     30  C   UNL     1       1.993   6.570  20.554  0.00  0.00    +0.000 A 
ENDBRANCH  18  19
ENDBRANCH  16  18
ENDBRANCH   3  16
TORSDOF 4
ENDMDL
MODEL 5
REMARK VINA RESULT:      -8.8      1.303      1.828
REMARK  Name = 
REMARK  4 active torsions:
REMARK  status: ('A' for Active; 'I' for Inactive)
REMARK    1  A    between atoms: C_4  and  C_5
REMARK    2  A    between atoms: C_7  and  N_8
REMARK    3  A    between atoms: N_8  and  C_9
REMARK    4  A    between atoms: C_9  and  C_10
REMARK                            x       y       z     vdW  Elec       q    Type
REMARK                         _______ _______ _______ _____ _____    ______ ____
ROOT
ATOM      1  C   UNL     1       6.412   4.757  15.635  0.00  0.00    +0.000 A 
ATOM      2  C   UNL     1       5.001   5.004  16.064  0.00  0.00    +0.000 A 
ATOM      3  C   UNL     1       4.778   5.274  17.361  0.00  0.00    +0.000 A 
ATOM      4  N   UNL     1       5.899   5.288  18.222  0.00  0.00    +0.000 N 
ATOM      5  N   UNL     1       5.955   5.545  19.561  0.00  0.00    +0.000 NA
ATOM      6  C   UNL     1       7.257   5.387  19.817  0.00  0.00    +0.000 A 
ATOM      7  N   UNL     1       8.040   5.059  18.756  0.00  0.00    +0.000 NA
ATOM      8  C   UNL     1       7.191   5.005  17.751  0.00  0.00    +0.000 A 
ATOM      9  N   UNL     1       7.437   4.732  16.437  0.00  0.00    +0.000 NA
ENDROOT
BRANCH   1  13
ATOM     10  C   UNL     1       6.951   3.975  11.451  0.00  0.00    +0.000 A 
ATOM     11  C   UNL     1       7.748   4.931  12.076  0.00  0.00    +0.000 A 
ATOM     12  C   UNL     1       7.586   5.193  13.438  0.00  0.00    +0.000 A 
ATOM     13  C   UNL     1       6.610   4.508  14.177  0.00  0.00    +0.000 A 
ATOM     14  C   UNL     1       5.816   3.545  13.543  0.00  0.00    +0.000 A 
ATOM     15  C   UNL     1       5.987   3.281  12.183  0.00  0.00    +0.000 A 
ENDBRANCH   1  13
BRANCH   3  16
ATOM     16  N   UNL     1       3.514   5.515  17.895  0.00  0.00    +0.000 N 
ATOM     17  H   UNL     1       2.748   5.124  17.341  0.00  0.00    +0.000 HD
BRANCH  16  18
ATOM     18  C   UNL     1       3.184   5.996  19.228  0.00  0.00    +0.000 C 
BRANCH  18  19
ATOM     19  C   UNL     1       2.390   7.273  19.207  0.00  0.00    +0.000 A 
ATOM     20  C   UNL     1       2.231   8.035  18.057  0.00  0.00    +0.000 A 
ATOM     21  C   UNL     1       1.514   9.231  18.109  0.00  0.00    +0.000 A 
ATOM     22  C   UNL     1       0.966   9.685  19.309  0.00  0.00    +0.000 A 
ATOM     23  N   UNL     1       0.266  10.876  19.352  0.00  0.00    +0.000 N 
ATOM     24  C   UNL     1       0.219  11.658  20.583  0.00  0.00    +0.000 C 
ATOM     25  C   UNL     1      -1.208  11.761  21.116  0.00  0.00    +0.000 C 
ATOM     26  C   UNL     1      -2.183  12.220  20.034  0.00  0.00    +0.000 C 
ATOM     27  C   UNL     1      -2.081  11.326  18.803  0.00  0.00    +0.000 C 
ATOM     28  C   UNL     1      -0.647  11.258  18.279  0.00  0.00    +0.000 C 
ATOM     29  N   UNL     1       1.154   8.975  20.442  0.00  0.00    +0.000 NA
ATOM     30  C   UNL     1       1.842   7.805  20.370  0.00  0.00    +0.000 A 
ENDBRANCH  18  19
ENDBRANCH  16  18
ENDBRANCH   3  16
TORSDOF 4
ENDMDL
MODEL 6
REMARK VINA RESULT:      -8.7      3.134      9.367
REMARK  Name = 
REMARK  4 active torsions:
REMARK  status: ('A' for Active; 'I' for Inactive)
REMARK    1  A    between atoms: C_4  and  C_5
REMARK    2  A    between atoms: C_7  and  N_8
REMARK    3  A    between atoms: N_8  and  C_9
REMARK    4  A    between atoms: C_9  and  C_10
REMARK                            x       y       z     vdW  Elec       q    Type
REMARK                         _______ _______ _______ _____ _____    ______ ____
ROOT
ATOM      1  C   UNL     1      -1.961  11.125  19.065  0.00  0.00    +0.000 A 
ATOM      2  C   UNL     1      -0.790  10.252  19.383  0.00  0.00    +0.000 A 
ATOM      3  C   UNL     1      -0.204  10.402  20.582  0.00  0.00    +0.000 A 
ATOM      4  N   UNL     1      -0.735  11.389  21.445  0.00  0.00    +0.000 N 
ATOM      5  N   UNL     1      -0.344  11.733  22.706  0.00  0.00    +0.000 NA
ATOM      6  C   UNL     1      -1.187  12.729  22.994  0.00  0.00    +0.000 A 
ATOM      7  N   UNL     1      -2.089  13.046  22.028  0.00  0.00    +0.000 NA
ATOM      8  C   UNL     1      -1.813  12.200  21.057  0.00  0.00    +0.000 A 
ATOM      9  N   UNL     1      -2.424  12.060  19.845  0.00  0.00    +0.000 NA
ENDROOT
BRANCH   1  13
ATOM     10  C   UNL     1      -3.875  10.460  15.283  0.00  0.00    +0.000 A 
ATOM     11  C   UNL     1      -2.657   9.840  15.552  0.00  0.00    +0.000 A 
ATOM     12  C   UNL     1      -2.025  10.044  16.780  0.00  0.00    +0.000 A 
ATOM     13  C   UNL     1      -2.605  10.886  17.740  0.00  0.00    +0.000 A 
ATOM     14  C   UNL     1      -3.831  11.502  17.465  0.00  0.00    +0.000 A 
ATOM     15  C   UNL     1      -4.463  11.289  16.239  0.00  0.00    +0.000 A 
ENDBRANCH   1  13
BRANCH   3  16
ATOM     16  N   UNL     1       0.898   9.660  21.004  0.00  0.00    +0.000 N 
ATOM     17  H   UNL     1       1.614  10.216  21.480  0.00  0.00    +0.000 HD
BRANCH  16  18
ATOM     18  C   UNL     1       1.022   8.213  21.091  0.00  0.00    +0.000 C 
BRANCH  18  19
ATOM     19  C   UNL     1       1.889   7.636  20.005  0.00  0.00    +0.000 A 
ATOM     20  C   UNL     1       2.168   8.321  18.829  0.00  0.00    +0.000 A 
ATOM     21  C   UNL     1       2.948   7.718  17.843  0.00  0.00    +0.000 A 
ATOM     22  C   UNL     1       3.442   6.424  18.013  0.00  0.00    +0.000 A 
ATOM     23  N   UNL     1       4.207   5.832  17.025  0.00  0.00    +0.000 N 
ATOM     24  C   UNL     1       4.219   4.381  16.875  0.00  0.00    +0.000 C 
ATOM     25  C   UNL     1       5.612   3.812  17.136  0.00  0.00    +0.000 C 
ATOM     26  C   UNL     1       6.681   4.543  16.326  0.00  0.00    +0.000 C 
ATOM     27  C   UNL     1       6.607   6.046  16.572  0.00  0.00    +0.000 C 
ATOM     28  C   UNL     1       5.209   6.592  16.284  0.00  0.00    +0.000 C 
ATOM     29  N   UNL     1       3.139   5.733  19.133  0.00  0.00    +0.000 NA
ATOM     30  C   UNL     1       2.390   6.342  20.090  0.00  0.00    +0.000 A 
ENDBRANCH  18  19
ENDBRANCH  16  18
ENDBRANCH   3  16
TORSDOF 4
ENDMDL
MODEL 7
REMARK VINA RESULT:      -8.5      1.583      2.341
REMARK  Name = 
REMARK  4 active torsions:
REMARK  status: ('A' for Active; 'I' for Inactive)
REMARK    1  A    between atoms: C_4  and  C_5
REMARK    2  A    between atoms: C_7  and  N_8
REMARK    3  A    between atoms: N_8  and  C_9
REMARK    4  A    between atoms: C_9  and  C_10
REMARK                            x       y       z     vdW  Elec       q    Type
REMARK                         _______ _______ _______ _____ _____    ______ ____
ROOT
ATOM      1  C   UNL     1       6.412   4.850  15.444  0.00  0.00    +0.000 A 
ATOM      2  C   UNL     1       5.304   5.786  15.808  0.00  0.00    +0.000 A 
ATOM      3  C   UNL     1       5.266   6.254  17.066  0.00  0.00    +0.000 A 
ATOM      4  N   UNL     1       6.273   5.809  17.954  0.00  0.00    +0.000 N 
ATOM      5  N   UNL     1       6.474   6.135  19.264  0.00  0.00    +0.000 NA
ATOM      6  C   UNL     1       7.544   5.395  19.570  0.00  0.00    +0.000 A 
ATOM      7  N   UNL     1       8.049   4.630  18.567  0.00  0.00    +0.000 NA
ATOM      8  C   UNL     1       7.259   4.895  17.548  0.00  0.00    +0.000 A 
ATOM      9  N   UNL     1       7.315   4.412  16.273  0.00  0.00    +0.000 NA
ENDROOT
BRANCH   1  13
ATOM     10  C   UNL     1       6.521   3.603  11.341  0.00  0.00    +0.000 A 
ATOM     11  C   UNL     1       5.492   3.154  12.164  0.00  0.00    +0.000 A 
ATOM     12  C   UNL     1       5.441   3.555  13.501  0.00  0.00    +0.000 A 
ATOM     13  C   UNL     1       6.435   4.397  14.022  0.00  0.00    +0.000 A 
ATOM     14  C   UNL     1       7.464   4.848  13.187  0.00  0.00    +0.000 A 
ATOM     15  C   UNL     1       7.505   4.450  11.850  0.00  0.00    +0.000 A 
ENDBRANCH   1  13
BRANCH   3  16
ATOM     16  N   UNL     1       4.287   7.125  17.540  0.00  0.00    +0.000 N 
ATOM     17  H   UNL     1       4.406   8.091  17.227  0.00  0.00    +0.000 HD
BRANCH  16  18
ATOM     18  C   UNL     1       3.019   6.788  18.170  0.00  0.00    +0.000 C 
BRANCH  18  19
ATOM     19  C   UNL     1       2.238   8.001  18.593  0.00  0.00    +0.000 A 
ATOM     20  C   UNL     1       2.043   9.093  17.757  0.00  0.00    +0.000 A 
ATOM     21  C   UNL     1       1.341  10.206  18.220  0.00  0.00    +0.000 A 
ATOM     22  C   UNL     1       0.844  10.248  19.523  0.00  0.00    +0.000 A 
ATOM     23  N   UNL     1       0.158  11.359  19.974  0.00  0.00    +0.000 N 
ATOM     24  C   UNL     1       0.165  11.702  21.392  0.00  0.00    +0.000 C 
ATOM     25  C   UNL     1      -1.240  11.624  21.986  0.00  0.00    +0.000 C 
ATOM     26  C   UNL     1      -2.251  12.405  21.148  0.00  0.00    +0.000 C 
ATOM     27  C   UNL     1      -2.204  11.956  19.692  0.00  0.00    +0.000 C 
ATOM     28  C   UNL     1      -0.792  12.064  19.118  0.00  0.00    +0.000 C 
ATOM     29  N   UNL     1       1.067   9.211  20.358  0.00  0.00    +0.000 NA
ATOM     30  C   UNL     1       1.740   8.128  19.885  0.00  0.00    +0.000 A 
ENDBRANCH  18  19
ENDBRANCH  16  18
ENDBRANCH   3  16
TORSDOF 4
ENDMDL
MODEL 8
REMARK VINA RESULT:      -8.5      1.707      2.586
REMARK  Name = 
REMARK  4 active torsions:
REMARK  status: ('A' for Active; 'I' for Inactive)
REMARK    1  A    between atoms: C_4  and  C_5
REMARK    2  A    between atoms: C_7  and  N_8
REMARK    3  A    between atoms: N_8  and  C_9
REMARK    4  A    between atoms: C_9  and  C_10
REMARK                            x       y       z     vdW  Elec       q    Type
REMARK                         _______ _______ _______ _____ _____    ______ ____
ROOT
ATOM      1  C   UNL     1       6.506   4.901  15.439  0.00  0.00    +0.000 A 
ATOM      2  C   UNL     1       5.351   5.775  15.811  0.00  0.00    +0.000 A 
ATOM      3  C   UNL     1       5.270   6.201  17.082  0.00  0.00    +0.000 A 
ATOM      4  N   UNL     1       6.281   5.773  17.974  0.00  0.00    +0.000 N 
ATOM      5  N   UNL     1       6.444   6.067  19.297  0.00  0.00    +0.000 NA
ATOM      6  C   UNL     1       7.540   5.365  19.601  0.00  0.00    +0.000 A 
ATOM      7  N   UNL     1       8.096   4.655  18.585  0.00  0.00    +0.000 NA
ATOM      8  C   UNL     1       7.313   4.916  17.560  0.00  0.00    +0.000 A 
ATOM      9  N   UNL     1       7.413   4.477  16.272  0.00  0.00    +0.000 NA
ENDROOT
BRANCH   1  13
ATOM     10  C   UNL     1       6.664   3.670  11.333  0.00  0.00    +0.000 A 
ATOM     11  C   UNL     1       7.594   4.593  11.806  0.00  0.00    +0.000 A 
ATOM     12  C   UNL     1       7.557   4.999  13.142  0.00  0.00    +0.000 A 
ATOM     13  C   UNL     1       6.574   4.494  14.006  0.00  0.00    +0.000 A 
ATOM     14  C   UNL     1       5.646   3.563  13.523  0.00  0.00    +0.000 A 
ATOM     15  C   UNL     1       5.692   3.154  12.190  0.00  0.00    +0.000 A 
ENDBRANCH   1  13
BRANCH   3  16
ATOM     16  N   UNL     1       4.245   7.012  17.564  0.00  0.00    +0.000 N 
ATOM     17  H   UNL     1       4.237   7.952  17.160  0.00  0.00    +0.000 HD
BRANCH  16  18
ATOM     18  C   UNL     1       3.074   6.614  18.330  0.00  0.00    +0.000 C 
BRANCH  18  19
ATOM     19  C   UNL     1       2.247   7.786  18.782  0.00  0.00    +0.000 A 
ATOM     20  C   UNL     1       1.780   7.913  20.084  0.00  0.00    +0.000 A 
ATOM     21  C   UNL     1       0.986   9.005  20.434  0.00  0.00    +0.000 A 
ATOM     22  C   UNL     1       0.635   9.967  19.487  0.00  0.00    +0.000 A 
ATOM     23  N   UNL     1      -0.161  11.040  19.842  0.00  0.00    +0.000 N 
ATOM     24  C   UNL     1      -1.015  11.683  18.849  0.00  0.00    +0.000 C 
ATOM     25  C   UNL     1      -0.599  13.134  18.621  0.00  0.00    +0.000 C 
ATOM     26  C   UNL     1      -0.469  13.898  19.937  0.00  0.00    +0.000 C 
ATOM     27  C   UNL     1       0.464  13.165  20.895  0.00  0.00    +0.000 C 
ATOM     28  C   UNL     1       0.013  11.723  21.121  0.00  0.00    +0.000 C 
ATOM     29  N   UNL     1       1.046   9.830  18.208  0.00  0.00    +0.000 NA
ATOM     30  C   UNL     1       1.832   8.768  17.888  0.00  0.00    +0.000 A 
ENDBRANCH  18  19
ENDBRANCH  16  18
ENDBRANCH   3  16
TORSDOF 4
ENDMDL
MODEL 9
REMARK VINA RESULT:      -8.4      1.105      1.481
REMARK  Name = 
REMARK  4 active torsions:
REMARK  status: ('A' for Active; 'I' for Inactive)
REMARK    1  A    between atoms: C_4  and  C_5
REMARK    2  A    between atoms: C_7  and  N_8
REMARK    3  A    between atoms: N_8  and  C_9
REMARK    4  A    between atoms: C_9  and  C_10
REMARK                            x       y       z     vdW  Elec       q    Type
REMARK                         _______ _______ _______ _____ _____    ______ ____
ROOT
ATOM      1  C   UNL     1       5.953   4.297  14.739  0.00  0.00    +0.000 A 
ATOM      2  C   UNL     1       5.176   3.679  15.858  0.00  0.00    +0.000 A 
ATOM      3  C   UNL     1       5.300   4.220  17.081  0.00  0.00    +0.000 A 
ATOM      4  N   UNL     1       6.171   5.327  17.215  0.00  0.00    +0.000 N 
ATOM      5  N   UNL     1       6.464   6.063  18.326  0.00  0.00    +0.000 NA
ATOM      6  C   UNL     1       7.353   6.939  17.848  0.00  0.00    +0.000 A 
ATOM      7  N   UNL     1       7.647   6.831  16.526  0.00  0.00    +0.000 NA
ATOM      8  C   UNL     1       6.900   5.825  16.124  0.00  0.00    +0.000 A 
ATOM      9  N   UNL     1       6.785   5.291  14.874  0.00  0.00    +0.000 NA
ENDROOT
BRANCH   1  13
ATOM     10  C   UNL     1       5.427   2.549  10.857  0.00  0.00    +0.000 A 
ATOM     11  C   UNL     1       4.341   3.150  11.489  0.00  0.00    +0.000 A 
ATOM     12  C   UNL     1       4.499   3.727  12.751  0.00  0.00    +0.000 A 
ATOM     13  C   UNL     1       5.745   3.688  13.394  0.00  0.00    +0.000 A 
ATOM     14  C   UNL     1       6.833   3.085  12.750  0.00  0.00    +0.000 A 
ATOM     15  C   UNL     1       6.672   2.517  11.485  0.00  0.00    +0.000 A 
ENDBRANCH   1  13
BRANCH   3  16
ATOM     16  N   UNL     1       4.640   3.741  18.210  0.00  0.00    +0.000 N 
ATOM     17  H   UNL     1       5.262   3.529  18.995  0.00  0.00    +0.000 HD
BRANCH  16  18
ATOM     18  C   UNL     1       3.212   3.766  18.490  0.00  0.00    +0.000 C 
BRANCH  18  19
ATOM     19  C   UNL     1       2.739   5.104  18.988  0.00  0.00    +0.000 A 
ATOM     20  C   UNL     1       2.934   6.278  18.272  0.00  0.00    +0.000 A 
ATOM     21  C   UNL     1       2.505   7.495  18.804  0.00  0.00    +0.000 A 
ATOM     22  C   UNL     1       1.896   7.553  20.058  0.00  0.00    +0.000 A 
ATOM     23  N   UNL     1       1.484   8.764  20.579  0.00  0.00    +0.000 N 
ATOM     24  C   UNL     1       1.425   8.962  22.024  0.00  0.00    +0.000 C 
ATOM     25  C   UNL     1      -0.006   9.219  22.488  0.00  0.00    +0.000 C 
ATOM     26  C   UNL     1      -0.675  10.321  21.669  0.00  0.00    +0.000 C 
ATOM     27  C   UNL     1      -0.590  10.011  20.178  0.00  0.00    +0.000 C 
ATOM     28  C   UNL     1       0.855   9.778  19.738  0.00  0.00    +0.000 C 
ATOM     29  N   UNL     1       1.743   6.423  20.781  0.00  0.00    +0.000 NA
ATOM     30  C   UNL     1       2.154   5.245  20.241  0.00  0.00    +0.000 A 
ENDBRANCH  18  19
ENDBRANCH  16  18
ENDBRANCH   3  16
TORSDOF 4
ENDMDL
