MODEL 1
REMARK VINA RESULT:      -8.9      0.000      0.000
REMARK  Name = 
REMARK  6 active torsions:
REMARK  status: ('A' for Active; 'I' for Inactive)
REMARK    1  A    between atoms: C_1  and  O_2
REMARK    2  A    between atoms: O_2  and  C_3
REMARK    3  A    between atoms: C_7  and  C_8
REMARK    4  A    between atoms: C_12  and  C_14
REMARK    5  A    between atoms: C_18  and  O_19
REMARK    6  A    between atoms: C_24  and  O_25
REMARK                            x       y       z     vdW  Elec       q    Type
REMARK                         _______ _______ _______ _____ _____    ______ ____
ROOT
ATOM      1  C   UNL     1       0.419   9.266  19.036  0.00  0.00    +0.000 C 
ATOM      2  C   UNL     1       0.580   9.032  20.352  0.00  0.00    +0.000 C 
ATOM      3  C   UNL     1       1.588   8.059  20.911  0.00  0.00    +0.000 C 
ATOM      4  N   UNL     1       2.216   7.285  19.836  0.00  0.00    +0.000 N 
ATOM      5  C   UNL     1       2.290   5.893  19.979  0.00  0.00    +0.000 C 
ATOM      6  O   UNL     1       1.844   5.322  20.987  0.00  0.00    +0.000 OA
ATOM      7  C   UNL     1       2.587   8.106  18.681  0.00  0.00    +0.000 C 
ATOM      8  C   UNL     1       1.304   8.603  18.007  0.00  0.00    +0.000 C 
ENDROOT
BRANCH   5   9
ATOM      9  C   UNL     1       3.077   5.021  19.030  0.00  0.00    +0.000 A 
ATOM     10  C   UNL     1       4.418   5.373  18.902  0.00  0.00    +0.000 A 
ATOM     11  C   UNL     1       5.154   4.927  17.812  0.00  0.00    +0.000 A 
ATOM     12  C   UNL     1       6.458   5.359  17.653  0.00  0.00    +0.000 A 
ATOM     13  C   UNL     1       6.920   5.634  16.400  0.00  0.00    +0.000 A 
ATOM     14  C   UNL     1       6.333   5.005  15.314  0.00  0.00    +0.000 A 
ATOM     15  C   UNL     1       5.215   4.175  15.529  0.00  0.00    +0.000 A 
ATOM     16  C   UNL     1       4.540   4.249  16.775  0.00  0.00    +0.000 A 
ATOM     17  C   UNL     1       3.312   3.616  17.070  0.00  0.00    +0.000 A 
ATOM     18  C   UNL     1       2.601   3.994  18.209  0.00  0.00    +0.000 A 
BRANCH  13  19
ATOM     19  O   UNL     1       7.843   6.620  16.237  0.00  0.00    +0.000 OA
ATOM     20  H   UNL     1       8.698   6.234  16.515  0.00  0.00    +0.000 HD
ENDBRANCH  13  19
BRANCH  18  21
ATOM     21  O   UNL     1       1.421   3.372  18.489  0.00  0.00    +0.000 OA
ATOM     22  H   UNL     1       0.999   3.797  19.252  0.00  0.00    +0.000 HD
ENDBRANCH  18  21
ENDBRANCH   5   9
BRANCH   1  27
ATOM     23  C   UNL     1      -2.533  10.594  17.112  0.00  0.00    +0.000 A 
ATOM     24  C   UNL     1      -2.654  11.870  17.666  0.00  0.00    +0.000 A 
ATOM     25  C   UNL     1      -1.750  12.305  18.639  0.00  0.00    +0.000 A 
ATOM     26  C   UNL     1      -0.727  11.462  19.071  0.00  0.00    +0.000 A 
ATOM     27  C   UNL     1      -0.606  10.180  18.531  0.00  0.00    +0.000 A 
ATOM     28  C   UNL     1      -1.499   9.758  17.542  0.00  0.00    +0.000 A 
BRANCH  23  30
ATOM     29  C   UNL     1      -3.033  10.344  14.803  0.00  0.00    +0.000 C 
ATOM     30  O   UNL     1      -3.350  10.052  16.158  0.00  0.00    +0.000 OA
ENDBRANCH  23  30
ENDBRANCH   1  27
TORSDOF 5
ENDMDL
MODEL 2
REMARK VINA RESULT:      -8.4      1.116      1.777
REMARK  Name = 
REMARK  6 active torsions:
REMARK  status: ('A' for Active; 'I' for Inactive)
REMARK    1  A    between atoms: C_1  and  O_2
REMARK    2  A    between atoms: O_2  and  C_3
REMARK    3  A    between atoms: C_7  and  C_8
REMARK    4  A    between atoms: C_12  and  C_14
REMARK    5  A    between atoms: C_18  and  O_19
REMARK    6  A    between atoms: C_24  and  O_25
REMARK                            x       y       z     vdW  Elec       q    Type
REMARK                         _______ _______ _______ _____ _____    ______ ____
ROOT
ATOM      1  C   UNL     1       0.252   9.251  19.186  0.00  0.00    +0.000 C 
ATOM      2  C   UNL     1       0.499   9.040  20.493  0.00  0.00    +0.000 C 
ATOM      3  C   UNL     1       1.569   8.107  21.002  0.00  0.00    +0.000 C 
ATOM      4  N   UNL     1       2.157   7.340  19.900  0.00  0.00    +0.000 N 
ATOM      5  C   UNL     1       2.285   5.952  20.055  0.00  0.00    +0.000 C 
ATOM      6  O   UNL     1       1.918   5.381  21.094  0.00  0.00    +0.000 OA
ATOM      7  C   UNL     1       2.432   8.156  18.716  0.00  0.00    +0.000 C 
ATOM      8  C   UNL     1       1.096   8.603  18.114  0.00  0.00    +0.000 C 
ENDROOT
BRANCH   5   9
ATOM      9  C   UNL     1       3.041   5.093  19.071  0.00  0.00    +0.000 A 
ATOM     10  C   UNL     1       4.389   5.417  18.941  0.00  0.00    +0.000 A 
ATOM     11  C   UNL     1       5.104   4.989  17.831  0.00  0.00    +0.000 A 
ATOM     12  C   UNL     1       6.417   5.395  17.673  0.00  0.00    +0.000 A 
ATOM     13  C   UNL     1       6.875   5.699  16.425  0.00  0.00    +0.000 A 
ATOM     14  C   UNL     1       6.263   5.120  15.325  0.00  0.00    +0.000 A 
ATOM     15  C   UNL     1       5.128   4.311  15.524  0.00  0.00    +0.000 A 
ATOM     16  C   UNL     1       4.466   4.360  16.778  0.00  0.00    +0.000 A 
ATOM     17  C   UNL     1       3.225   3.747  17.064  0.00  0.00    +0.000 A 
ATOM     18  C   UNL     1       2.534   4.104  18.222  0.00  0.00    +0.000 A 
BRANCH  13  19
ATOM     19  O   UNL     1       7.819   6.668  16.285  0.00  0.00    +0.000 OA
ATOM     20  H   UNL     1       7.500   7.251  15.566  0.00  0.00    +0.000 HD
ENDBRANCH  13  19
BRANCH  18  21
ATOM     21  O   UNL     1       1.342   3.502  18.493  0.00  0.00    +0.000 OA
ATOM     22  H   UNL     1       1.446   2.888  19.237  0.00  0.00    +0.000 HD
ENDBRANCH  18  21
ENDBRANCH   5   9
BRANCH   1  27
ATOM     23  C   UNL     1      -2.273  12.044  19.105  0.00  0.00    +0.000 A 
ATOM     24  C   UNL     1      -2.794  11.888  17.820  0.00  0.00    +0.000 A 
ATOM     25  C   UNL     1      -2.346  10.851  16.998  0.00  0.00    +0.000 A 
ATOM     26  C   UNL     1      -1.366   9.970  17.453  0.00  0.00    +0.000 A 
ATOM     27  C   UNL     1      -0.830  10.125  18.733  0.00  0.00    +0.000 A 
ATOM     28  C   UNL     1      -1.298  11.152  19.560  0.00  0.00    +0.000 A 
BRANCH  23  30
ATOM     29  C   UNL     1      -3.886  12.868  20.641  0.00  0.00    +0.000 C 
ATOM     30  O   UNL     1      -2.624  13.015  20.002  0.00  0.00    +0.000 OA
ENDBRANCH  23  30
ENDBRANCH   1  27
TORSDOF 5
ENDMDL
MODEL 3
REMARK VINA RESULT:      -8.2      3.810      8.801
REMARK  Name = 
REMARK  6 active torsions:
REMARK  status: ('A' for Active; 'I' for Inactive)
REMARK    1  A    between atoms: C_1  and  O_2
REMARK    2  A    between atoms: O_2  and  C_3
REMARK    3  A    between atoms: C_7  and  C_8
REMARK    4  A    between atoms: C_12  and  C_14
REMARK    5  A    between atoms: C_18  and  O_19
REMARK    6  A    between atoms: C_24  and  O_25
REMARK                            x       y       z     vdW  Elec       q    Type
REMARK                         _______ _______ _______ _____ _____    ______ ____
ROOT
ATOM      1  C   UNL     1       2.211   7.932  18.636  0.00  0.00    +0.000 C 
ATOM      2  C   UNL     1       1.841   7.885  19.929  0.00  0.00    +0.000 C 
ATOM      3  C   UNL     1       1.022   8.957  20.603  0.00  0.00    +0.000 C 
ATOM      4  N   UNL     1       0.854  10.116  19.722  0.00  0.00    +0.000 N 
ATOM      5  C   UNL     1       1.111  11.390  20.247  0.00  0.00    +0.000 C 
ATOM      6  O   UNL     1       1.465  11.543  21.426  0.00  0.00    +0.000 OA
ATOM      7  C   UNL     1       0.538   9.744  18.341  0.00  0.00    +0.000 C 
ATOM      8  C   UNL     1       1.763   9.055  17.731  0.00  0.00    +0.000 C 
ENDROOT
BRANCH   5   9
ATOM      9  C   UNL     1       0.792  12.658  19.492  0.00  0.00    +0.000 A 
ATOM     10  C   UNL     1       1.902  13.296  18.943  0.00  0.00    +0.000 A 
ATOM     11  C   UNL     1       1.821  14.629  18.566  0.00  0.00    +0.000 A 
ATOM     12  C   UNL     1       2.957  15.272  18.107  0.00  0.00    +0.000 A 
ATOM     13  C   UNL     1       3.175  16.572  18.458  0.00  0.00    +0.000 A 
ATOM     14  C   UNL     1       2.090  17.372  18.780  0.00  0.00    +0.000 A 
ATOM     15  C   UNL     1       0.807  16.793  18.827  0.00  0.00    +0.000 A 
ATOM     16  C   UNL     1       0.696  15.379  18.852  0.00  0.00    +0.000 A 
ATOM     17  C   UNL     1      -0.502  14.665  19.076  0.00  0.00    +0.000 A 
ATOM     18  C   UNL     1      -0.443  13.302  19.373  0.00  0.00    +0.000 A 
BRANCH  13  19
ATOM     19  O   UNL     1       4.453  17.007  18.623  0.00  0.00    +0.000 OA
ATOM     20  H   UNL     1       4.837  17.054  17.723  0.00  0.00    +0.000 HD
ENDBRANCH  13  19
BRANCH  18  21
ATOM     21  O   UNL     1      -1.605  12.620  19.580  0.00  0.00    +0.000 OA
ATOM     22  H   UNL     1      -2.285  13.225  19.916  0.00  0.00    +0.000 HD
ENDBRANCH  18  21
ENDBRANCH   5   9
BRANCH   1  27
ATOM     23  C   UNL     1       5.127   6.243  16.953  0.00  0.00    +0.000 A 
ATOM     24  C   UNL     1       4.722   4.908  17.006  0.00  0.00    +0.000 A 
ATOM     25  C   UNL     1       3.484   4.568  17.559  0.00  0.00    +0.000 A 
ATOM     26  C   UNL     1       2.649   5.560  18.070  0.00  0.00    +0.000 A 
ATOM     27  C   UNL     1       3.050   6.897  18.032  0.00  0.00    +0.000 A 
ATOM     28  C   UNL     1       4.281   7.234  17.458  0.00  0.00    +0.000 A 
BRANCH  23  30
ATOM     29  C   UNL     1       7.306   7.084  17.381  0.00  0.00    +0.000 C 
ATOM     30  O   UNL     1       6.308   6.704  16.442  0.00  0.00    +0.000 OA
ENDBRANCH  23  30
ENDBRANCH   1  27
TORSDOF 5
ENDMDL
MODEL 4
REMARK VINA RESULT:      -8.2      3.828      8.651
REMARK  Name = 
REMARK  6 active torsions:
REMARK  status: ('A' for Active; 'I' for Inactive)
REMARK    1  A    between atoms: C_1  and  O_2
REMARK    2  A    between atoms: O_2  and  C_3
REMARK    3  A    between atoms: C_7  and  C_8
REMARK    4  A    between atoms: C_12  and  C_14
REMARK    5  A    between atoms: C_18  and  O_19
REMARK    6  A    between atoms: C_24  and  O_25
REMARK                            x       y       z     vdW  Elec       q    Type
REMARK                         _______ _______ _______ _____ _____    ______ ____
ROOT
ATOM      1  C   UNL     1       2.163   7.944  18.691  0.00  0.00    +0.000 C 
ATOM      2  C   UNL     1       1.782   7.918  19.982  0.00  0.00    +0.000 C 
ATOM      3  C   UNL     1       0.971   9.009  20.636  0.00  0.00    +0.000 C 
ATOM      4  N   UNL     1       0.827  10.159  19.740  0.00  0.00    +0.000 N 
ATOM      5  C   UNL     1       1.095  11.436  20.252  0.00  0.00    +0.000 C 
ATOM      6  O   UNL     1       1.442  11.599  21.432  0.00  0.00    +0.000 OA
ATOM      7  C   UNL     1       0.517   9.775  18.361  0.00  0.00    +0.000 C 
ATOM      8  C   UNL     1       1.738   9.062  17.769  0.00  0.00    +0.000 C 
ENDROOT
BRANCH   5   9
ATOM      9  C   UNL     1       0.800  12.699  19.479  0.00  0.00    +0.000 A 
ATOM     10  C   UNL     1       1.924  13.321  18.942  0.00  0.00    +0.000 A 
ATOM     11  C   UNL     1       1.862  14.652  18.550  0.00  0.00    +0.000 A 
ATOM     12  C   UNL     1       3.010  15.280  18.103  0.00  0.00    +0.000 A 
ATOM     13  C   UNL     1       3.234  16.581  18.444  0.00  0.00    +0.000 A 
ATOM     14  C   UNL     1       2.151  17.394  18.741  0.00  0.00    +0.000 A 
ATOM     15  C   UNL     1       0.862  16.827  18.773  0.00  0.00    +0.000 A 
ATOM     16  C   UNL     1       0.738  15.414  18.810  0.00  0.00    +0.000 A 
ATOM     17  C   UNL     1      -0.470  14.712  19.022  0.00  0.00    +0.000 A 
ATOM     18  C   UNL     1      -0.427  13.352  19.333  0.00  0.00    +0.000 A 
BRANCH  13  19
ATOM     19  O   UNL     1       4.512  17.007  18.625  0.00  0.00    +0.000 OA
ATOM     20  H   UNL     1       4.611  17.152  19.588  0.00  0.00    +0.000 HD
ENDBRANCH  13  19
BRANCH  18  21
ATOM     21  O   UNL     1      -1.598  12.682  19.528  0.00  0.00    +0.000 OA
ATOM     22  H   UNL     1      -1.493  12.040  20.248  0.00  0.00    +0.000 HD
ENDBRANCH  18  21
ENDBRANCH   5   9
BRANCH   1  27
ATOM     23  C   UNL     1       3.361   4.540  17.613  0.00  0.00    +0.000 A 
ATOM     24  C   UNL     1       4.494   4.884  16.873  0.00  0.00    +0.000 A 
ATOM     25  C   UNL     1       4.883   6.221  16.759  0.00  0.00    +0.000 A 
ATOM     26  C   UNL     1       4.135   7.224  17.375  0.00  0.00    +0.000 A 
ATOM     27  C   UNL     1       2.993   6.890  18.107  0.00  0.00    +0.000 A 
ATOM     28  C   UNL     1       2.621   5.548  18.237  0.00  0.00    +0.000 A 
BRANCH  23  30
ATOM     29  C   UNL     1       1.555   3.166  18.314  0.00  0.00    +0.000 C 
ATOM     30  O   UNL     1       2.876   3.275  17.799  0.00  0.00    +0.000 OA
ENDBRANCH  23  30
ENDBRANCH   1  27
TORSDOF 5
ENDMDL
MODEL 5
REMARK VINA RESULT:      -8.0      1.326      2.008
REMARK  Name = 
REMARK  6 active torsions:
REMARK  status: ('A' for Active; 'I' for Inactive)
REMARK    1  A    between atoms: C_1  and  O_2
REMARK    2  A    between atoms: O_2  and  C_3
REMARK    3  A    between atoms: C_7  and  C_8
REMARK    4  A    between atoms: C_12  and  C_14
REMARK    5  A    between atoms: C_18  and  O_19
REMARK    6  A    between atoms: C_24  and  O_25
REMARK                            x       y       z     vdW  Elec       q    Type
REMARK                         _______ _______ _______ _____ _____    ______ ____
ROOT
ATOM      1  C   UNL     1      -0.838  10.162  18.219  0.00  0.00    +0.000 C 
ATOM      2  C   UNL     1      -0.317  10.727  19.325  0.00  0.00    +0.000 C 
ATOM      3  C   UNL     1       0.947  10.247  19.992  0.00  0.00    +0.000 C 
ATOM      4  N   UNL     1       1.408   8.992  19.391  0.00  0.00    +0.000 N 
ATOM      5  C   UNL     1       1.748   7.934  20.246  0.00  0.00    +0.000 C 
ATOM      6  O   UNL     1       1.670   8.050  21.479  0.00  0.00    +0.000 OA
ATOM      7  C   UNL     1       1.336   8.996  17.929  0.00  0.00    +0.000 C 
ATOM      8  C   UNL     1      -0.140   9.023  17.515  0.00  0.00    +0.000 C 
ENDROOT
BRANCH   5   9
ATOM      9  C   UNL     1       2.409   6.671  19.750  0.00  0.00    +0.000 A 
ATOM     10  C   UNL     1       3.592   6.878  19.046  0.00  0.00    +0.000 A 
ATOM     11  C   UNL     1       4.094   5.880  18.221  0.00  0.00    +0.000 A 
ATOM     12  C   UNL     1       5.220   6.135  17.460  0.00  0.00    +0.000 A 
ATOM     13  C   UNL     1       5.297   5.632  16.194  0.00  0.00    +0.000 A 
ATOM     14  C   UNL     1       4.573   4.494  15.878  0.00  0.00    +0.000 A 
ATOM     15  C   UNL     1       3.707   3.947  16.846  0.00  0.00    +0.000 A 
ATOM     16  C   UNL     1       3.367   4.730  17.978  0.00  0.00    +0.000 A 
ATOM     17  C   UNL     1       2.382   4.389  18.932  0.00  0.00    +0.000 A 
ATOM     18  C   UNL     1       1.927   5.360  19.826  0.00  0.00    +0.000 A 
BRANCH  13  19
ATOM     19  O   UNL     1       5.962   6.338  15.241  0.00  0.00    +0.000 OA
ATOM     20  H   UNL     1       6.858   5.947  15.196  0.00  0.00    +0.000 HD
ENDBRANCH  13  19
BRANCH  18  21
ATOM     21  O   UNL     1       0.982   5.020  20.747  0.00  0.00    +0.000 OA
ATOM     22  H   UNL     1       0.304   4.465  20.332  0.00  0.00    +0.000 HD
ENDBRANCH  18  21
ENDBRANCH   5   9
BRANCH   1  27
ATOM     23  C   UNL     1      -3.697  10.589  15.804  0.00  0.00    +0.000 A 
ATOM     24  C   UNL     1      -4.558  11.390  16.557  0.00  0.00    +0.000 A 
ATOM     25  C   UNL     1      -4.187  11.817  17.835  0.00  0.00    +0.000 A 
ATOM     26  C   UNL     1      -2.958  11.437  18.372  0.00  0.00    +0.000 A 
ATOM     27  C   UNL     1      -2.095  10.626  17.631  0.00  0.00    +0.000 A 
ATOM     28  C   UNL     1      -2.461  10.220  16.343  0.00  0.00    +0.000 A 
BRANCH  23  30
ATOM     29  C   UNL     1      -2.806   9.787  13.754  0.00  0.00    +0.000 C 
ATOM     30  O   UNL     1      -3.941  10.107  14.548  0.00  0.00    +0.000 OA
ENDBRANCH  23  30
ENDBRANCH   1  27
TORSDOF 5
ENDMDL
MODEL 6
REMARK VINA RESULT:      -8.0      1.077      1.233
REMARK  Name = 
REMARK  6 active torsions:
REMARK  status: ('A' for Active; 'I' for Inactive)
REMARK    1  A    between atoms: C_1  and  O_2
REMARK    2  A    between atoms: O_2  and  C_3
REMARK    3  A    between atoms: C_7  and  C_8
REMARK    4  A    between atoms: C_12  and  C_14
REMARK    5  A    between atoms: C_18  and  O_19
REMARK    6  A    between atoms: C_24  and  O_25
REMARK                            x       y       z     vdW  Elec       q    Type
REMARK                         _______ _______ _______ _____ _____    ______ ____
ROOT
ATOM      1  C   UNL     1      -0.083   9.507  19.411  0.00  0.00    +0.000 C 
ATOM      2  C   UNL     1      -0.090   9.086  20.690  0.00  0.00    +0.000 C 
ATOM      3  C   UNL     1       0.918   8.119  21.257  0.00  0.00    +0.000 C 
ATOM      4  N   UNL     1       1.768   7.571  20.196  0.00  0.00    +0.000 N 
ATOM      5  C   UNL     1       1.959   6.183  20.152  0.00  0.00    +0.000 C 
ATOM      6  O   UNL     1       1.432   5.431  20.986  0.00  0.00    +0.000 OA
ATOM      7  C   UNL     1       2.218   8.586  19.241  0.00  0.00    +0.000 C 
ATOM      8  C   UNL     1       1.003   9.082  18.451  0.00  0.00    +0.000 C 
ENDROOT
BRANCH   5   9
ATOM      9  C   UNL     1       2.957   5.531  19.225  0.00  0.00    +0.000 A 
ATOM     10  C   UNL     1       4.277   5.593  19.665  0.00  0.00    +0.000 A 
ATOM     11  C   UNL     1       5.319   5.389  18.771  0.00  0.00    +0.000 A 
ATOM     12  C   UNL     1       6.623   5.543  19.204  0.00  0.00    +0.000 A 
ATOM     13  C   UNL     1       7.540   6.114  18.372  0.00  0.00    +0.000 A 
ATOM     14  C   UNL     1       7.340   6.042  17.002  0.00  0.00    +0.000 A 
ATOM     15  C   UNL     1       6.151   5.464  16.516  0.00  0.00    +0.000 A 
ATOM     16  C   UNL     1       5.073   5.261  17.416  0.00  0.00    +0.000 A 
ATOM     17  C   UNL     1       3.771   4.861  17.043  0.00  0.00    +0.000 A 
ATOM     18  C   UNL     1       2.727   4.980  17.961  0.00  0.00    +0.000 A 
BRANCH  13  19
ATOM     19  O   UNL     1       8.543   6.861  18.905  0.00  0.00    +0.000 OA
ATOM     20  H   UNL     1       9.311   6.741  18.310  0.00  0.00    +0.000 HD
ENDBRANCH  13  19
BRANCH  18  21
ATOM     21  O   UNL     1       1.475   4.584  17.594  0.00  0.00    +0.000 OA
ATOM     22  H   UNL     1       0.863   5.334  17.654  0.00  0.00    +0.000 HD
ENDBRANCH  18  21
ENDBRANCH   5   9
BRANCH   1  27
ATOM     23  C   UNL     1      -2.471  11.180  17.027  0.00  0.00    +0.000 A 
ATOM     24  C   UNL     1      -3.168  12.017  17.899  0.00  0.00    +0.000 A 
ATOM     25  C   UNL     1      -2.832  12.060  19.255  0.00  0.00    +0.000 A 
ATOM     26  C   UNL     1      -1.805  11.256  19.748  0.00  0.00    +0.000 A 
ATOM     27  C   UNL     1      -1.110  10.407  18.885  0.00  0.00    +0.000 A 
ATOM     28  C   UNL     1      -1.435  10.384  17.524  0.00  0.00    +0.000 A 
BRANCH  23  30
ATOM     29  C   UNL     1      -3.097   9.758  15.230  0.00  0.00    +0.000 C 
ATOM     30  O   UNL     1      -2.702  11.046  15.686  0.00  0.00    +0.000 OA
ENDBRANCH  23  30
ENDBRANCH   1  27
TORSDOF 5
ENDMDL
MODEL 7
REMARK VINA RESULT:      -7.9      1.323      1.851
REMARK  Name = 
REMARK  6 active torsions:
REMARK  status: ('A' for Active; 'I' for Inactive)
REMARK    1  A    between atoms: C_1  and  O_2
REMARK    2  A    between atoms: O_2  and  C_3
REMARK    3  A    between atoms: C_7  and  C_8
REMARK    4  A    between atoms: C_12  and  C_14
REMARK    5  A    between atoms: C_18  and  O_19
REMARK    6  A    between atoms: C_24  and  O_25
REMARK                            x       y       z     vdW  Elec       q    Type
REMARK                         _______ _______ _______ _____ _____    ______ ____
ROOT
ATOM      1  C   UNL     1      -0.452   9.644  18.392  0.00  0.00    +0.000 C 
ATOM      2  C   UNL     1      -0.084   9.852  19.670  0.00  0.00    +0.000 C 
ATOM      3  C   UNL     1       1.139   9.230  20.299  0.00  0.00    +0.000 C 
ATOM      4  N   UNL     1       1.743   8.245  19.398  0.00  0.00    +0.000 N 
ATOM      5  C   UNL     1       2.070   6.985  19.919  0.00  0.00    +0.000 C 
ATOM      6  O   UNL     1       1.862   6.704  21.110  0.00  0.00    +0.000 OA
ATOM      7  C   UNL     1       1.815   8.706  18.010  0.00  0.00    +0.000 C 
ATOM      8  C   UNL     1       0.390   8.809  17.457  0.00  0.00    +0.000 C 
ENDROOT
BRANCH   5   9
ATOM      9  C   UNL     1       2.862   5.965  19.138  0.00  0.00    +0.000 A 
ATOM     10  C   UNL     1       4.225   6.238  19.051  0.00  0.00    +0.000 A 
ATOM     11  C   UNL     1       4.997   5.624  18.074  0.00  0.00    +0.000 A 
ATOM     12  C   UNL     1       6.329   5.974  17.944  0.00  0.00    +0.000 A 
ATOM     13  C   UNL     1       6.876   6.066  16.698  0.00  0.00    +0.000 A 
ATOM     14  C   UNL     1       6.319   5.331  15.664  0.00  0.00    +0.000 A 
ATOM     15  C   UNL     1       5.149   4.586  15.910  0.00  0.00    +0.000 A 
ATOM     16  C   UNL     1       4.409   4.847  17.093  0.00  0.00    +0.000 A 
ATOM     17  C   UNL     1       3.135   4.312  17.386  0.00  0.00    +0.000 A 
ATOM     18  C   UNL     1       2.381   4.864  18.423  0.00  0.00    +0.000 A 
BRANCH  13  19
ATOM     19  O   UNL     1       7.856   6.981  16.472  0.00  0.00    +0.000 OA
ATOM     20  H   UNL     1       7.831   7.167  15.511  0.00  0.00    +0.000 HD
ENDBRANCH  13  19
BRANCH  18  21
ATOM     21  O   UNL     1       1.156   4.335  18.703  0.00  0.00    +0.000 OA
ATOM     22  H   UNL     1       1.086   3.449  18.316  0.00  0.00    +0.000 HD
ENDBRANCH  18  21
ENDBRANCH   5   9
BRANCH   1  27
ATOM     23  C   UNL     1      -3.644  11.622  18.098  0.00  0.00    +0.000 A 
ATOM     24  C   UNL     1      -3.931  11.456  16.742  0.00  0.00    +0.000 A 
ATOM     25  C   UNL     1      -3.102  10.670  15.937  0.00  0.00    +0.000 A 
ATOM     26  C   UNL     1      -1.976  10.055  16.481  0.00  0.00    +0.000 A 
ATOM     27  C   UNL     1      -1.674  10.225  17.834  0.00  0.00    +0.000 A 
ATOM     28  C   UNL     1      -2.519  10.995  18.641  0.00  0.00    +0.000 A 
BRANCH  23  30
ATOM     29  C   UNL     1      -5.697  11.923  19.255  0.00  0.00    +0.000 C 
ATOM     30  O   UNL     1      -4.371  12.363  18.988  0.00  0.00    +0.000 OA
ENDBRANCH  23  30
ENDBRANCH   1  27
TORSDOF 5
ENDMDL
MODEL 8
REMARK VINA RESULT:      -7.9      1.600      2.441
REMARK  Name = 
REMARK  6 active torsions:
REMARK  status: ('A' for Active; 'I' for Inactive)
REMARK    1  A    between atoms: C_1  and  O_2
REMARK    2  A    between atoms: O_2  and  C_3
REMARK    3  A    between atoms: C_7  and  C_8
REMARK    4  A    between atoms: C_12  and  C_14
REMARK    5  A    between atoms: C_18  and  O_19
REMARK    6  A    between atoms: C_24  and  O_25
REMARK                            x       y       z     vdW  Elec       q    Type
REMARK                         _______ _______ _______ _____ _____    ______ ____
ROOT
ATOM      1  C   UNL     1      -0.835  10.038  18.119  0.00  0.00    +0.000 C 
ATOM      2  C   UNL     1      -0.363  10.615  19.240  0.00  0.00    +0.000 C 
ATOM      3  C   UNL     1       0.891  10.165  19.947  0.00  0.00    +0.000 C 
ATOM      4  N   UNL     1       1.402   8.923  19.361  0.00  0.00    +0.000 N 
ATOM      5  C   UNL     1       1.742   7.874  20.226  0.00  0.00    +0.000 C 
ATOM      6  O   UNL     1       1.623   7.986  21.456  0.00  0.00    +0.000 OA
ATOM      7  C   UNL     1       1.375   8.926  17.896  0.00  0.00    +0.000 C 
ATOM      8  C   UNL     1      -0.087   8.917  17.437  0.00  0.00    +0.000 C 
ENDROOT
BRANCH   5   9
ATOM      9  C   UNL     1       2.448   6.627  19.751  0.00  0.00    +0.000 A 
ATOM     10  C   UNL     1       3.611   6.866  19.022  0.00  0.00    +0.000 A 
ATOM     11  C   UNL     1       4.143   5.870  18.215  0.00  0.00    +0.000 A 
ATOM     12  C   UNL     1       5.246   6.153  17.429  0.00  0.00    +0.000 A 
ATOM     13  C   UNL     1       5.325   5.622  16.175  0.00  0.00    +0.000 A 
ATOM     14  C   UNL     1       4.645   4.447  15.899  0.00  0.00    +0.000 A 
ATOM     15  C   UNL     1       3.819   3.888  16.893  0.00  0.00    +0.000 A 
ATOM     16  C   UNL     1       3.462   4.684  18.012  0.00  0.00    +0.000 A 
ATOM     17  C   UNL     1       2.507   4.326  18.990  0.00  0.00    +0.000 A 
ATOM     18  C   UNL     1       2.025   5.299  19.866  0.00  0.00    +0.000 A 
BRANCH  13  19
ATOM     19  O   UNL     1       5.945   6.331  15.194  0.00  0.00    +0.000 OA
ATOM     20  H   UNL     1       5.765   5.850  14.362  0.00  0.00    +0.000 HD
ENDBRANCH  13  19
BRANCH  18  21
ATOM     21  O   UNL     1       1.109   4.942  20.811  0.00  0.00    +0.000 OA
ATOM     22  H   UNL     1       0.240   4.823  20.397  0.00  0.00    +0.000 HD
ENDBRANCH  18  21
ENDBRANCH   5   9
BRANCH   1  27
ATOM     23  C   UNL     1      -4.220  11.620  17.643  0.00  0.00    +0.000 A 
ATOM     24  C   UNL     1      -4.408  11.428  16.273  0.00  0.00    +0.000 A 
ATOM     25  C   UNL     1      -3.446  10.752  15.517  0.00  0.00    +0.000 A 
ATOM     26  C   UNL     1      -2.287  10.273  16.125  0.00  0.00    +0.000 A 
ATOM     27  C   UNL     1      -2.085  10.471  17.492  0.00  0.00    +0.000 A 
ATOM     28  C   UNL     1      -3.060  11.129  18.249  0.00  0.00    +0.000 A 
BRANCH  23  30
ATOM     29  C   UNL     1      -6.183  11.510  18.974  0.00  0.00    +0.000 C 
ATOM     30  O   UNL     1      -5.080  12.264  18.489  0.00  0.00    +0.000 OA
ENDBRANCH  23  30
ENDBRANCH   1  27
TORSDOF 5
ENDMDL
MODEL 9
REMARK VINA RESULT:      -7.7      3.784      8.658
REMARK  Name = 
REMARK  6 active torsions:
REMARK  status: ('A' for Active; 'I' for Inactive)
REMARK    1  A    between atoms: C_1  and  O_2
REMARK    2  A    between atoms: O_2  and  C_3
REMARK    3  A    between atoms: C_7  and  C_8
REMARK    4  A    between atoms: C_12  and  C_14
REMARK    5  A    between atoms: C_18  and  O_19
REMARK    6  A    between atoms: C_24  and  O_25
REMARK                            x       y       z     vdW  Elec       q    Type
REMARK                         _______ _______ _______ _____ _____    ______ ____
ROOT
ATOM      1  C   UNL     1       2.256   7.477  19.158  0.00  0.00    +0.000 C 
ATOM      2  C   UNL     1       1.675   7.543  20.370  0.00  0.00    +0.000 C 
ATOM      3  C   UNL     1       0.829   8.705  20.828  0.00  0.00    +0.000 C 
ATOM      4  N   UNL     1       0.888   9.805  19.862  0.00  0.00    +0.000 N 
ATOM      5  C   UNL     1       1.139  11.097  20.344  0.00  0.00    +0.000 C 
ATOM      6  O   UNL     1       1.303  11.315  21.555  0.00  0.00    +0.000 OA
ATOM      7  C   UNL     1       0.781   9.354  18.473  0.00  0.00    +0.000 C 
ATOM      8  C   UNL     1       2.041   8.555  18.123  0.00  0.00    +0.000 C 
ENDROOT
BRANCH   5   9
ATOM      9  C   UNL     1       1.036  12.324  19.470  0.00  0.00    +0.000 A 
ATOM     10  C   UNL     1       2.256  12.796  18.994  0.00  0.00    +0.000 A 
ATOM     11  C   UNL     1       2.361  14.094  18.513  0.00  0.00    +0.000 A 
ATOM     12  C   UNL     1       3.599  14.576  18.129  0.00  0.00    +0.000 A 
ATOM     13  C   UNL     1       3.925  15.871  18.405  0.00  0.00    +0.000 A 
ATOM     14  C   UNL     1       2.911  16.803  18.554  0.00  0.00    +0.000 A 
ATOM     15  C   UNL     1       1.572  16.366  18.510  0.00  0.00    +0.000 A 
ATOM     16  C   UNL     1       1.303  14.978  18.627  0.00  0.00    +0.000 A 
ATOM     17  C   UNL     1       0.017  14.411  18.778  0.00  0.00    +0.000 A 
ATOM     18  C   UNL     1      -0.103  13.080  19.177  0.00  0.00    +0.000 A 
BRANCH  13  19
ATOM     19  O   UNL     1       5.222  16.185  18.668  0.00  0.00    +0.000 OA
ATOM     20  H   UNL     1       5.329  16.088  19.636  0.00  0.00    +0.000 HD
ENDBRANCH  13  19
BRANCH  18  21
ATOM     21  O   UNL     1      -1.348  12.541  19.313  0.00  0.00    +0.000 OA
ATOM     22  H   UNL     1      -1.747  12.841  20.144  0.00  0.00    +0.000 HD
ENDBRANCH  18  21
ENDBRANCH   5   9
BRANCH   1  27
ATOM     23  C   UNL     1       5.180   5.106  19.027  0.00  0.00    +0.000 A 
ATOM     24  C   UNL     1       4.695   4.141  18.143  0.00  0.00    +0.000 A 
ATOM     25  C   UNL     1       3.430   4.285  17.565  0.00  0.00    +0.000 A 
ATOM     26  C   UNL     1       2.640   5.390  17.877  0.00  0.00    +0.000 A 
ATOM     27  C   UNL     1       3.112   6.355  18.769  0.00  0.00    +0.000 A 
ATOM     28  C   UNL     1       4.387   6.217  19.328  0.00  0.00    +0.000 A 
BRANCH  23  30
ATOM     29  C   UNL     1       7.479   5.700  18.979  0.00  0.00    +0.000 C 
ATOM     30  O   UNL     1       6.393   5.081  19.657  0.00  0.00    +0.000 OA
ENDBRANCH  23  30
ENDBRANCH   1  27
TORSDOF 5
ENDMDL
