MODEL 1
REMARK VINA RESULT:      -8.5      0.000      0.000
REMARK  Name = 
REMARK  6 active torsions:
REMARK  status: ('A' for Active; 'I' for Inactive)
REMARK    1  A    between atoms: C_1  and  N_2
REMARK    2  A    between atoms: C_6  and  C_7
REMARK    3  A    between atoms: C_7  and  C_8
REMARK    4  A    between atoms: C_8  and  C_9
REMARK    5  A    between atoms: C_13  and  N_14
REMARK    6  A    between atoms: C_19  and  C_20
REMARK                            x       y       z     vdW  Elec       q    Type
REMARK                         _______ _______ _______ _____ _____    ______ ____
ROOT
ATOM      1  C   UNL     1       3.219   4.189  19.424  0.00  0.00    +0.000 A 
ATOM      2  C   UNL     1       2.919   3.592  18.182  0.00  0.00    +0.000 A 
ATOM      3  C   UNL     1       3.916   3.103  17.342  0.00  0.00    +0.000 A 
ATOM      4  C   UNL     1       5.249   3.324  17.656  0.00  0.00    +0.000 A 
ATOM      5  C   UNL     1       5.565   4.198  18.704  0.00  0.00    +0.000 A 
ATOM      6  C   UNL     1       4.577   4.481  19.658  0.00  0.00    +0.000 A 
ENDROOT
BRANCH   5   7
ATOM      7  N   UNL     1       6.658   5.163  18.544  0.00  0.00    +0.000 N 
ATOM      8  C   UNL     1       6.110   6.433  17.993  0.00  0.00    +0.000 C 
ATOM      9  C   UNL     1       6.149   6.160  16.523  0.00  0.00    +0.000 A 
ATOM     10  C   UNL     1       5.137   6.318  15.590  0.00  0.00    +0.000 A 
ATOM     11  C   UNL     1       5.204   5.552  14.418  0.00  0.00    +0.000 A 
ATOM     12  C   UNL     1       6.281   4.663  14.176  0.00  0.00    +0.000 A 
ATOM     13  C   UNL     1       7.326   4.566  15.108  0.00  0.00    +0.000 A 
ATOM     14  C   UNL     1       7.211   5.290  16.285  0.00  0.00    +0.000 A 
ATOM     15  C   UNL     1       7.660   4.784  17.609  0.00  0.00    +0.000 C 
ATOM     16  O   UNL     1       8.584   4.019  17.765  0.00  0.00    +0.000 OA
BRANCH  12  17
ATOM     17  C   UNL     1       6.255   3.714  13.005  0.00  0.00    +0.000 C 
ATOM     18  F   UNL     1       6.986   4.148  11.938  0.00  0.00    +0.000 F 
ENDBRANCH  12  17
ENDBRANCH   5   7
BRANCH   1  19
ATOM     19  C   UNL     1       2.078   4.506  20.517  0.00  0.00    +0.000 C 
ATOM     20  C   UNL     1       0.627   4.089  20.090  0.00  0.00    +0.000 C 
ATOM     21  N   UNL     1       0.668   2.946  21.000  0.00  0.00    +0.000 NA
ATOM     22  C   UNL     1       1.901   3.429  21.629  0.00  0.00    +0.000 C 
ATOM     23  H   UNL     1       0.789   2.058  20.508  0.00  0.00    +0.000 HD
BRANCH  19  24
ATOM     24  C   UNL     1       2.074   5.968  21.016  0.00  0.00    +0.000 C 
BRANCH  24  30
ATOM     25  C   UNL     1       0.839   8.893  21.303  0.00  0.00    +0.000 C 
ATOM     26  N   UNL     1       1.482   8.316  20.154  0.00  0.00    +0.000 N 
ATOM     27  C   UNL     1       1.591   8.930  18.937  0.00  0.00    +0.000 A 
ATOM     28  N   UNL     1       2.147   8.113  18.081  0.00  0.00    +0.000 NA
ATOM     29  N   UNL     1       2.397   6.931  18.741  0.00  0.00    +0.000 NA
ATOM     30  C   UNL     1       2.033   7.062  20.005  0.00  0.00    +0.000 A 
ENDBRANCH  24  30
ENDBRANCH  19  24
ENDBRANCH   1  19
TORSDOF 5
ENDMDL
MODEL 2
REMARK VINA RESULT:      -8.2      3.494      7.157
REMARK  Name = 
REMARK  6 active torsions:
REMARK  status: ('A' for Active; 'I' for Inactive)
REMARK    1  A    between atoms: C_1  and  N_2
REMARK    2  A    between atoms: C_6  and  C_7
REMARK    3  A    between atoms: C_7  and  C_8
REMARK    4  A    between atoms: C_8  and  C_9
REMARK    5  A    between atoms: C_13  and  N_14
REMARK    6  A    between atoms: C_19  and  C_20
REMARK                            x       y       z     vdW  Elec       q    Type
REMARK                         _______ _______ _______ _____ _____    ______ ____
ROOT
ATOM      1  C   UNL     1       5.361   4.170  17.724  0.00  0.00    +0.000 A 
ATOM      2  C   UNL     1       5.790   4.418  19.044  0.00  0.00    +0.000 A 
ATOM      3  C   UNL     1       5.402   3.610  20.108  0.00  0.00    +0.000 A 
ATOM      4  C   UNL     1       4.458   2.612  19.905  0.00  0.00    +0.000 A 
ATOM      5  C   UNL     1       3.773   2.563  18.685  0.00  0.00    +0.000 A 
ATOM      6  C   UNL     1       4.334   3.216  17.578  0.00  0.00    +0.000 A 
ENDROOT
BRANCH   5   7
ATOM      7  N   UNL     1       2.329   2.307  18.669  0.00  0.00    +0.000 N 
ATOM      8  C   UNL     1       1.708   3.085  17.561  0.00  0.00    +0.000 C 
ATOM      9  C   UNL     1       1.459   4.401  18.227  0.00  0.00    +0.000 A 
ATOM     10  C   UNL     1       1.796   5.669  17.783  0.00  0.00    +0.000 A 
ATOM     11  C   UNL     1       1.937   6.681  18.743  0.00  0.00    +0.000 A 
ATOM     12  C   UNL     1       1.718   6.429  20.120  0.00  0.00    +0.000 A 
ATOM     13  C   UNL     1       1.318   5.152  20.539  0.00  0.00    +0.000 A 
ATOM     14  C   UNL     1       1.239   4.153  19.580  0.00  0.00    +0.000 A 
ATOM     15  C   UNL     1       1.631   2.740  19.829  0.00  0.00    +0.000 C 
ATOM     16  O   UNL     1       1.545   2.193  20.905  0.00  0.00    +0.000 OA
BRANCH  12  17
ATOM     17  C   UNL     1       2.047   7.470  21.160  0.00  0.00    +0.000 C 
ATOM     18  F   UNL     1       0.986   8.262  21.491  0.00  0.00    +0.000 F 
ENDBRANCH  12  17
ENDBRANCH   5   7
BRANCH   1  19
ATOM     19  C   UNL     1       6.014   4.921  16.458  0.00  0.00    +0.000 C 
ATOM     20  C   UNL     1       5.207   6.165  15.945  0.00  0.00    +0.000 C 
ATOM     21  N   UNL     1       6.195   7.070  16.530  0.00  0.00    +0.000 NA
ATOM     22  C   UNL     1       7.120   5.964  16.798  0.00  0.00    +0.000 C 
ATOM     23  H   UNL     1       5.854   7.525  17.380  0.00  0.00    +0.000 HD
BRANCH  19  24
ATOM     24  C   UNL     1       6.339   3.987  15.271  0.00  0.00    +0.000 C 
BRANCH  24  30
ATOM     25  C   UNL     1       5.824   3.153  12.237  0.00  0.00    +0.000 C 
ATOM     26  N   UNL     1       6.679   4.198  12.731  0.00  0.00    +0.000 N 
ATOM     27  C   UNL     1       7.495   4.966  11.949  0.00  0.00    +0.000 A 
ATOM     28  N   UNL     1       8.205   5.763  12.705  0.00  0.00    +0.000 NA
ATOM     29  N   UNL     1       7.864   5.504  14.013  0.00  0.00    +0.000 NA
ATOM     30  C   UNL     1       6.912   4.587  14.033  0.00  0.00    +0.000 A 
ENDBRANCH  24  30
ENDBRANCH  19  24
ENDBRANCH   1  19
TORSDOF 5
ENDMDL
MODEL 3
REMARK VINA RESULT:      -8.0      2.914      4.635
REMARK  Name = 
REMARK  6 active torsions:
REMARK  status: ('A' for Active; 'I' for Inactive)
REMARK    1  A    between atoms: C_1  and  N_2
REMARK    2  A    between atoms: C_6  and  C_7
REMARK    3  A    between atoms: C_7  and  C_8
REMARK    4  A    between atoms: C_8  and  C_9
REMARK    5  A    between atoms: C_13  and  N_14
REMARK    6  A    between atoms: C_19  and  C_20
REMARK                            x       y       z     vdW  Elec       q    Type
REMARK                         _______ _______ _______ _____ _____    ______ ____
ROOT
ATOM      1  C   UNL     1       1.791   7.249  20.248  0.00  0.00    +0.000 A 
ATOM      2  C   UNL     1       1.450   6.078  20.956  0.00  0.00    +0.000 A 
ATOM      3  C   UNL     1       2.195   4.907  20.843  0.00  0.00    +0.000 A 
ATOM      4  C   UNL     1       3.218   4.831  19.908  0.00  0.00    +0.000 A 
ATOM      5  C   UNL     1       3.357   5.859  18.967  0.00  0.00    +0.000 A 
ATOM      6  C   UNL     1       2.768   7.101  19.243  0.00  0.00    +0.000 A 
ENDROOT
BRANCH   5   7
ATOM      7  N   UNL     1       3.637   5.530  17.566  0.00  0.00    +0.000 N 
ATOM      8  C   UNL     1       4.593   4.389  17.514  0.00  0.00    +0.000 C 
ATOM      9  C   UNL     1       5.906   5.098  17.601  0.00  0.00    +0.000 A 
ATOM     10  C   UNL     1       6.972   4.840  18.448  0.00  0.00    +0.000 A 
ATOM     11  C   UNL     1       7.859   5.890  18.720  0.00  0.00    +0.000 A 
ATOM     12  C   UNL     1       7.695   7.168  18.132  0.00  0.00    +0.000 A 
ATOM     13  C   UNL     1       6.644   7.389  17.229  0.00  0.00    +0.000 A 
ATOM     14  C   UNL     1       5.746   6.354  17.018  0.00  0.00    +0.000 A 
ATOM     15  C   UNL     1       4.286   6.557  16.827  0.00  0.00    +0.000 C 
ATOM     16  O   UNL     1       3.799   7.543  16.322  0.00  0.00    +0.000 OA
BRANCH  12  17
ATOM     17  C   UNL     1       8.542   8.337  18.567  0.00  0.00    +0.000 C 
ATOM     18  F   UNL     1       8.057   9.543  18.155  0.00  0.00    +0.000 F 
ENDBRANCH  12  17
ENDBRANCH   5   7
BRANCH   1  19
ATOM     19  C   UNL     1       1.112   8.673  20.574  0.00  0.00    +0.000 C 
ATOM     20  C   UNL     1      -0.322   8.587  21.204  0.00  0.00    +0.000 C 
ATOM     21  N   UNL     1       0.212   8.951  22.515  0.00  0.00    +0.000 NA
ATOM     22  C   UNL     1       1.513   9.305  21.940  0.00  0.00    +0.000 C 
ATOM     23  H   UNL     1       0.258   8.154  23.154  0.00  0.00    +0.000 HD
BRANCH  19  24
ATOM     24  C   UNL     1       1.097   9.651  19.379  0.00  0.00    +0.000 C 
BRANCH  24  30
ATOM     25  C   UNL     1      -1.541  10.036  17.631  0.00  0.00    +0.000 C 
ATOM     26  N   UNL     1      -1.003  10.926  18.623  0.00  0.00    +0.000 N 
ATOM     27  C   UNL     1      -1.517  12.158  18.919  0.00  0.00    +0.000 A 
ATOM     28  N   UNL     1      -0.754  12.752  19.798  0.00  0.00    +0.000 NA
ATOM     29  N   UNL     1       0.293  11.904  20.078  0.00  0.00    +0.000 NA
ATOM     30  C   UNL     1       0.126  10.781  19.400  0.00  0.00    +0.000 A 
ENDBRANCH  24  30
ENDBRANCH  19  24
ENDBRANCH   1  19
TORSDOF 5
ENDMDL
MODEL 4
REMARK VINA RESULT:      -8.0      3.041      4.910
REMARK  Name = 
REMARK  6 active torsions:
REMARK  status: ('A' for Active; 'I' for Inactive)
REMARK    1  A    between atoms: C_1  and  N_2
REMARK    2  A    between atoms: C_6  and  C_7
REMARK    3  A    between atoms: C_7  and  C_8
REMARK    4  A    between atoms: C_8  and  C_9
REMARK    5  A    between atoms: C_13  and  N_14
REMARK    6  A    between atoms: C_19  and  C_20
REMARK                            x       y       z     vdW  Elec       q    Type
REMARK                         _______ _______ _______ _____ _____    ______ ____
ROOT
ATOM      1  C   UNL     1       2.116   7.497  19.296  0.00  0.00    +0.000 A 
ATOM      2  C   UNL     1       1.651   6.481  20.157  0.00  0.00    +0.000 A 
ATOM      3  C   UNL     1       2.423   5.363  20.459  0.00  0.00    +0.000 A 
ATOM      4  C   UNL     1       3.625   5.158  19.796  0.00  0.00    +0.000 A 
ATOM      5  C   UNL     1       3.945   5.971  18.703  0.00  0.00    +0.000 A 
ATOM      6  C   UNL     1       3.289   7.204  18.573  0.00  0.00    +0.000 A 
ENDROOT
BRANCH   5   7
ATOM      7  N   UNL     1       4.526   5.375  17.496  0.00  0.00    +0.000 N 
ATOM      8  C   UNL     1       5.663   4.495  17.886  0.00  0.00    +0.000 C 
ATOM      9  C   UNL     1       6.792   5.474  17.934  0.00  0.00    +0.000 A 
ATOM     10  C   UNL     1       7.717   5.675  18.946  0.00  0.00    +0.000 A 
ATOM     11  C   UNL     1       8.340   6.928  19.022  0.00  0.00    +0.000 A 
ATOM     12  C   UNL     1       8.059   7.952  18.083  0.00  0.00    +0.000 A 
ATOM     13  C   UNL     1       7.165   7.704  17.031  0.00  0.00    +0.000 A 
ATOM     14  C   UNL     1       6.518   6.479  17.008  0.00  0.00    +0.000 A 
ATOM     15  C   UNL     1       5.103   6.302  16.586  0.00  0.00    +0.000 C 
ATOM     16  O   UNL     1       4.547   7.000  15.769  0.00  0.00    +0.000 OA
BRANCH  12  17
ATOM     17  C   UNL     1       8.593   9.348  18.277  0.00  0.00    +0.000 C 
ATOM     18  F   UNL     1       9.304   9.503  19.432  0.00  0.00    +0.000 F 
ENDBRANCH  12  17
ENDBRANCH   5   7
BRANCH   1  19
ATOM     19  C   UNL     1       1.358   8.911  19.156  0.00  0.00    +0.000 C 
ATOM     20  C   UNL     1       2.286  10.118  18.777  0.00  0.00    +0.000 C 
ATOM     21  N   UNL     1       1.763  10.116  17.412  0.00  0.00    +0.000 NA
ATOM     22  C   UNL     1       0.694   9.178  17.772  0.00  0.00    +0.000 C 
ATOM     23  H   UNL     1       2.427   9.728  16.738  0.00  0.00    +0.000 HD
BRANCH  19  24
ATOM     24  C   UNL     1       0.492   9.285  20.380  0.00  0.00    +0.000 C 
BRANCH  24  30
ATOM     25  C   UNL     1      -1.584  11.401  19.207  0.00  0.00    +0.000 C 
ATOM     26  N   UNL     1      -0.563  11.622  20.194  0.00  0.00    +0.000 N 
ATOM     27  C   UNL     1      -0.262  12.839  20.738  0.00  0.00    +0.000 A 
ATOM     28  N   UNL     1       0.768  12.721  21.536  0.00  0.00    +0.000 NA
ATOM     29  N   UNL     1       1.165  11.404  21.505  0.00  0.00    +0.000 NA
ATOM     30  C   UNL     1       0.340  10.726  20.726  0.00  0.00    +0.000 A 
ENDBRANCH  24  30
ENDBRANCH  19  24
ENDBRANCH   1  19
TORSDOF 5
ENDMDL
MODEL 5
REMARK VINA RESULT:      -7.9      2.916      4.560
REMARK  Name = 
REMARK  6 active torsions:
REMARK  status: ('A' for Active; 'I' for Inactive)
REMARK    1  A    between atoms: C_1  and  N_2
REMARK    2  A    between atoms: C_6  and  C_7
REMARK    3  A    between atoms: C_7  and  C_8
REMARK    4  A    between atoms: C_8  and  C_9
REMARK    5  A    between atoms: C_13  and  N_14
REMARK    6  A    between atoms: C_19  and  C_20
REMARK                            x       y       z     vdW  Elec       q    Type
REMARK                         _______ _______ _______ _____ _____    ______ ____
ROOT
ATOM      1  C   UNL     1       1.783   7.272  20.304  0.00  0.00    +0.000 A 
ATOM      2  C   UNL     1       1.436   6.090  20.990  0.00  0.00    +0.000 A 
ATOM      3  C   UNL     1       2.164   4.913  20.840  0.00  0.00    +0.000 A 
ATOM      4  C   UNL     1       3.174   4.844  19.892  0.00  0.00    +0.000 A 
ATOM      5  C   UNL     1       3.316   5.891  18.972  0.00  0.00    +0.000 A 
ATOM      6  C   UNL     1       2.747   7.135  19.284  0.00  0.00    +0.000 A 
ENDROOT
BRANCH   5   7
ATOM      7  N   UNL     1       3.574   5.591  17.560  0.00  0.00    +0.000 N 
ATOM      8  C   UNL     1       4.508   4.435  17.471  0.00  0.00    +0.000 C 
ATOM      9  C   UNL     1       5.835   5.119  17.558  0.00  0.00    +0.000 A 
ATOM     10  C   UNL     1       6.905   4.822  18.387  0.00  0.00    +0.000 A 
ATOM     11  C   UNL     1       7.814   5.849  18.673  0.00  0.00    +0.000 A 
ATOM     12  C   UNL     1       7.666   7.144  18.117  0.00  0.00    +0.000 A 
ATOM     13  C   UNL     1       6.609   7.404  17.232  0.00  0.00    +0.000 A 
ATOM     14  C   UNL     1       5.691   6.391  17.008  0.00  0.00    +0.000 A 
ATOM     15  C   UNL     1       4.232   6.624  16.838  0.00  0.00    +0.000 C 
ATOM     16  O   UNL     1       3.757   7.630  16.363  0.00  0.00    +0.000 OA
BRANCH  12  17
ATOM     17  C   UNL     1       8.539   8.287  18.570  0.00  0.00    +0.000 C 
ATOM     18  F   UNL     1       8.115   9.505  18.123  0.00  0.00    +0.000 F 
ENDBRANCH  12  17
ENDBRANCH   5   7
BRANCH   1  19
ATOM     19  C   UNL     1       1.128   8.697  20.671  0.00  0.00    +0.000 C 
ATOM     20  C   UNL     1      -0.298   8.616  21.318  0.00  0.00    +0.000 C 
ATOM     21  N   UNL     1       0.257   8.943  22.630  0.00  0.00    +0.000 NA
ATOM     22  C   UNL     1       1.556   9.293  22.046  0.00  0.00    +0.000 C 
ATOM     23  H   UNL     1       0.301   8.132  23.251  0.00  0.00    +0.000 HD
BRANCH  19  24
ATOM     24  C   UNL     1       1.111   9.703  19.499  0.00  0.00    +0.000 C 
BRANCH  24  30
ATOM     25  C   UNL     1       0.175  12.394  20.929  0.00  0.00    +0.000 C 
ATOM     26  N   UNL     1      -0.513  11.654  19.907  0.00  0.00    +0.000 N 
ATOM     27  C   UNL     1      -1.758  11.959  19.434  0.00  0.00    +0.000 A 
ATOM     28  N   UNL     1      -2.138  11.049  18.576  0.00  0.00    +0.000 NA
ATOM     29  N   UNL     1      -1.131  10.115  18.492  0.00  0.00    +0.000 NA
ATOM     30  C   UNL     1      -0.128  10.497  19.264  0.00  0.00    +0.000 A 
ENDBRANCH  24  30
ENDBRANCH  19  24
ENDBRANCH   1  19
TORSDOF 5
ENDMDL
MODEL 6
REMARK VINA RESULT:      -7.9      3.374      7.122
REMARK  Name = 
REMARK  6 active torsions:
REMARK  status: ('A' for Active; 'I' for Inactive)
REMARK    1  A    between atoms: C_1  and  N_2
REMARK    2  A    between atoms: C_6  and  C_7
REMARK    3  A    between atoms: C_7  and  C_8
REMARK    4  A    between atoms: C_8  and  C_9
REMARK    5  A    between atoms: C_13  and  N_14
REMARK    6  A    between atoms: C_19  and  C_20
REMARK                            x       y       z     vdW  Elec       q    Type
REMARK                         _______ _______ _______ _____ _____    ______ ____
ROOT
ATOM      1  C   UNL     1       2.291   5.696  18.923  0.00  0.00    +0.000 A 
ATOM      2  C   UNL     1       2.147   6.572  17.827  0.00  0.00    +0.000 A 
ATOM      3  C   UNL     1       2.107   7.954  17.991  0.00  0.00    +0.000 A 
ATOM      4  C   UNL     1       2.068   8.494  19.268  0.00  0.00    +0.000 A 
ATOM      5  C   UNL     1       1.873   7.641  20.362  0.00  0.00    +0.000 A 
ATOM      6  C   UNL     1       2.148   6.276  20.200  0.00  0.00    +0.000 A 
ENDROOT
BRANCH   5   7
ATOM      7  N   UNL     1       0.955   8.032  21.436  0.00  0.00    +0.000 N 
ATOM      8  C   UNL     1      -0.410   8.214  20.869  0.00  0.00    +0.000 C 
ATOM      9  C   UNL     1      -0.354   9.637  20.413  0.00  0.00    +0.000 A 
ATOM     10  C   UNL     1      -0.700  10.161  19.178  0.00  0.00    +0.000 A 
ATOM     11  C   UNL     1      -0.113  11.374  18.794  0.00  0.00    +0.000 A 
ATOM     12  C   UNL     1       0.787  12.061  19.647  0.00  0.00    +0.000 A 
ATOM     13  C   UNL     1       1.075  11.542  20.918  0.00  0.00    +0.000 A 
ATOM     14  C   UNL     1       0.527  10.314  21.253  0.00  0.00    +0.000 A 
ATOM     15  C   UNL     1       1.245   9.282  22.048  0.00  0.00    +0.000 C 
ATOM     16  O   UNL     1       2.073   9.532  22.894  0.00  0.00    +0.000 OA
BRANCH  12  17
ATOM     17  C   UNL     1       1.551  13.265  19.157  0.00  0.00    +0.000 C 
ATOM     18  F   UNL     1       2.755  12.953  18.595  0.00  0.00    +0.000 F 
ENDBRANCH  12  17
ENDBRANCH   5   7
BRANCH   1  19
ATOM     19  C   UNL     1       2.612   4.130  18.728  0.00  0.00    +0.000 C 
ATOM     20  C   UNL     1       2.620   3.292  20.054  0.00  0.00    +0.000 C 
ATOM     21  N   UNL     1       1.330   2.698  19.710  0.00  0.00    +0.000 NA
ATOM     22  C   UNL     1       1.389   3.241  18.349  0.00  0.00    +0.000 C 
ATOM     23  H   UNL     1       0.561   3.083  20.263  0.00  0.00    +0.000 HD
BRANCH  19  24
ATOM     24  C   UNL     1       3.901   3.846  17.926  0.00  0.00    +0.000 C 
BRANCH  24  30
ATOM     25  C   UNL     1       5.412   6.120  16.279  0.00  0.00    +0.000 C 
ATOM     26  N   UNL     1       5.779   5.562  17.552  0.00  0.00    +0.000 N 
ATOM     27  C   UNL     1       6.920   5.875  18.235  0.00  0.00    +0.000 A 
ATOM     28  N   UNL     1       7.005   5.137  19.311  0.00  0.00    +0.000 NA
ATOM     29  N   UNL     1       5.906   4.309  19.331  0.00  0.00    +0.000 NA
ATOM     30  C   UNL     1       5.140   4.589  18.290  0.00  0.00    +0.000 A 
ENDBRANCH  24  30
ENDBRANCH  19  24
ENDBRANCH   1  19
TORSDOF 5
ENDMDL
MODEL 7
REMARK VINA RESULT:      -7.7      0.592      1.134
REMARK  Name = 
REMARK  6 active torsions:
REMARK  status: ('A' for Active; 'I' for Inactive)
REMARK    1  A    between atoms: C_1  and  N_2
REMARK    2  A    between atoms: C_6  and  C_7
REMARK    3  A    between atoms: C_7  and  C_8
REMARK    4  A    between atoms: C_8  and  C_9
REMARK    5  A    between atoms: C_13  and  N_14
REMARK    6  A    between atoms: C_19  and  C_20
REMARK                            x       y       z     vdW  Elec       q    Type
REMARK                         _______ _______ _______ _____ _____    ______ ____
ROOT
ATOM      1  C   UNL     1       3.262   4.346  19.422  0.00  0.00    +0.000 A 
ATOM      2  C   UNL     1       2.943   3.725  18.197  0.00  0.00    +0.000 A 
ATOM      3  C   UNL     1       3.924   3.183  17.371  0.00  0.00    +0.000 A 
ATOM      4  C   UNL     1       5.264   3.372  17.678  0.00  0.00    +0.000 A 
ATOM      5  C   UNL     1       5.607   4.265  18.701  0.00  0.00    +0.000 A 
ATOM      6  C   UNL     1       4.629   4.604  19.647  0.00  0.00    +0.000 A 
ENDROOT
BRANCH   5   7
ATOM      7  N   UNL     1       6.728   5.192  18.513  0.00  0.00    +0.000 N 
ATOM      8  C   UNL     1       6.213   6.474  17.957  0.00  0.00    +0.000 C 
ATOM      9  C   UNL     1       6.220   6.184  16.490  0.00  0.00    +0.000 A 
ATOM     10  C   UNL     1       5.199   6.365  15.571  0.00  0.00    +0.000 A 
ATOM     11  C   UNL     1       5.222   5.585  14.407  0.00  0.00    +0.000 A 
ATOM     12  C   UNL     1       6.266   4.659  14.158  0.00  0.00    +0.000 A 
ATOM     13  C   UNL     1       7.321   4.538  15.074  0.00  0.00    +0.000 A 
ATOM     14  C   UNL     1       7.249   5.277  16.244  0.00  0.00    +0.000 A 
ATOM     15  C   UNL     1       7.702   4.771  17.567  0.00  0.00    +0.000 C 
ATOM     16  O   UNL     1       8.603   3.977  17.717  0.00  0.00    +0.000 OA
BRANCH  12  17
ATOM     17  C   UNL     1       6.190   3.699  12.998  0.00  0.00    +0.000 C 
ATOM     18  F   UNL     1       6.930   4.090  11.920  0.00  0.00    +0.000 F 
ENDBRANCH  12  17
ENDBRANCH   5   7
BRANCH   1  19
ATOM     19  C   UNL     1       2.133   4.728  20.506  0.00  0.00    +0.000 C 
ATOM     20  C   UNL     1       0.658   4.632  19.979  0.00  0.00    +0.000 C 
ATOM     21  N   UNL     1       0.449   3.398  20.734  0.00  0.00    +0.000 NA
ATOM     22  C   UNL     1       1.710   3.574  21.463  0.00  0.00    +0.000 C 
ATOM     23  H   UNL     1       0.443   2.569  20.137  0.00  0.00    +0.000 HD
BRANCH  19  24
ATOM     24  C   UNL     1       2.353   6.097  21.188  0.00  0.00    +0.000 C 
BRANCH  24  30
ATOM     25  C   UNL     1       2.842   7.544  18.390  0.00  0.00    +0.000 C 
ATOM     26  N   UNL     1       1.898   7.901  19.414  0.00  0.00    +0.000 N 
ATOM     27  C   UNL     1       1.096   9.007  19.377  0.00  0.00    +0.000 A 
ATOM     28  N   UNL     1       0.419   9.096  20.492  0.00  0.00    +0.000 NA
ATOM     29  N   UNL     1       0.793   8.037  21.288  0.00  0.00    +0.000 NA
ATOM     30  C   UNL     1       1.658   7.289  20.625  0.00  0.00    +0.000 A 
ENDBRANCH  24  30
ENDBRANCH  19  24
ENDBRANCH   1  19
TORSDOF 5
ENDMDL
MODEL 8
REMARK VINA RESULT:      -7.6      3.046      4.961
REMARK  Name = 
REMARK  6 active torsions:
REMARK  status: ('A' for Active; 'I' for Inactive)
REMARK    1  A    between atoms: C_1  and  N_2
REMARK    2  A    between atoms: C_6  and  C_7
REMARK    3  A    between atoms: C_7  and  C_8
REMARK    4  A    between atoms: C_8  and  C_9
REMARK    5  A    between atoms: C_13  and  N_14
REMARK    6  A    between atoms: C_19  and  C_20
REMARK                            x       y       z     vdW  Elec       q    Type
REMARK                         _______ _______ _______ _____ _____    ______ ____
ROOT
ATOM      1  C   UNL     1       1.985   7.769  19.501  0.00  0.00    +0.000 A 
ATOM      2  C   UNL     1       1.472   6.744  20.324  0.00  0.00    +0.000 A 
ATOM      3  C   UNL     1       2.154   5.547  20.518  0.00  0.00    +0.000 A 
ATOM      4  C   UNL     1       3.301   5.282  19.783  0.00  0.00    +0.000 A 
ATOM      5  C   UNL     1       3.642   6.133  18.725  0.00  0.00    +0.000 A 
ATOM      6  C   UNL     1       3.093   7.423  18.702  0.00  0.00    +0.000 A 
ENDROOT
BRANCH   5   7
ATOM      7  N   UNL     1       4.112   5.567  17.456  0.00  0.00    +0.000 N 
ATOM      8  C   UNL     1       5.192   4.580  17.734  0.00  0.00    +0.000 C 
ATOM      9  C   UNL     1       6.398   5.464  17.774  0.00  0.00    +0.000 A 
ATOM     10  C   UNL     1       7.385   5.532  18.743  0.00  0.00    +0.000 A 
ATOM     11  C   UNL     1       8.110   6.726  18.854  0.00  0.00    +0.000 A 
ATOM     12  C   UNL     1       7.865   7.823  17.991  0.00  0.00    +0.000 A 
ATOM     13  C   UNL     1       6.902   7.709  16.977  0.00  0.00    +0.000 A 
ATOM     14  C   UNL     1       6.159   6.541  16.922  0.00  0.00    +0.000 A 
ATOM     15  C   UNL     1       4.715   6.500  16.569  0.00  0.00    +0.000 C 
ATOM     16  O   UNL     1       4.176   7.286  15.824  0.00  0.00    +0.000 OA
BRANCH  12  17
ATOM     17  C   UNL     1       8.518   9.160  18.233  0.00  0.00    +0.000 C 
ATOM     18  F   UNL     1       9.252   9.207  19.383  0.00  0.00    +0.000 F 
ENDBRANCH  12  17
ENDBRANCH   5   7
BRANCH   1  19
ATOM     19  C   UNL     1       1.350   9.249  19.485  0.00  0.00    +0.000 C 
ATOM     20  C   UNL     1       1.678  10.089  18.201  0.00  0.00    +0.000 C 
ATOM     21  N   UNL     1       0.317   9.895  17.704  0.00  0.00    +0.000 NA
ATOM     22  C   UNL     1      -0.124   9.337  18.986  0.00  0.00    +0.000 C 
ATOM     23  H   UNL     1       0.273   9.221  16.936  0.00  0.00    +0.000 HD
BRANCH  19  24
ATOM     24  C   UNL     1       1.665  10.083  20.747  0.00  0.00    +0.000 C 
BRANCH  24  30
ATOM     25  C   UNL     1      -0.221  12.651  20.637  0.00  0.00    +0.000 C 
ATOM     26  N   UNL     1      -0.253  11.574  21.588  0.00  0.00    +0.000 N 
ATOM     27  C   UNL     1      -1.074  11.528  22.680  0.00  0.00    +0.000 A 
ATOM     28  N   UNL     1      -0.801  10.465  23.391  0.00  0.00    +0.000 NA
ATOM     29  N   UNL     1       0.232   9.804  22.766  0.00  0.00    +0.000 NA
ATOM     30  C   UNL     1       0.540  10.448  21.653  0.00  0.00    +0.000 A 
ENDBRANCH  24  30
ENDBRANCH  19  24
ENDBRANCH   1  19
TORSDOF 5
ENDMDL
MODEL 9
REMARK VINA RESULT:      -7.5      2.940      4.698
REMARK  Name = 
REMARK  6 active torsions:
REMARK  status: ('A' for Active; 'I' for Inactive)
REMARK    1  A    between atoms: C_1  and  N_2
REMARK    2  A    between atoms: C_6  and  C_7
REMARK    3  A    between atoms: C_7  and  C_8
REMARK    4  A    between atoms: C_8  and  C_9
REMARK    5  A    between atoms: C_13  and  N_14
REMARK    6  A    between atoms: C_19  and  C_20
REMARK                            x       y       z     vdW  Elec       q    Type
REMARK                         _______ _______ _______ _____ _____    ______ ____
ROOT
ATOM      1  C   UNL     1       1.731   7.336  20.244  0.00  0.00    +0.000 A 
ATOM      2  C   UNL     1       1.474   6.161  20.979  0.00  0.00    +0.000 A 
ATOM      3  C   UNL     1       2.286   5.036  20.875  0.00  0.00    +0.000 A 
ATOM      4  C   UNL     1       3.298   5.003  19.926  0.00  0.00    +0.000 A 
ATOM      5  C   UNL     1       3.360   6.019  18.964  0.00  0.00    +0.000 A 
ATOM      6  C   UNL     1       2.701   7.229  19.226  0.00  0.00    +0.000 A 
ENDROOT
BRANCH   5   7
ATOM      7  N   UNL     1       3.638   5.681  17.564  0.00  0.00    +0.000 N 
ATOM      8  C   UNL     1       4.580   4.528  17.519  0.00  0.00    +0.000 C 
ATOM      9  C   UNL     1       5.902   5.222  17.604  0.00  0.00    +0.000 A 
ATOM     10  C   UNL     1       6.963   4.956  18.454  0.00  0.00    +0.000 A 
ATOM     11  C   UNL     1       7.863   5.996  18.723  0.00  0.00    +0.000 A 
ATOM     12  C   UNL     1       7.714   7.274  18.129  0.00  0.00    +0.000 A 
ATOM     13  C   UNL     1       6.667   7.503  17.223  0.00  0.00    +0.000 A 
ATOM     14  C   UNL     1       5.758   6.477  17.016  0.00  0.00    +0.000 A 
ATOM     15  C   UNL     1       4.300   6.697  16.822  0.00  0.00    +0.000 C 
ATOM     16  O   UNL     1       3.825   7.687  16.312  0.00  0.00    +0.000 OA
BRANCH  12  17
ATOM     17  C   UNL     1       8.574   8.434  18.561  0.00  0.00    +0.000 C 
ATOM     18  F   UNL     1       8.197   9.625  18.010  0.00  0.00    +0.000 F 
ENDBRANCH  12  17
ENDBRANCH   5   7
BRANCH   1  19
ATOM     19  C   UNL     1       0.972   8.722  20.555  0.00  0.00    +0.000 C 
ATOM     20  C   UNL     1      -0.214   8.606  21.575  0.00  0.00    +0.000 C 
ATOM     21  N   UNL     1       0.595   9.237  22.616  0.00  0.00    +0.000 NA
ATOM     22  C   UNL     1       1.632   9.613  21.650  0.00  0.00    +0.000 C 
ATOM     23  H   UNL     1       0.922   8.568  23.317  0.00  0.00    +0.000 HD
BRANCH  19  24
ATOM     24  C   UNL     1       0.501   9.479  19.293  0.00  0.00    +0.000 C 
BRANCH  24  30
ATOM     25  C   UNL     1       2.317  11.913  18.322  0.00  0.00    +0.000 C 
ATOM     26  N   UNL     1       1.041  11.973  18.982  0.00  0.00    +0.000 N 
ATOM     27  C   UNL     1       0.429  13.128  19.382  0.00  0.00    +0.000 A 
ATOM     28  N   UNL     1      -0.672  12.841  20.027  0.00  0.00    +0.000 NA
ATOM     29  N   UNL     1      -0.781  11.470  20.068  0.00  0.00    +0.000 NA
ATOM     30  C   UNL     1       0.231  10.940  19.402  0.00  0.00    +0.000 A 
ENDBRANCH  24  30
ENDBRANCH  19  24
ENDBRANCH   1  19
TORSDOF 5
ENDMDL
