MODEL 1
REMARK VINA RESULT:      -8.8      0.000      0.000
REMARK  Name = 
REMARK  9 active torsions:
REMARK  status: ('A' for Active; 'I' for Inactive)
REMARK    1  A    between atoms: C_1  and  C_2
REMARK    2  A    between atoms: C_7  and  C_8
REMARK    3  A    between atoms: C_11  and  S_12
REMARK    4  A    between atoms: S_12  and  C_13
REMARK    5  A    between atoms: C_13  and  C_14
REMARK    6  A    between atoms: C_21  and  C_22
REMARK    7  A    between atoms: C_23  and  C_24
REMARK    8  A    between atoms: C_24  and  C_25
REMARK    9  A    between atoms: C_24  and  C_26
REMARK                            x       y       z     vdW  Elec       q    Type
REMARK                         _______ _______ _______ _____ _____    ______ ____
ROOT
ATOM      1  C   UNL     1       5.086   4.640  16.308  0.00  0.00    +0.000 A 
ATOM      2  C   UNL     1       5.372   5.941  16.557  0.00  0.00    +0.000 A 
ATOM      3  C   UNL     1       6.775   5.958  17.087  0.00  0.00    +0.000 A 
ATOM      4  O   UNL     1       7.078   6.475  18.150  0.00  0.00    +0.000 OA
ATOM      5  O   UNL     1       7.709   5.392  16.223  0.00  0.00    +0.000 OA
ATOM      6  C   UNL     1       7.170   4.755  15.088  0.00  0.00    +0.000 A 
ATOM      7  C   UNL     1       7.765   5.024  13.873  0.00  0.00    +0.000 A 
ATOM      8  C   UNL     1       7.084   4.664  12.712  0.00  0.00    +0.000 A 
ATOM      9  C   UNL     1       7.392   5.459  11.466  0.00  0.00    +0.000 C 
ATOM     10  C   UNL     1       6.034   3.709  12.773  0.00  0.00    +0.000 A 
ATOM     11  C   UNL     1       5.412   3.496  14.032  0.00  0.00    +0.000 A 
ATOM     12  C   UNL     1       5.907   4.144  15.170  0.00  0.00    +0.000 A 
ENDROOT
BRANCH  10  13
ATOM     13  C   UNL     1       5.570   3.023  11.482  0.00  0.00    +0.000 C 
ATOM     14  C   UNL     1       5.985   1.536  11.469  0.00  0.00    +0.000 C 
ATOM     15  C   UNL     1       4.067   3.081  11.188  0.00  0.00    +0.000 C 
ENDBRANCH  10  13
BRANCH   1  16
ATOM     16  C   UNL     1       4.530   3.804  17.427  0.00  0.00    +0.000 C 
BRANCH  16  17
ATOM     17  S   UNL     1       2.713   3.798  17.400  0.00  0.00    +0.000 S 
BRANCH  17  21
ATOM     18  C   UNL     1       1.965   7.072  19.271  0.00  0.00    +0.000 A 
ATOM     19  N   UNL     1       1.961   6.248  20.298  0.00  0.00    +0.000 NA
ATOM     20  N   UNL     1       2.220   4.987  19.802  0.00  0.00    +0.000 NA
ATOM     21  C   UNL     1       2.362   5.109  18.499  0.00  0.00    +0.000 A 
ATOM     22  O   UNL     1       2.225   6.411  18.088  0.00  0.00    +0.000 OA
BRANCH  18  29
ATOM     23  C   UNL     1       0.532   8.586  21.463  0.00  0.00    +0.000 C 
ATOM     24  C   UNL     1       1.041   9.239  20.207  0.00  0.00    +0.000 A 
ATOM     25  C   UNL     1       0.826  10.625  20.053  0.00  0.00    +0.000 A 
ATOM     26  C   UNL     1       1.277  11.305  18.915  0.00  0.00    +0.000 A 
ATOM     27  C   UNL     1       1.949  10.605  17.926  0.00  0.00    +0.000 A 
ATOM     28  C   UNL     1       2.168   9.233  18.062  0.00  0.00    +0.000 A 
ATOM     29  C   UNL     1       1.723   8.520  19.192  0.00  0.00    +0.000 A 
ENDBRANCH  18  29
ENDBRANCH  17  21
ENDBRANCH  16  17
ENDBRANCH   1  16
TORSDOF 5
ENDMDL
MODEL 2
REMARK VINA RESULT:      -8.6      2.865      4.860
REMARK  Name = 
REMARK  9 active torsions:
REMARK  status: ('A' for Active; 'I' for Inactive)
REMARK    1  A    between atoms: C_1  and  C_2
REMARK    2  A    between atoms: C_7  and  C_8
REMARK    3  A    between atoms: C_11  and  S_12
REMARK    4  A    between atoms: S_12  and  C_13
REMARK    5  A    between atoms: C_13  and  C_14
REMARK    6  A    between atoms: C_21  and  C_22
REMARK    7  A    between atoms: C_23  and  C_24
REMARK    8  A    between atoms: C_24  and  C_25
REMARK    9  A    between atoms: C_24  and  C_26
REMARK                            x       y       z     vdW  Elec       q    Type
REMARK                         _______ _______ _______ _____ _____    ______ ____
ROOT
ATOM      1  C   UNL     1       3.477   3.269  19.695  0.00  0.00    +0.000 A 
ATOM      2  C   UNL     1       3.152   2.113  19.068  0.00  0.00    +0.000 A 
ATOM      3  C   UNL     1       2.048   2.461  18.113  0.00  0.00    +0.000 A 
ATOM      4  O   UNL     1       0.973   1.884  18.101  0.00  0.00    +0.000 OA
ATOM      5  O   UNL     1       2.389   3.454  17.198  0.00  0.00    +0.000 OA
ATOM      6  C   UNL     1       3.631   4.078  17.423  0.00  0.00    +0.000 A 
ATOM      7  C   UNL     1       4.455   4.252  16.330  0.00  0.00    +0.000 A 
ATOM      8  C   UNL     1       5.791   4.578  16.556  0.00  0.00    +0.000 A 
ATOM      9  C   UNL     1       6.780   4.177  15.489  0.00  0.00    +0.000 C 
ATOM     10  C   UNL     1       6.189   5.104  17.815  0.00  0.00    +0.000 A 
ATOM     11  C   UNL     1       5.340   4.860  18.927  0.00  0.00    +0.000 A 
ATOM     12  C   UNL     1       4.114   4.211  18.737  0.00  0.00    +0.000 A 
ENDROOT
BRANCH  10  13
ATOM     13  C   UNL     1       7.536   5.826  17.931  0.00  0.00    +0.000 C 
ATOM     14  C   UNL     1       7.421   7.287  17.444  0.00  0.00    +0.000 C 
ATOM     15  C   UNL     1       8.168   5.858  19.326  0.00  0.00    +0.000 C 
ENDBRANCH  10  13
BRANCH   1  16
ATOM     16  C   UNL     1       2.710   3.650  20.931  0.00  0.00    +0.000 C 
BRANCH  16  17
ATOM     17  S   UNL     1       1.034   4.215  20.513  0.00  0.00    +0.000 S 
BRANCH  17  21
ATOM     18  C   UNL     1       0.922   8.043  20.853  0.00  0.00    +0.000 A 
ATOM     19  N   UNL     1       2.079   7.930  20.236  0.00  0.00    +0.000 NA
ATOM     20  N   UNL     1       2.293   6.582  20.025  0.00  0.00    +0.000 NA
ATOM     21  C   UNL     1       1.256   5.947  20.531  0.00  0.00    +0.000 A 
ATOM     22  O   UNL     1       0.334   6.813  21.065  0.00  0.00    +0.000 OA
BRANCH  18  29
ATOM     23  C   UNL     1       0.028  10.270  19.011  0.00  0.00    +0.000 C 
ATOM     24  C   UNL     1      -0.211  10.282  20.497  0.00  0.00    +0.000 A 
ATOM     25  C   UNL     1      -0.879  11.397  21.045  0.00  0.00    +0.000 A 
ATOM     26  C   UNL     1      -1.145  11.477  22.418  0.00  0.00    +0.000 A 
ATOM     27  C   UNL     1      -0.748  10.442  23.250  0.00  0.00    +0.000 A 
ATOM     28  C   UNL     1      -0.083   9.333  22.722  0.00  0.00    +0.000 A 
ATOM     29  C   UNL     1       0.202   9.225  21.348  0.00  0.00    +0.000 A 
ENDBRANCH  18  29
ENDBRANCH  17  21
ENDBRANCH  16  17
ENDBRANCH   1  16
TORSDOF 5
ENDMDL
MODEL 3
REMARK VINA RESULT:      -8.5      0.678      1.431
REMARK  Name = 
REMARK  9 active torsions:
REMARK  status: ('A' for Active; 'I' for Inactive)
REMARK    1  A    between atoms: C_1  and  C_2
REMARK    2  A    between atoms: C_7  and  C_8
REMARK    3  A    between atoms: C_11  and  S_12
REMARK    4  A    between atoms: S_12  and  C_13
REMARK    5  A    between atoms: C_13  and  C_14
REMARK    6  A    between atoms: C_21  and  C_22
REMARK    7  A    between atoms: C_23  and  C_24
REMARK    8  A    between atoms: C_24  and  C_25
REMARK    9  A    between atoms: C_24  and  C_26
REMARK                            x       y       z     vdW  Elec       q    Type
REMARK                         _______ _______ _______ _____ _____    ______ ____
ROOT
ATOM      1  C   UNL     1       4.946   4.380  16.639  0.00  0.00    +0.000 A 
ATOM      2  C   UNL     1       5.275   5.634  17.033  0.00  0.00    +0.000 A 
ATOM      3  C   UNL     1       6.649   5.530  17.626  0.00  0.00    +0.000 A 
ATOM      4  O   UNL     1       6.919   5.923  18.749  0.00  0.00    +0.000 OA
ATOM      5  O   UNL     1       7.600   5.008  16.753  0.00  0.00    +0.000 OA
ATOM      6  C   UNL     1       7.092   4.513  15.536  0.00  0.00    +0.000 A 
ATOM      7  C   UNL     1       7.760   4.873  14.384  0.00  0.00    +0.000 A 
ATOM      8  C   UNL     1       7.124   4.663  13.161  0.00  0.00    +0.000 A 
ATOM      9  C   UNL     1       7.530   5.561  12.018  0.00  0.00    +0.000 C 
ATOM     10  C   UNL     1       6.031   3.758  13.076  0.00  0.00    +0.000 A 
ATOM     11  C   UNL     1       5.337   3.453  14.277  0.00  0.00    +0.000 A 
ATOM     12  C   UNL     1       5.801   3.959  15.497  0.00  0.00    +0.000 A 
ENDROOT
BRANCH  10  13
ATOM     13  C   UNL     1       5.604   3.228  11.702  0.00  0.00    +0.000 C 
ATOM     14  C   UNL     1       6.049   1.761  11.517  0.00  0.00    +0.000 C 
ATOM     15  C   UNL     1       4.106   3.295  11.387  0.00  0.00    +0.000 C 
ENDBRANCH  10  13
BRANCH   1  16
ATOM     16  C   UNL     1       4.297   3.465  17.641  0.00  0.00    +0.000 C 
BRANCH  16  17
ATOM     17  S   UNL     1       2.493   3.680  17.652  0.00  0.00    +0.000 S 
BRANCH  17  21
ATOM     18  C   UNL     1       1.904   6.660  20.009  0.00  0.00    +0.000 A 
ATOM     19  N   UNL     1       2.291   5.772  20.901  0.00  0.00    +0.000 NA
ATOM     20  N   UNL     1       2.553   4.603  20.217  0.00  0.00    +0.000 NA
ATOM     21  C   UNL     1       2.307   4.840  18.945  0.00  0.00    +0.000 A 
ATOM     22  O   UNL     1       1.900   6.134  18.734  0.00  0.00    +0.000 OA
BRANCH  18  29
ATOM     23  C   UNL     1       2.161   8.675  17.767  0.00  0.00    +0.000 C 
ATOM     24  C   UNL     1       1.601   9.015  19.122  0.00  0.00    +0.000 A 
ATOM     25  C   UNL     1       1.186  10.344  19.346  0.00  0.00    +0.000 A 
ATOM     26  C   UNL     1       0.648  10.736  20.578  0.00  0.00    +0.000 A 
ATOM     27  C   UNL     1       0.517   9.801  21.592  0.00  0.00    +0.000 A 
ATOM     28  C   UNL     1       0.925   8.481  21.387  0.00  0.00    +0.000 A 
ATOM     29  C   UNL     1       1.474   8.058  20.161  0.00  0.00    +0.000 A 
ENDBRANCH  18  29
ENDBRANCH  17  21
ENDBRANCH  16  17
ENDBRANCH   1  16
TORSDOF 5
ENDMDL
MODEL 4
REMARK VINA RESULT:      -8.5      4.750      7.433
REMARK  Name = 
REMARK  9 active torsions:
REMARK  status: ('A' for Active; 'I' for Inactive)
REMARK    1  A    between atoms: C_1  and  C_2
REMARK    2  A    between atoms: C_7  and  C_8
REMARK    3  A    between atoms: C_11  and  S_12
REMARK    4  A    between atoms: S_12  and  C_13
REMARK    5  A    between atoms: C_13  and  C_14
REMARK    6  A    between atoms: C_21  and  C_22
REMARK    7  A    between atoms: C_23  and  C_24
REMARK    8  A    between atoms: C_24  and  C_25
REMARK    9  A    between atoms: C_24  and  C_26
REMARK                            x       y       z     vdW  Elec       q    Type
REMARK                         _______ _______ _______ _____ _____    ______ ____
ROOT
ATOM      1  C   UNL     1       6.033   5.452  17.056  0.00  0.00    +0.000 A 
ATOM      2  C   UNL     1       5.538   5.654  15.812  0.00  0.00    +0.000 A 
ATOM      3  C   UNL     1       5.690   4.346  15.093  0.00  0.00    +0.000 A 
ATOM      4  O   UNL     1       6.266   4.238  14.023  0.00  0.00    +0.000 OA
ATOM      5  O   UNL     1       5.052   3.281  15.724  0.00  0.00    +0.000 OA
ATOM      6  C   UNL     1       4.523   3.566  16.998  0.00  0.00    +0.000 A 
ATOM      7  C   UNL     1       3.243   3.124  17.261  0.00  0.00    +0.000 A 
ATOM      8  C   UNL     1       2.582   3.642  18.373  0.00  0.00    +0.000 A 
ATOM      9  C   UNL     1       1.074   3.657  18.325  0.00  0.00    +0.000 C 
ATOM     10  C   UNL     1       3.324   4.273  19.408  0.00  0.00    +0.000 A 
ATOM     11  C   UNL     1       4.618   4.761  19.084  0.00  0.00    +0.000 A 
ATOM     12  C   UNL     1       5.154   4.521  17.813  0.00  0.00    +0.000 A 
ENDROOT
BRANCH  10  13
ATOM     13  C   UNL     1       2.671   4.473  20.781  0.00  0.00    +0.000 C 
ATOM     14  C   UNL     1       1.641   5.622  20.739  0.00  0.00    +0.000 C 
ATOM     15  C   UNL     1       1.968   3.250  21.379  0.00  0.00    +0.000 C 
ENDBRANCH  10  13
BRANCH   1  16
ATOM     16  C   UNL     1       7.507   5.654  17.280  0.00  0.00    +0.000 C 
BRANCH  16  17
ATOM     17  S   UNL     1       7.827   6.395  18.908  0.00  0.00    +0.000 S 
BRANCH  17  21
ATOM     18  C   UNL     1       9.016  10.015  18.397  0.00  0.00    +0.000 A 
ATOM     19  N   UNL     1       8.058   9.990  17.494  0.00  0.00    +0.000 NA
ATOM     20  N   UNL     1       7.501   8.728  17.535  0.00  0.00    +0.000 NA
ATOM     21  C   UNL     1       8.153   8.051  18.458  0.00  0.00    +0.000 A 
ATOM     22  O   UNL     1       9.126   8.810  19.059  0.00  0.00    +0.000 OA
BRANCH  18  29
ATOM     23  C   UNL     1       9.143  11.129  21.206  0.00  0.00    +0.000 C 
ATOM     24  C   UNL     1      10.019  11.617  20.085  0.00  0.00    +0.000 A 
ATOM     25  C   UNL     1      10.936  12.652  20.371  0.00  0.00    +0.000 A 
ATOM     26  C   UNL     1      11.790  13.154  19.381  0.00  0.00    +0.000 A 
ATOM     27  C   UNL     1      11.736  12.624  18.102  0.00  0.00    +0.000 A 
ATOM     28  C   UNL     1      10.833  11.602  17.803  0.00  0.00    +0.000 A 
ATOM     29  C   UNL     1       9.959  11.078  18.775  0.00  0.00    +0.000 A 
ENDBRANCH  18  29
ENDBRANCH  17  21
ENDBRANCH  16  17
ENDBRANCH   1  16
TORSDOF 5
ENDMDL
MODEL 5
REMARK VINA RESULT:      -8.4      3.767      5.783
REMARK  Name = 
REMARK  9 active torsions:
REMARK  status: ('A' for Active; 'I' for Inactive)
REMARK    1  A    between atoms: C_1  and  C_2
REMARK    2  A    between atoms: C_7  and  C_8
REMARK    3  A    between atoms: C_11  and  S_12
REMARK    4  A    between atoms: S_12  and  C_13
REMARK    5  A    between atoms: C_13  and  C_14
REMARK    6  A    between atoms: C_21  and  C_22
REMARK    7  A    between atoms: C_23  and  C_24
REMARK    8  A    between atoms: C_24  and  C_25
REMARK    9  A    between atoms: C_24  and  C_26
REMARK                            x       y       z     vdW  Elec       q    Type
REMARK                         _______ _______ _______ _____ _____    ______ ____
ROOT
ATOM      1  C   UNL     1       3.582   6.651  17.542  0.00  0.00    +0.000 A 
ATOM      2  C   UNL     1       4.559   6.456  16.623  0.00  0.00    +0.000 A 
ATOM      3  C   UNL     1       5.852   6.715  17.339  0.00  0.00    +0.000 A 
ATOM      4  O   UNL     1       6.685   7.512  16.940  0.00  0.00    +0.000 OA
ATOM      5  O   UNL     1       6.044   5.911  18.460  0.00  0.00    +0.000 OA
ATOM      6  C   UNL     1       4.938   5.122  18.831  0.00  0.00    +0.000 A 
ATOM      7  C   UNL     1       5.185   3.799  19.137  0.00  0.00    +0.000 A 
ATOM      8  C   UNL     1       4.101   2.926  19.208  0.00  0.00    +0.000 A 
ATOM      9  C   UNL     1       4.380   1.469  18.932  0.00  0.00    +0.000 C 
ATOM     10  C   UNL     1       2.785   3.440  19.362  0.00  0.00    +0.000 A 
ATOM     11  C   UNL     1       2.560   4.792  18.988  0.00  0.00    +0.000 A 
ATOM     12  C   UNL     1       3.637   5.590  18.582  0.00  0.00    +0.000 A 
ENDROOT
BRANCH  10  13
ATOM     13  C   UNL     1       1.667   2.505  19.838  0.00  0.00    +0.000 C 
ATOM     14  C   UNL     1       1.214   2.871  21.268  0.00  0.00    +0.000 C 
ATOM     15  C   UNL     1       0.412   2.450  18.961  0.00  0.00    +0.000 C 
ENDBRANCH  10  13
BRANCH   1  16
ATOM     16  C   UNL     1       3.046   8.044  17.727  0.00  0.00    +0.000 C 
BRANCH  16  17
ATOM     17  S   UNL     1       2.119   8.186  19.284  0.00  0.00    +0.000 S 
BRANCH  17  21
ATOM     18  C   UNL     1      -0.613  10.684  18.247  0.00  0.00    +0.000 A 
ATOM     19  N   UNL     1       0.276  11.539  18.709  0.00  0.00    +0.000 NA
ATOM     20  N   UNL     1       1.359  10.799  19.139  0.00  0.00    +0.000 NA
ATOM     21  C   UNL     1       1.068   9.533  18.921  0.00  0.00    +0.000 A 
ATOM     22  O   UNL     1      -0.167   9.382  18.344  0.00  0.00    +0.000 OA
BRANCH  18  29
ATOM     23  C   UNL     1      -2.746  12.234  19.730  0.00  0.00    +0.000 C 
ATOM     24  C   UNL     1      -2.970  11.608  18.381  0.00  0.00    +0.000 A 
ATOM     25  C   UNL     1      -4.244  11.751  17.793  0.00  0.00    +0.000 A 
ATOM     26  C   UNL     1      -4.527  11.203  16.536  0.00  0.00    +0.000 A 
ATOM     27  C   UNL     1      -3.537  10.511  15.857  0.00  0.00    +0.000 A 
ATOM     28  C   UNL     1      -2.271  10.358  16.426  0.00  0.00    +0.000 A 
ATOM     29  C   UNL     1      -1.958  10.894  17.690  0.00  0.00    +0.000 A 
ENDBRANCH  18  29
ENDBRANCH  17  21
ENDBRANCH  16  17
ENDBRANCH   1  16
TORSDOF 5
ENDMDL
MODEL 6
REMARK VINA RESULT:      -8.4      3.832      5.871
REMARK  Name = 
REMARK  9 active torsions:
REMARK  status: ('A' for Active; 'I' for Inactive)
REMARK    1  A    between atoms: C_1  and  C_2
REMARK    2  A    between atoms: C_7  and  C_8
REMARK    3  A    between atoms: C_11  and  S_12
REMARK    4  A    between atoms: S_12  and  C_13
REMARK    5  A    between atoms: C_13  and  C_14
REMARK    6  A    between atoms: C_21  and  C_22
REMARK    7  A    between atoms: C_23  and  C_24
REMARK    8  A    between atoms: C_24  and  C_25
REMARK    9  A    between atoms: C_24  and  C_26
REMARK                            x       y       z     vdW  Elec       q    Type
REMARK                         _______ _______ _______ _____ _____    ______ ____
ROOT
ATOM      1  C   UNL     1       3.545   6.748  17.641  0.00  0.00    +0.000 A 
ATOM      2  C   UNL     1       4.493   6.575  16.689  0.00  0.00    +0.000 A 
ATOM      3  C   UNL     1       5.809   6.795  17.376  0.00  0.00    +0.000 A 
ATOM      4  O   UNL     1       6.639   7.597  16.981  0.00  0.00    +0.000 OA
ATOM      5  O   UNL     1       6.023   5.951  18.463  0.00  0.00    +0.000 OA
ATOM      6  C   UNL     1       4.919   5.161  18.838  0.00  0.00    +0.000 A 
ATOM      7  C   UNL     1       5.159   3.826  19.091  0.00  0.00    +0.000 A 
ATOM      8  C   UNL     1       4.067   2.962  19.162  0.00  0.00    +0.000 A 
ATOM      9  C   UNL     1       4.322   1.512  18.829  0.00  0.00    +0.000 C 
ATOM     10  C   UNL     1       2.762   3.485  19.372  0.00  0.00    +0.000 A 
ATOM     11  C   UNL     1       2.542   4.850  19.051  0.00  0.00    +0.000 A 
ATOM     12  C   UNL     1       3.616   5.651  18.643  0.00  0.00    +0.000 A 
ENDROOT
BRANCH  10  13
ATOM     13  C   UNL     1       1.648   2.545  19.847  0.00  0.00    +0.000 C 
ATOM     14  C   UNL     1       1.173   2.927  21.265  0.00  0.00    +0.000 C 
ATOM     15  C   UNL     1       0.405   2.465  18.954  0.00  0.00    +0.000 C 
ENDBRANCH  10  13
BRANCH   1  16
ATOM     16  C   UNL     1       3.029   8.139  17.890  0.00  0.00    +0.000 C 
BRANCH  16  17
ATOM     17  S   UNL     1       1.996   8.197  19.384  0.00  0.00    +0.000 S 
BRANCH  17  21
ATOM     18  C   UNL     1      -0.590  11.000  18.903  0.00  0.00    +0.000 A 
ATOM     19  N   UNL     1       0.490  11.658  18.536  0.00  0.00    +0.000 NA
ATOM     20  N   UNL     1       1.551  10.783  18.648  0.00  0.00    +0.000 NA
ATOM     21  C   UNL     1       1.061   9.641  19.083  0.00  0.00    +0.000 A 
ATOM     22  O   UNL     1      -0.299   9.699  19.257  0.00  0.00    +0.000 OA
BRANCH  18  29
ATOM     23  C   UNL     1      -2.705  10.081  16.945  0.00  0.00    +0.000 C 
ATOM     24  C   UNL     1      -2.991  11.014  18.090  0.00  0.00    +0.000 A 
ATOM     25  C   UNL     1      -4.313  11.482  18.241  0.00  0.00    +0.000 A 
ATOM     26  C   UNL     1      -4.658  12.347  19.287  0.00  0.00    +0.000 A 
ATOM     27  C   UNL     1      -3.686  12.747  20.190  0.00  0.00    +0.000 A 
ATOM     28  C   UNL     1      -2.372  12.294  20.052  0.00  0.00    +0.000 A 
ATOM     29  C   UNL     1      -1.993  11.428  19.009  0.00  0.00    +0.000 A 
ENDBRANCH  18  29
ENDBRANCH  17  21
ENDBRANCH  16  17
ENDBRANCH   1  16
TORSDOF 5
ENDMDL
MODEL 7
REMARK VINA RESULT:      -8.3      3.763      5.658
REMARK  Name = 
REMARK  9 active torsions:
REMARK  status: ('A' for Active; 'I' for Inactive)
REMARK    1  A    between atoms: C_1  and  C_2
REMARK    2  A    between atoms: C_7  and  C_8
REMARK    3  A    between atoms: C_11  and  S_12
REMARK    4  A    between atoms: S_12  and  C_13
REMARK    5  A    between atoms: C_13  and  C_14
REMARK    6  A    between atoms: C_21  and  C_22
REMARK    7  A    between atoms: C_23  and  C_24
REMARK    8  A    between atoms: C_24  and  C_25
REMARK    9  A    between atoms: C_24  and  C_26
REMARK                            x       y       z     vdW  Elec       q    Type
REMARK                         _______ _______ _______ _____ _____    ______ ____
ROOT
ATOM      1  C   UNL     1       3.707   6.755  17.606  0.00  0.00    +0.000 A 
ATOM      2  C   UNL     1       4.668   6.531  16.677  0.00  0.00    +0.000 A 
ATOM      3  C   UNL     1       5.976   6.736  17.382  0.00  0.00    +0.000 A 
ATOM      4  O   UNL     1       6.834   7.505  16.981  0.00  0.00    +0.000 OA
ATOM      5  O   UNL     1       6.148   5.918  18.496  0.00  0.00    +0.000 OA
ATOM      6  C   UNL     1       5.017   5.167  18.871  0.00  0.00    +0.000 A 
ATOM      7  C   UNL     1       5.217   3.834  19.165  0.00  0.00    +0.000 A 
ATOM      8  C   UNL     1       4.102   3.001  19.239  0.00  0.00    +0.000 A 
ATOM      9  C   UNL     1       4.325   1.536  18.950  0.00  0.00    +0.000 C 
ATOM     10  C   UNL     1       2.808   3.562  19.410  0.00  0.00    +0.000 A 
ATOM     11  C   UNL     1       2.630   4.924  19.047  0.00  0.00    +0.000 A 
ATOM     12  C   UNL     1       3.732   5.684  18.638  0.00  0.00    +0.000 A 
ENDROOT
BRANCH  10  13
ATOM     13  C   UNL     1       1.661   2.665  19.889  0.00  0.00    +0.000 C 
ATOM     14  C   UNL     1       1.220   3.051  21.318  0.00  0.00    +0.000 C 
ATOM     15  C   UNL     1       0.405   2.647  19.012  0.00  0.00    +0.000 C 
ENDBRANCH  10  13
BRANCH   1  16
ATOM     16  C   UNL     1       3.224   8.165  17.807  0.00  0.00    +0.000 C 
BRANCH  16  17
ATOM     17  S   UNL     1       1.412   8.256  17.709  0.00  0.00    +0.000 S 
BRANCH  17  21
ATOM     18  C   UNL     1       0.202  11.060  20.045  0.00  0.00    +0.000 A 
ATOM     19  N   UNL     1       1.237  11.675  19.513  0.00  0.00    +0.000 NA
ATOM     20  N   UNL     1       1.814  10.793  18.622  0.00  0.00    +0.000 NA
ATOM     21  C   UNL     1       1.101   9.686  18.663  0.00  0.00    +0.000 A 
ATOM     22  O   UNL     1       0.049   9.786  19.539  0.00  0.00    +0.000 OA
BRANCH  18  29
ATOM     23  C   UNL     1       0.095   9.807  22.796  0.00  0.00    +0.000 C 
ATOM     24  C   UNL     1      -0.830  10.909  22.355  0.00  0.00    +0.000 A 
ATOM     25  C   UNL     1      -1.795  11.365  23.277  0.00  0.00    +0.000 A 
ATOM     26  C   UNL     1      -2.687  12.392  22.943  0.00  0.00    +0.000 A 
ATOM     27  C   UNL     1      -2.617  12.971  21.686  0.00  0.00    +0.000 A 
ATOM     28  C   UNL     1      -1.669  12.530  20.761  0.00  0.00    +0.000 A 
ATOM     29  C   UNL     1      -0.762  11.497  21.066  0.00  0.00    +0.000 A 
ENDBRANCH  18  29
ENDBRANCH  17  21
ENDBRANCH  16  17
ENDBRANCH   1  16
TORSDOF 5
ENDMDL
MODEL 8
REMARK VINA RESULT:      -8.3      3.594      5.542
REMARK  Name = 
REMARK  9 active torsions:
REMARK  status: ('A' for Active; 'I' for Inactive)
REMARK    1  A    between atoms: C_1  and  C_2
REMARK    2  A    between atoms: C_7  and  C_8
REMARK    3  A    between atoms: C_11  and  S_12
REMARK    4  A    between atoms: S_12  and  C_13
REMARK    5  A    between atoms: C_13  and  C_14
REMARK    6  A    between atoms: C_21  and  C_22
REMARK    7  A    between atoms: C_23  and  C_24
REMARK    8  A    between atoms: C_24  and  C_25
REMARK    9  A    between atoms: C_24  and  C_26
REMARK                            x       y       z     vdW  Elec       q    Type
REMARK                         _______ _______ _______ _____ _____    ______ ____
ROOT
ATOM      1  C   UNL     1       3.758   6.827  17.626  0.00  0.00    +0.000 A 
ATOM      2  C   UNL     1       4.675   6.610  16.652  0.00  0.00    +0.000 A 
ATOM      3  C   UNL     1       6.015   6.736  17.315  0.00  0.00    +0.000 A 
ATOM      4  O   UNL     1       6.886   7.490  16.915  0.00  0.00    +0.000 OA
ATOM      5  O   UNL     1       6.197   5.862  18.384  0.00  0.00    +0.000 OA
ATOM      6  C   UNL     1       5.053   5.137  18.770  0.00  0.00    +0.000 A 
ATOM      7  C   UNL     1       5.213   3.785  18.998  0.00  0.00    +0.000 A 
ATOM      8  C   UNL     1       4.070   2.991  19.079  0.00  0.00    +0.000 A 
ATOM      9  C   UNL     1       4.226   1.534  18.718  0.00  0.00    +0.000 C 
ATOM     10  C   UNL     1       2.806   3.591  19.323  0.00  0.00    +0.000 A 
ATOM     11  C   UNL     1       2.666   4.973  19.028  0.00  0.00    +0.000 A 
ATOM     12  C   UNL     1       3.780   5.711  18.610  0.00  0.00    +0.000 A 
ENDROOT
BRANCH  10  13
ATOM     13  C   UNL     1       1.644   2.715  19.807  0.00  0.00    +0.000 C 
ATOM     14  C   UNL     1       1.240   3.085  21.251  0.00  0.00    +0.000 C 
ATOM     15  C   UNL     1       0.371   2.749  18.954  0.00  0.00    +0.000 C 
ENDBRANCH  10  13
BRANCH   1  16
ATOM     16  C   UNL     1       3.337   8.243  17.907  0.00  0.00    +0.000 C 
BRANCH  16  17
ATOM     17  S   UNL     1       1.527   8.403  17.888  0.00  0.00    +0.000 S 
BRANCH  17  21
ATOM     18  C   UNL     1       0.553  10.170  21.161  0.00  0.00    +0.000 A 
ATOM     19  N   UNL     1       1.218   9.155  21.672  0.00  0.00    +0.000 NA
ATOM     20  N   UNL     1       1.656   8.388  20.611  0.00  0.00    +0.000 NA
ATOM     21  C   UNL     1       1.229   8.975  19.512  0.00  0.00    +0.000 A 
ATOM     22  O   UNL     1       0.529  10.123  19.783  0.00  0.00    +0.000 OA
BRANCH  18  29
ATOM     23  C   UNL     1       1.356  13.054  20.728  0.00  0.00    +0.000 C 
ATOM     24  C   UNL     1       0.220  12.640  21.623  0.00  0.00    +0.000 A 
ATOM     25  C   UNL     1      -0.493  13.657  22.293  0.00  0.00    +0.000 A 
ATOM     26  C   UNL     1      -1.568  13.350  23.138  0.00  0.00    +0.000 A 
ATOM     27  C   UNL     1      -1.939  12.027  23.314  0.00  0.00    +0.000 A 
ATOM     28  C   UNL     1      -1.243  11.009  22.659  0.00  0.00    +0.000 A 
ATOM     29  C   UNL     1      -0.155  11.285  21.808  0.00  0.00    +0.000 A 
ENDBRANCH  18  29
ENDBRANCH  17  21
ENDBRANCH  16  17
ENDBRANCH   1  16
TORSDOF 5
ENDMDL
MODEL 9
REMARK VINA RESULT:      -8.2      8.658     11.809
REMARK  Name = 
REMARK  9 active torsions:
REMARK  status: ('A' for Active; 'I' for Inactive)
REMARK    1  A    between atoms: C_1  and  C_2
REMARK    2  A    between atoms: C_7  and  C_8
REMARK    3  A    between atoms: C_11  and  S_12
REMARK    4  A    between atoms: S_12  and  C_13
REMARK    5  A    between atoms: C_13  and  C_14
REMARK    6  A    between atoms: C_21  and  C_22
REMARK    7  A    between atoms: C_23  and  C_24
REMARK    8  A    between atoms: C_24  and  C_25
REMARK    9  A    between atoms: C_24  and  C_26
REMARK                            x       y       z     vdW  Elec       q    Type
REMARK                         _______ _______ _______ _____ _____    ______ ____
ROOT
ATOM      1  C   UNL     1      -2.513  11.197  17.798  0.00  0.00    +0.000 A 
ATOM      2  C   UNL     1      -2.308  11.653  16.539  0.00  0.00    +0.000 A 
ATOM      3  C   UNL     1      -3.150  10.789  15.647  0.00  0.00    +0.000 A 
ATOM      4  O   UNL     1      -2.698  10.185  14.689  0.00  0.00    +0.000 OA
ATOM      5  O   UNL     1      -4.504  10.795  15.973  0.00  0.00    +0.000 OA
ATOM      6  C   UNL     1      -4.831  11.464  17.169  0.00  0.00    +0.000 A 
ATOM      7  C   UNL     1      -5.909  12.324  17.133  0.00  0.00    +0.000 A 
ATOM      8  C   UNL     1      -6.073  13.220  18.188  0.00  0.00    +0.000 A 
ATOM      9  C   UNL     1      -6.816  14.499  17.888  0.00  0.00    +0.000 C 
ATOM     10  C   UNL     1      -5.413  12.987  19.425  0.00  0.00    +0.000 A 
ATOM     11  C   UNL     1      -4.276  12.136  19.412  0.00  0.00    +0.000 A 
ATOM     12  C   UNL     1      -3.908  11.485  18.228  0.00  0.00    +0.000 A 
ENDROOT
BRANCH  10  13
ATOM     13  C   UNL     1      -5.897  13.721  20.681  0.00  0.00    +0.000 C 
ATOM     14  C   UNL     1      -6.359  12.717  21.760  0.00  0.00    +0.000 C 
ATOM     15  C   UNL     1      -4.891  14.670  21.340  0.00  0.00    +0.000 C 
ENDBRANCH  10  13
BRANCH   1  16
ATOM     16  C   UNL     1      -1.649  10.072  18.299  0.00  0.00    +0.000 C 
BRANCH  16  17
ATOM     17  S   UNL     1      -0.011  10.679  18.801  0.00  0.00    +0.000 S 
BRANCH  17  21
ATOM     18  C   UNL     1      -1.058  11.817  22.321  0.00  0.00    +0.000 A 
ATOM     19  N   UNL     1      -0.138  10.938  22.660  0.00  0.00    +0.000 NA
ATOM     20  N   UNL     1       0.364  10.410  21.487  0.00  0.00    +0.000 NA
ATOM     21  C   UNL     1      -0.282  10.992  20.498  0.00  0.00    +0.000 A 
ATOM     22  O   UNL     1      -1.196  11.910  20.951  0.00  0.00    +0.000 OA
BRANCH  18  29
ATOM     23  C   UNL     1      -0.425  14.718  22.899  0.00  0.00    +0.000 C 
ATOM     24  C   UNL     1      -1.645  14.018  23.432  0.00  0.00    +0.000 A 
ATOM     25  C   UNL     1      -2.525  14.762  24.246  0.00  0.00    +0.000 A 
ATOM     26  C   UNL     1      -3.686  14.182  24.773  0.00  0.00    +0.000 A 
ATOM     27  C   UNL     1      -3.977  12.858  24.487  0.00  0.00    +0.000 A 
ATOM     28  C   UNL     1      -3.115  12.108  23.684  0.00  0.00    +0.000 A 
ATOM     29  C   UNL     1      -1.938  12.661  23.143  0.00  0.00    +0.000 A 
ENDBRANCH  18  29
ENDBRANCH  17  21
ENDBRANCH  16  17
ENDBRANCH   1  16
TORSDOF 5
ENDMDL
