MODEL 1
REMARK VINA RESULT:      -9.1      0.000      0.000
REMARK  Name = 
REMARK  8 active torsions:
REMARK  status: ('A' for Active; 'I' for Inactive)
REMARK    1  A    between atoms: C_1  and  C_2
REMARK    2  A    between atoms: C_2  and  C_3
REMARK    3  A    between atoms: C_7  and  C_8
REMARK    4  A    between atoms: N_14  and  C_15
REMARK    5  A    between atoms: C_18  and  C_19
REMARK    6  A    between atoms: C_19  and  C_20
REMARK    7  A    between atoms: C_20  and  C_21
REMARK    8  A    between atoms: N_25  and  C_26
REMARK                            x       y       z     vdW  Elec       q    Type
REMARK                         _______ _______ _______ _____ _____    ______ ____
ROOT
ATOM      1  C   UNL     1       0.224  11.879  19.601  0.00  0.00    +0.000 A 
ATOM      2  C   UNL     1       0.885  11.056  18.684  0.00  0.00    +0.000 A 
ATOM      3  C   UNL     1       1.204   9.770  19.082  0.00  0.00    +0.000 A 
ATOM      4  C   UNL     1       0.899   9.270  20.342  0.00  0.00    +0.000 A 
ATOM      5  C   UNL     1       0.238  10.064  21.275  0.00  0.00    +0.000 A 
ATOM      6  C   UNL     1      -0.099  11.377  20.883  0.00  0.00    +0.000 A 
ATOM      7  C   UNL     1       1.412   7.872  20.448  0.00  0.00    +0.000 C 
ATOM      8  N   UNL     1       2.071   7.631  19.165  0.00  0.00    +0.000 N 
ATOM      9  C   UNL     1       1.924   8.743  18.324  0.00  0.00    +0.000 C 
ATOM     10  O   UNL     1       2.289   8.938  17.178  0.00  0.00    +0.000 OA
ENDROOT
BRANCH   8  11
ATOM     11  C   UNL     1       2.726   6.437  18.859  0.00  0.00    +0.000 C 
ATOM     12  C   UNL     1       2.292   5.632  17.864  0.00  0.00    +0.000 C 
ATOM     13  C   UNL     1       2.917   4.324  17.460  0.00  0.00    +0.000 C 
ATOM     14  C   UNL     1       4.373   4.480  17.068  0.00  0.00    +0.000 C 
ATOM     15  C   UNL     1       5.280   4.969  17.937  0.00  0.00    +0.000 C 
ATOM     16  C   UNL     1       4.971   5.381  19.288  0.00  0.00    +0.000 C 
ATOM     17  C   UNL     1       3.863   6.030  19.685  0.00  0.00    +0.000 C 
BRANCH  14  18
ATOM     18  C   UNL     1       4.740   4.154  15.633  0.00  0.00    +0.000 C 
BRANCH  18  19
ATOM     19  C   UNL     1       6.162   3.612  15.452  0.00  0.00    +0.000 C 
BRANCH  19  20
ATOM     20  C   UNL     1       6.887   4.343  14.372  0.00  0.00    +0.000 A 
ATOM     21  N   UNL     1       7.782   5.294  14.557  0.00  0.00    +0.000 NA
ATOM     22  N   UNL     1       8.212   5.728  13.325  0.00  0.00    +0.000 NA
ATOM     23  C   UNL     1       7.573   5.034  12.414  0.00  0.00    +0.000 A 
ATOM     24  N   UNL     1       6.737   4.148  13.023  0.00  0.00    +0.000 N 
ATOM     25  C   UNL     1       5.881   3.208  12.350  0.00  0.00    +0.000 C 
ENDBRANCH  19  20
ENDBRANCH  18  19
ENDBRANCH  14  18
ENDBRANCH   8  11
BRANCH   5  26
ATOM     26  C   UNL     1      -0.100   9.589  22.665  0.00  0.00    +0.000 C 
ATOM     27  F   UNL     1       0.992   9.250  23.406  0.00  0.00    +0.000 F 
ATOM     28  F   UNL     1      -0.760  10.533  23.388  0.00  0.00    +0.000 F 
ATOM     29  F   UNL     1      -0.900   8.490  22.660  0.00  0.00    +0.000 F 
ENDBRANCH   5  26
BRANCH   1  31
ATOM     30  C   UNL     1       0.135  14.225  20.448  0.00  0.00    +0.000 C 
ATOM     31  C   UNL     1      -0.072  13.314  19.246  0.00  0.00    +0.000 C 
ENDBRANCH   1  31
TORSDOF 6
ENDMDL
MODEL 2
REMARK VINA RESULT:      -8.6      1.774      2.605
REMARK  Name = 
REMARK  8 active torsions:
REMARK  status: ('A' for Active; 'I' for Inactive)
REMARK    1  A    between atoms: C_1  and  C_2
REMARK    2  A    between atoms: C_2  and  C_3
REMARK    3  A    between atoms: C_7  and  C_8
REMARK    4  A    between atoms: N_14  and  C_15
REMARK    5  A    between atoms: C_18  and  C_19
REMARK    6  A    between atoms: C_19  and  C_20
REMARK    7  A    between atoms: C_20  and  C_21
REMARK    8  A    between atoms: N_25  and  C_26
REMARK                            x       y       z     vdW  Elec       q    Type
REMARK                         _______ _______ _______ _____ _____    ______ ____
ROOT
ATOM      1  C   UNL     1       0.586  11.979  19.822  0.00  0.00    +0.000 A 
ATOM      2  C   UNL     1       1.172  11.095  18.911  0.00  0.00    +0.000 A 
ATOM      3  C   UNL     1       1.314   9.773  19.291  0.00  0.00    +0.000 A 
ATOM      4  C   UNL     1       0.905   9.294  20.529  0.00  0.00    +0.000 A 
ATOM      5  C   UNL     1       0.314  10.148  21.457  0.00  0.00    +0.000 A 
ATOM      6  C   UNL     1       0.158  11.499  21.082  0.00  0.00    +0.000 A 
ATOM      7  C   UNL     1       1.235   7.840  20.622  0.00  0.00    +0.000 C 
ATOM      8  N   UNL     1       1.904   7.541  19.356  0.00  0.00    +0.000 N 
ATOM      9  C   UNL     1       1.927   8.677  18.535  0.00  0.00    +0.000 C 
ATOM     10  O   UNL     1       2.354   8.844  17.407  0.00  0.00    +0.000 OA
ENDROOT
BRANCH   8  11
ATOM     11  C   UNL     1       2.416   6.280  19.047  0.00  0.00    +0.000 C 
ATOM     12  C   UNL     1       2.493   5.847  17.769  0.00  0.00    +0.000 C 
ATOM     13  C   UNL     1       3.018   4.507  17.328  0.00  0.00    +0.000 C 
ATOM     14  C   UNL     1       4.445   4.271  17.783  0.00  0.00    +0.000 C 
ATOM     15  C   UNL     1       4.771   4.284  19.091  0.00  0.00    +0.000 C 
ATOM     16  C   UNL     1       3.826   4.517  20.161  0.00  0.00    +0.000 C 
ATOM     17  C   UNL     1       2.809   5.395  20.143  0.00  0.00    +0.000 C 
BRANCH  14  18
ATOM     18  C   UNL     1       5.497   4.116  16.702  0.00  0.00    +0.000 C 
BRANCH  18  19
ATOM     19  C   UNL     1       6.938   4.279  17.196  0.00  0.00    +0.000 C 
BRANCH  19  20
ATOM     20  C   UNL     1       7.298   5.718  17.352  0.00  0.00    +0.000 A 
ATOM     21  N   UNL     1       7.230   6.633  16.405  0.00  0.00    +0.000 NA
ATOM     22  N   UNL     1       7.656   7.831  16.929  0.00  0.00    +0.000 NA
ATOM     23  C   UNL     1       7.976   7.624  18.184  0.00  0.00    +0.000 A 
ATOM     24  N   UNL     1       7.761   6.316  18.496  0.00  0.00    +0.000 N 
ATOM     25  C   UNL     1       7.986   5.716  19.784  0.00  0.00    +0.000 C 
ENDBRANCH  19  20
ENDBRANCH  18  19
ENDBRANCH  14  18
ENDBRANCH   8  11
BRANCH   5  26
ATOM     26  C   UNL     1      -0.129   9.695  22.824  0.00  0.00    +0.000 C 
ATOM     27  F   UNL     1      -0.844  10.633  23.504  0.00  0.00    +0.000 F 
ATOM     28  F   UNL     1      -0.923   8.590  22.771  0.00  0.00    +0.000 F 
ATOM     29  F   UNL     1       0.916   9.369  23.630  0.00  0.00    +0.000 F 
ENDBRANCH   5  26
BRANCH   1  31
ATOM     30  C   UNL     1      -0.402  13.667  18.272  0.00  0.00    +0.000 C 
ATOM     31  C   UNL     1       0.484  13.446  19.489  0.00  0.00    +0.000 C 
ENDBRANCH   1  31
TORSDOF 6
ENDMDL
MODEL 3
REMARK VINA RESULT:      -8.6      1.169      1.783
REMARK  Name = 
REMARK  8 active torsions:
REMARK  status: ('A' for Active; 'I' for Inactive)
REMARK    1  A    between atoms: C_1  and  C_2
REMARK    2  A    between atoms: C_2  and  C_3
REMARK    3  A    between atoms: C_7  and  C_8
REMARK    4  A    between atoms: N_14  and  C_15
REMARK    5  A    between atoms: C_18  and  C_19
REMARK    6  A    between atoms: C_19  and  C_20
REMARK    7  A    between atoms: C_20  and  C_21
REMARK    8  A    between atoms: N_25  and  C_26
REMARK                            x       y       z     vdW  Elec       q    Type
REMARK                         _______ _______ _______ _____ _____    ______ ____
ROOT
ATOM      1  C   UNL     1      -0.324  12.484  20.198  0.00  0.00    +0.000 A 
ATOM      2  C   UNL     1       0.427  11.852  19.201  0.00  0.00    +0.000 A 
ATOM      3  C   UNL     1       0.833  10.549  19.425  0.00  0.00    +0.000 A 
ATOM      4  C   UNL     1       0.531   9.852  20.589  0.00  0.00    +0.000 A 
ATOM      5  C   UNL     1      -0.218  10.452  21.597  0.00  0.00    +0.000 A 
ATOM      6  C   UNL     1      -0.645  11.780  21.382  0.00  0.00    +0.000 A 
ATOM      7  C   UNL     1       1.148   8.494  20.517  0.00  0.00    +0.000 C 
ATOM      8  N   UNL     1       1.862   8.489  19.240  0.00  0.00    +0.000 N 
ATOM      9  C   UNL     1       1.653   9.698  18.560  0.00  0.00    +0.000 C 
ATOM     10  O   UNL     1       2.036  10.081  17.469  0.00  0.00    +0.000 OA
ENDROOT
BRANCH   8  11
ATOM     11  C   UNL     1       2.617   7.403  18.795  0.00  0.00    +0.000 C 
ATOM     12  C   UNL     1       3.458   7.515  17.743  0.00  0.00    +0.000 C 
ATOM     13  C   UNL     1       4.308   6.409  17.180  0.00  0.00    +0.000 C 
ATOM     14  C   UNL     1       5.244   5.819  18.215  0.00  0.00    +0.000 C 
ATOM     15  C   UNL     1       4.769   5.260  19.347  0.00  0.00    +0.000 C 
ATOM     16  C   UNL     1       3.365   5.168  19.680  0.00  0.00    +0.000 C 
ATOM     17  C   UNL     1       2.432   6.107  19.448  0.00  0.00    +0.000 C 
BRANCH  14  18
ATOM     18  C   UNL     1       6.732   5.971  17.967  0.00  0.00    +0.000 C 
BRANCH  18  19
ATOM     19  C   UNL     1       7.396   4.745  17.331  0.00  0.00    +0.000 C 
BRANCH  19  20
ATOM     20  C   UNL     1       7.052   4.634  15.883  0.00  0.00    +0.000 A 
ATOM     21  N   UNL     1       7.657   5.271  14.900  0.00  0.00    +0.000 NA
ATOM     22  N   UNL     1       7.048   4.920  13.718  0.00  0.00    +0.000 NA
ATOM     23  C   UNL     1       6.085   4.075  14.003  0.00  0.00    +0.000 A 
ATOM     24  N   UNL     1       6.054   3.860  15.347  0.00  0.00    +0.000 N 
ATOM     25  C   UNL     1       5.141   2.986  16.032  0.00  0.00    +0.000 C 
ENDBRANCH  19  20
ENDBRANCH  18  19
ENDBRANCH  14  18
ENDBRANCH   8  11
BRANCH   5  26
ATOM     26  C   UNL     1      -0.559   9.758  22.891  0.00  0.00    +0.000 C 
ATOM     27  F   UNL     1      -1.064   8.505  22.721  0.00  0.00    +0.000 F 
ATOM     28  F   UNL     1       0.525   9.614  23.702  0.00  0.00    +0.000 F 
ATOM     29  F   UNL     1      -1.486  10.436  23.618  0.00  0.00    +0.000 F 
ENDBRANCH   5  26
BRANCH   1  31
ATOM     30  C   UNL     1      -1.178  14.518  21.365  0.00  0.00    +0.000 C 
ATOM     31  C   UNL     1      -0.720  13.930  20.038  0.00  0.00    +0.000 C 
ENDBRANCH   1  31
TORSDOF 6
ENDMDL
MODEL 4
REMARK VINA RESULT:      -8.4      3.805      8.782
REMARK  Name = 
REMARK  8 active torsions:
REMARK  status: ('A' for Active; 'I' for Inactive)
REMARK    1  A    between atoms: C_1  and  C_2
REMARK    2  A    between atoms: C_2  and  C_3
REMARK    3  A    between atoms: C_7  and  C_8
REMARK    4  A    between atoms: N_14  and  C_15
REMARK    5  A    between atoms: C_18  and  C_19
REMARK    6  A    between atoms: C_19  and  C_20
REMARK    7  A    between atoms: C_20  and  C_21
REMARK    8  A    between atoms: N_25  and  C_26
REMARK                            x       y       z     vdW  Elec       q    Type
REMARK                         _______ _______ _______ _____ _____    ______ ____
ROOT
ATOM      1  C   UNL     1       4.826   4.053  16.576  0.00  0.00    +0.000 A 
ATOM      2  C   UNL     1       4.664   5.440  16.646  0.00  0.00    +0.000 A 
ATOM      3  C   UNL     1       3.762   5.941  17.567  0.00  0.00    +0.000 A 
ATOM      4  C   UNL     1       3.017   5.130  18.414  0.00  0.00    +0.000 A 
ATOM      5  C   UNL     1       3.159   3.745  18.372  0.00  0.00    +0.000 A 
ATOM      6  C   UNL     1       4.079   3.219  17.441  0.00  0.00    +0.000 A 
ATOM      7  C   UNL     1       2.124   5.988  19.249  0.00  0.00    +0.000 C 
ATOM      8  N   UNL     1       2.388   7.348  18.779  0.00  0.00    +0.000 N 
ATOM      9  C   UNL     1       3.391   7.339  17.799  0.00  0.00    +0.000 C 
ATOM     10  O   UNL     1       3.920   8.248  17.184  0.00  0.00    +0.000 OA
ENDROOT
BRANCH   8  11
ATOM     11  C   UNL     1       1.722   8.468  19.280  0.00  0.00    +0.000 C 
ATOM     12  C   UNL     1       1.328   9.473  18.467  0.00  0.00    +0.000 C 
ATOM     13  C   UNL     1       0.615  10.724  18.904  0.00  0.00    +0.000 C 
ATOM     14  C   UNL     1      -0.689  10.422  19.616  0.00  0.00    +0.000 C 
ATOM     15  C   UNL     1      -0.713   9.678  20.740  0.00  0.00    +0.000 C 
ATOM     16  C   UNL     1       0.461   9.108  21.363  0.00  0.00    +0.000 C 
ATOM     17  C   UNL     1       1.515   8.571  20.724  0.00  0.00    +0.000 C 
BRANCH  14  18
ATOM     18  C   UNL     1      -1.964  10.912  18.959  0.00  0.00    +0.000 C 
BRANCH  18  19
ATOM     19  C   UNL     1      -2.778   9.816  18.263  0.00  0.00    +0.000 C 
BRANCH  19  20
ATOM     20  C   UNL     1      -3.034  10.157  16.833  0.00  0.00    +0.000 A 
ATOM     21  N   UNL     1      -2.375   9.672  15.799  0.00  0.00    +0.000 NA
ATOM     22  N   UNL     1      -2.891  10.233  14.655  0.00  0.00    +0.000 NA
ATOM     23  C   UNL     1      -3.854  11.049  15.012  0.00  0.00    +0.000 A 
ATOM     24  N   UNL     1      -3.985  11.029  16.367  0.00  0.00    +0.000 N 
ATOM     25  C   UNL     1      -4.944  11.786  17.125  0.00  0.00    +0.000 C 
ENDBRANCH  19  20
ENDBRANCH  18  19
ENDBRANCH  14  18
ENDBRANCH   8  11
BRANCH   5  26
ATOM     26  C   UNL     1       2.363   2.811  19.247  0.00  0.00    +0.000 C 
ATOM     27  F   UNL     1       2.585   1.494  18.982  0.00  0.00    +0.000 F 
ATOM     28  F   UNL     1       2.644   2.976  20.568  0.00  0.00    +0.000 F 
ATOM     29  F   UNL     1       1.022   2.994  19.121  0.00  0.00    +0.000 F 
ENDBRANCH   5  26
BRANCH   1  31
ATOM     30  C   UNL     1       5.589   4.177  14.203  0.00  0.00    +0.000 C 
ATOM     31  C   UNL     1       5.735   3.453  15.534  0.00  0.00    +0.000 C 
ENDBRANCH   1  31
TORSDOF 6
ENDMDL
MODEL 5
REMARK VINA RESULT:      -8.3      3.808      9.104
REMARK  Name = 
REMARK  8 active torsions:
REMARK  status: ('A' for Active; 'I' for Inactive)
REMARK    1  A    between atoms: C_1  and  C_2
REMARK    2  A    between atoms: C_2  and  C_3
REMARK    3  A    between atoms: C_7  and  C_8
REMARK    4  A    between atoms: N_14  and  C_15
REMARK    5  A    between atoms: C_18  and  C_19
REMARK    6  A    between atoms: C_19  and  C_20
REMARK    7  A    between atoms: C_20  and  C_21
REMARK    8  A    between atoms: N_25  and  C_26
REMARK                            x       y       z     vdW  Elec       q    Type
REMARK                         _______ _______ _______ _____ _____    ______ ____
ROOT
ATOM      1  C   UNL     1       3.678   4.063  17.698  0.00  0.00    +0.000 A 
ATOM      2  C   UNL     1       3.552   5.455  17.645  0.00  0.00    +0.000 A 
ATOM      3  C   UNL     1       2.912   6.087  18.696  0.00  0.00    +0.000 A 
ATOM      4  C   UNL     1       2.393   5.402  19.787  0.00  0.00    +0.000 A 
ATOM      5  C   UNL     1       2.506   4.017  19.871  0.00  0.00    +0.000 A 
ATOM      6  C   UNL     1       3.162   3.357  18.809  0.00  0.00    +0.000 A 
ATOM      7  C   UNL     1       1.743   6.379  20.712  0.00  0.00    +0.000 C 
ATOM      8  N   UNL     1       1.895   7.668  20.038  0.00  0.00    +0.000 N 
ATOM      9  C   UNL     1       2.623   7.515  18.849  0.00  0.00    +0.000 C 
ATOM     10  O   UNL     1       2.991   8.330  18.022  0.00  0.00    +0.000 OA
ENDROOT
BRANCH   8  11
ATOM     11  C   UNL     1       1.386   8.860  20.555  0.00  0.00    +0.000 C 
ATOM     12  C   UNL     1       1.226   9.953  19.775  0.00  0.00    +0.000 C 
ATOM     13  C   UNL     1       0.696  11.285  20.232  0.00  0.00    +0.000 C 
ATOM     14  C   UNL     1      -0.690  11.175  20.835  0.00  0.00    +0.000 C 
ATOM     15  C   UNL     1      -0.924  10.396  21.910  0.00  0.00    +0.000 C 
ATOM     16  C   UNL     1       0.089   9.609  22.579  0.00  0.00    +0.000 C 
ATOM     17  C   UNL     1       1.087   8.933  21.985  0.00  0.00    +0.000 C 
BRANCH  14  18
ATOM     18  C   UNL     1      -1.813  11.901  20.121  0.00  0.00    +0.000 C 
BRANCH  18  19
ATOM     19  C   UNL     1      -2.001  11.491  18.656  0.00  0.00    +0.000 C 
BRANCH  19  20
ATOM     20  C   UNL     1      -3.421  11.649  18.226  0.00  0.00    +0.000 A 
ATOM     21  N   UNL     1      -4.421  12.018  19.003  0.00  0.00    +0.000 NA
ATOM     22  N   UNL     1      -5.570  12.034  18.250  0.00  0.00    +0.000 NA
ATOM     23  C   UNL     1      -5.250  11.675  17.029  0.00  0.00    +0.000 A 
ATOM     24  N   UNL     1      -3.912  11.431  16.965  0.00  0.00    +0.000 N 
ATOM     25  C   UNL     1      -3.192  11.027  15.787  0.00  0.00    +0.000 C 
ENDBRANCH  19  20
ENDBRANCH  18  19
ENDBRANCH  14  18
ENDBRANCH   8  11
BRANCH   5  26
ATOM     26  C   UNL     1       1.945   3.214  21.016  0.00  0.00    +0.000 C 
ATOM     27  F   UNL     1       2.254   1.889  20.957  0.00  0.00    +0.000 F 
ATOM     28  F   UNL     1       2.399   3.648  22.223  0.00  0.00    +0.000 F 
ATOM     29  F   UNL     1       0.588   3.275  21.080  0.00  0.00    +0.000 F 
ENDBRANCH   5  26
BRANCH   1  31
ATOM     30  C   UNL     1       5.588   3.983  16.093  0.00  0.00    +0.000 C 
ATOM     31  C   UNL     1       4.294   3.319  16.540  0.00  0.00    +0.000 C 
ENDBRANCH   1  31
TORSDOF 6
ENDMDL
MODEL 6
REMARK VINA RESULT:      -8.2      3.773      8.678
REMARK  Name = 
REMARK  8 active torsions:
REMARK  status: ('A' for Active; 'I' for Inactive)
REMARK    1  A    between atoms: C_1  and  C_2
REMARK    2  A    between atoms: C_2  and  C_3
REMARK    3  A    between atoms: C_7  and  C_8
REMARK    4  A    between atoms: N_14  and  C_15
REMARK    5  A    between atoms: C_18  and  C_19
REMARK    6  A    between atoms: C_19  and  C_20
REMARK    7  A    between atoms: C_20  and  C_21
REMARK    8  A    between atoms: N_25  and  C_26
REMARK                            x       y       z     vdW  Elec       q    Type
REMARK                         _______ _______ _______ _____ _____    ______ ____
ROOT
ATOM      1  C   UNL     1       3.839   4.257  17.578  0.00  0.00    +0.000 A 
ATOM      2  C   UNL     1       3.723   5.651  17.587  0.00  0.00    +0.000 A 
ATOM      3  C   UNL     1       3.006   6.234  18.616  0.00  0.00    +0.000 A 
ATOM      4  C   UNL     1       2.401   5.498  19.628  0.00  0.00    +0.000 A 
ATOM      5  C   UNL     1       2.502   4.110  19.649  0.00  0.00    +0.000 A 
ATOM      6  C   UNL     1       3.235   3.500  18.609  0.00  0.00    +0.000 A 
ATOM      7  C   UNL     1       1.686   6.432  20.549  0.00  0.00    +0.000 C 
ATOM      8  N   UNL     1       1.895   7.753  19.956  0.00  0.00    +0.000 N 
ATOM      9  C   UNL     1       2.712   7.655  18.820  0.00  0.00    +0.000 C 
ATOM     10  O   UNL     1       3.147   8.508  18.068  0.00  0.00    +0.000 OA
ENDROOT
BRANCH   8  11
ATOM     11  C   UNL     1       1.352   8.921  20.492  0.00  0.00    +0.000 C 
ATOM     12  C   UNL     1       0.997   9.959  19.702  0.00  0.00    +0.000 C 
ATOM     13  C   UNL     1       0.414  11.262  20.177  0.00  0.00    +0.000 C 
ATOM     14  C   UNL     1      -0.869  11.065  20.960  0.00  0.00    +0.000 C 
ATOM     15  C   UNL     1      -0.893  10.320  22.084  0.00  0.00    +0.000 C 
ATOM     16  C   UNL     1       0.263   9.653  22.641  0.00  0.00    +0.000 C 
ATOM     17  C   UNL     1       1.233   9.035  21.946  0.00  0.00    +0.000 C 
BRANCH  14  18
ATOM     18  C   UNL     1      -2.134  11.661  20.374  0.00  0.00    +0.000 C 
BRANCH  18  19
ATOM     19  C   UNL     1      -1.964  12.248  18.969  0.00  0.00    +0.000 C 
BRANCH  19  20
ATOM     20  C   UNL     1      -2.403  11.282  17.921  0.00  0.00    +0.000 A 
ATOM     21  N   UNL     1      -1.646  10.355  17.366  0.00  0.00    +0.000 NA
ATOM     22  N   UNL     1      -2.402   9.677  16.439  0.00  0.00    +0.000 NA
ATOM     23  C   UNL     1      -3.604  10.201  16.447  0.00  0.00    +0.000 A 
ATOM     24  N   UNL     1      -3.655  11.205  17.365  0.00  0.00    +0.000 N 
ATOM     25  C   UNL     1      -4.811  12.006  17.665  0.00  0.00    +0.000 C 
ENDBRANCH  19  20
ENDBRANCH  18  19
ENDBRANCH  14  18
ENDBRANCH   8  11
BRANCH   5  26
ATOM     26  C   UNL     1       1.850   3.255  20.705  0.00  0.00    +0.000 C 
ATOM     27  F   UNL     1       2.027   1.918  20.511  0.00  0.00    +0.000 F 
ATOM     28  F   UNL     1       2.330   3.515  21.951  0.00  0.00    +0.000 F 
ATOM     29  F   UNL     1       0.505   3.444  20.772  0.00  0.00    +0.000 F 
ENDBRANCH   5  26
BRANCH   1  31
ATOM     30  C   UNL     1       5.126   4.584  15.465  0.00  0.00    +0.000 C 
ATOM     31  C   UNL     1       4.539   3.568  16.434  0.00  0.00    +0.000 C 
ENDBRANCH   1  31
TORSDOF 6
ENDMDL
MODEL 7
REMARK VINA RESULT:      -8.2      4.075      9.083
REMARK  Name = 
REMARK  8 active torsions:
REMARK  status: ('A' for Active; 'I' for Inactive)
REMARK    1  A    between atoms: C_1  and  C_2
REMARK    2  A    between atoms: C_2  and  C_3
REMARK    3  A    between atoms: C_7  and  C_8
REMARK    4  A    between atoms: N_14  and  C_15
REMARK    5  A    between atoms: C_18  and  C_19
REMARK    6  A    between atoms: C_19  and  C_20
REMARK    7  A    between atoms: C_20  and  C_21
REMARK    8  A    between atoms: N_25  and  C_26
REMARK                            x       y       z     vdW  Elec       q    Type
REMARK                         _______ _______ _______ _____ _____    ______ ____
ROOT
ATOM      1  C   UNL     1       5.266   4.286  15.841  0.00  0.00    +0.000 A 
ATOM      2  C   UNL     1       5.097   5.634  16.173  0.00  0.00    +0.000 A 
ATOM      3  C   UNL     1       4.174   5.949  17.153  0.00  0.00    +0.000 A 
ATOM      4  C   UNL     1       3.414   4.990  17.813  0.00  0.00    +0.000 A 
ATOM      5  C   UNL     1       3.562   3.640  17.508  0.00  0.00    +0.000 A 
ATOM      6  C   UNL     1       4.504   3.302  16.514  0.00  0.00    +0.000 A 
ATOM      7  C   UNL     1       2.501   5.672  18.778  0.00  0.00    +0.000 C 
ATOM      8  N   UNL     1       2.769   7.097  18.583  0.00  0.00    +0.000 N 
ATOM      9  C   UNL     1       3.793   7.277  17.641  0.00  0.00    +0.000 C 
ATOM     10  O   UNL     1       4.331   8.286  17.224  0.00  0.00    +0.000 OA
ENDROOT
BRANCH   8  11
ATOM     11  C   UNL     1       2.090   8.100  19.276  0.00  0.00    +0.000 C 
ATOM     12  C   UNL     1       1.727   9.251  18.668  0.00  0.00    +0.000 C 
ATOM     13  C   UNL     1       1.001  10.396  19.322  0.00  0.00    +0.000 C 
ATOM     14  C   UNL     1      -0.327   9.970  19.915  0.00  0.00    +0.000 C 
ATOM     15  C   UNL     1      -0.394   9.016  20.865  0.00  0.00    +0.000 C 
ATOM     16  C   UNL     1       0.757   8.321  21.400  0.00  0.00    +0.000 C 
ATOM     17  C   UNL     1       1.832   7.914  20.703  0.00  0.00    +0.000 C 
BRANCH  14  18
ATOM     18  C   UNL     1      -1.578  10.594  19.326  0.00  0.00    +0.000 C 
BRANCH  18  19
ATOM     19  C   UNL     1      -1.709  10.436  17.808  0.00  0.00    +0.000 C 
BRANCH  19  20
ATOM     20  C   UNL     1      -3.017  10.960  17.319  0.00  0.00    +0.000 A 
ATOM     21  N   UNL     1      -3.889  11.639  18.040  0.00  0.00    +0.000 NA
ATOM     22  N   UNL     1      -4.971  11.933  17.244  0.00  0.00    +0.000 NA
ATOM     23  C   UNL     1      -4.739  11.430  16.055  0.00  0.00    +0.000 A 
ATOM     24  N   UNL     1      -3.523  10.817  16.052  0.00  0.00    +0.000 N 
ATOM     25  C   UNL     1      -2.921  10.161  14.923  0.00  0.00    +0.000 C 
ENDBRANCH  19  20
ENDBRANCH  18  19
ENDBRANCH  14  18
ENDBRANCH   8  11
BRANCH   5  26
ATOM     26  C   UNL     1       2.752   2.555  18.170  0.00  0.00    +0.000 C 
ATOM     27  F   UNL     1       2.853   2.551  19.529  0.00  0.00    +0.000 F 
ATOM     28  F   UNL     1       1.423   2.662  17.898  0.00  0.00    +0.000 F 
ATOM     29  F   UNL     1       3.121   1.310  17.768  0.00  0.00    +0.000 F 
ENDBRANCH   5  26
BRANCH   1  31
ATOM     30  C   UNL     1       5.453   3.813  13.398  0.00  0.00    +0.000 C 
ATOM     31  C   UNL     1       6.198   3.897  14.722  0.00  0.00    +0.000 C 
ENDBRANCH   1  31
TORSDOF 6
ENDMDL
MODEL 8
REMARK VINA RESULT:      -8.0      4.011     10.225
REMARK  Name = 
REMARK  8 active torsions:
REMARK  status: ('A' for Active; 'I' for Inactive)
REMARK    1  A    between atoms: C_1  and  C_2
REMARK    2  A    between atoms: C_2  and  C_3
REMARK    3  A    between atoms: C_7  and  C_8
REMARK    4  A    between atoms: N_14  and  C_15
REMARK    5  A    between atoms: C_18  and  C_19
REMARK    6  A    between atoms: C_19  and  C_20
REMARK    7  A    between atoms: C_20  and  C_21
REMARK    8  A    between atoms: N_25  and  C_26
REMARK                            x       y       z     vdW  Elec       q    Type
REMARK                         _______ _______ _______ _____ _____    ______ ____
ROOT
ATOM      1  C   UNL     1       3.692   4.402  17.582  0.00  0.00    +0.000 A 
ATOM      2  C   UNL     1       3.548   5.793  17.595  0.00  0.00    +0.000 A 
ATOM      3  C   UNL     1       2.878   6.364  18.662  0.00  0.00    +0.000 A 
ATOM      4  C   UNL     1       2.346   5.620  19.707  0.00  0.00    +0.000 A 
ATOM      5  C   UNL     1       2.475   4.234  19.725  0.00  0.00    +0.000 A 
ATOM      6  C   UNL     1       3.161   3.636  18.647  0.00  0.00    +0.000 A 
ATOM      7  C   UNL     1       1.664   6.543  20.664  0.00  0.00    +0.000 C 
ATOM      8  N   UNL     1       1.813   7.865  20.058  0.00  0.00    +0.000 N 
ATOM      9  C   UNL     1       2.568   7.780  18.879  0.00  0.00    +0.000 C 
ATOM     10  O   UNL     1       2.943   8.639  18.101  0.00  0.00    +0.000 OA
ENDROOT
BRANCH   8  11
ATOM     11  C   UNL     1       1.278   9.024  20.621  0.00  0.00    +0.000 C 
ATOM     12  C   UNL     1       0.979  10.102  19.862  0.00  0.00    +0.000 C 
ATOM     13  C   UNL     1       0.408  11.399  20.368  0.00  0.00    +0.000 C 
ATOM     14  C   UNL     1      -0.908  11.203  21.094  0.00  0.00    +0.000 C 
ATOM     15  C   UNL     1      -0.993  10.414  22.184  0.00  0.00    +0.000 C 
ATOM     16  C   UNL     1       0.125   9.696  22.756  0.00  0.00    +0.000 C 
ATOM     17  C   UNL     1       1.106   9.083  22.073  0.00  0.00    +0.000 C 
BRANCH  14  18
ATOM     18  C   UNL     1      -2.135  11.854  20.486  0.00  0.00    +0.000 C 
BRANCH  18  19
ATOM     19  C   UNL     1      -2.498  13.212  21.094  0.00  0.00    +0.000 C 
BRANCH  19  20
ATOM     20  C   UNL     1      -3.583  13.080  22.109  0.00  0.00    +0.000 A 
ATOM     21  N   UNL     1      -4.691  12.379  21.961  0.00  0.00    +0.000 NA
ATOM     22  N   UNL     1      -5.443  12.514  23.103  0.00  0.00    +0.000 NA
ATOM     23  C   UNL     1      -4.782  13.292  23.926  0.00  0.00    +0.000 A 
ATOM     24  N   UNL     1      -3.606  13.665  23.350  0.00  0.00    +0.000 N 
ATOM     25  C   UNL     1      -2.610  14.508  23.953  0.00  0.00    +0.000 C 
ENDBRANCH  19  20
ENDBRANCH  18  19
ENDBRANCH  14  18
ENDBRANCH   8  11
BRANCH   5  26
ATOM     26  C   UNL     1       1.900   3.370  20.817  0.00  0.00    +0.000 C 
ATOM     27  F   UNL     1       0.541   3.411  20.887  0.00  0.00    +0.000 F 
ATOM     28  F   UNL     1       2.224   2.057  20.662  0.00  0.00    +0.000 F 
ATOM     29  F   UNL     1       2.346   3.724  22.052  0.00  0.00    +0.000 F 
ENDBRANCH   5  26
BRANCH   1  31
ATOM     30  C   UNL     1       5.313   4.662  15.703  0.00  0.00    +0.000 C 
ATOM     31  C   UNL     1       4.341   3.723  16.403  0.00  0.00    +0.000 C 
ENDBRANCH   1  31
TORSDOF 6
ENDMDL
MODEL 9
REMARK VINA RESULT:      -7.9      3.725      8.503
REMARK  Name = 
REMARK  8 active torsions:
REMARK  status: ('A' for Active; 'I' for Inactive)
REMARK    1  A    between atoms: C_1  and  C_2
REMARK    2  A    between atoms: C_2  and  C_3
REMARK    3  A    between atoms: C_7  and  C_8
REMARK    4  A    between atoms: N_14  and  C_15
REMARK    5  A    between atoms: C_18  and  C_19
REMARK    6  A    between atoms: C_19  and  C_20
REMARK    7  A    between atoms: C_20  and  C_21
REMARK    8  A    between atoms: N_25  and  C_26
REMARK                            x       y       z     vdW  Elec       q    Type
REMARK                         _______ _______ _______ _____ _____    ______ ____
ROOT
ATOM      1  C   UNL     1       4.011   5.401  17.528  0.00  0.00    +0.000 A 
ATOM      2  C   UNL     1       3.613   6.735  17.400  0.00  0.00    +0.000 A 
ATOM      3  C   UNL     1       2.768   7.254  18.364  0.00  0.00    +0.000 A 
ATOM      4  C   UNL     1       2.301   6.509  19.440  0.00  0.00    +0.000 A 
ATOM      5  C   UNL     1       2.683   5.180  19.598  0.00  0.00    +0.000 A 
ATOM      6  C   UNL     1       3.550   4.638  18.625  0.00  0.00    +0.000 A 
ATOM      7  C   UNL     1       1.389   7.360  20.262  0.00  0.00    +0.000 C 
ATOM      8  N   UNL     1       1.338   8.633  19.543  0.00  0.00    +0.000 N 
ATOM      9  C   UNL     1       2.185   8.597  18.426  0.00  0.00    +0.000 C 
ATOM     10  O   UNL     1       2.455   9.446  17.595  0.00  0.00    +0.000 OA
ENDROOT
BRANCH   8  11
ATOM     11  C   UNL     1       0.555   9.710  19.960  0.00  0.00    +0.000 C 
ATOM     12  C   UNL     1       0.844  10.393  21.091  0.00  0.00    +0.000 C 
ATOM     13  C   UNL     1       0.063  11.559  21.633  0.00  0.00    +0.000 C 
ATOM     14  C   UNL     1      -0.026  12.702  20.640  0.00  0.00    +0.000 C 
ATOM     15  C   UNL     1      -0.586  12.528  19.426  0.00  0.00    +0.000 C 
ATOM     16  C   UNL     1      -1.142  11.277  18.959  0.00  0.00    +0.000 C 
ATOM     17  C   UNL     1      -0.636  10.052  19.184  0.00  0.00    +0.000 C 
BRANCH  14  18
ATOM     18  C   UNL     1       0.625  14.012  21.036  0.00  0.00    +0.000 C 
BRANCH  18  19
ATOM     19  C   UNL     1       2.156  13.998  20.988  0.00  0.00    +0.000 C 
BRANCH  19  20
ATOM     20  C   UNL     1       2.668  14.748  19.804  0.00  0.00    +0.000 A 
ATOM     21  N   UNL     1       2.969  16.032  19.781  0.00  0.00    +0.000 NA
ATOM     22  N   UNL     1       3.392  16.354  18.513  0.00  0.00    +0.000 NA
ATOM     23  C   UNL     1       3.341  15.262  17.788  0.00  0.00    +0.000 A 
ATOM     24  N   UNL     1       2.901  14.228  18.556  0.00  0.00    +0.000 N 
ATOM     25  C   UNL     1       2.726  12.872  18.111  0.00  0.00    +0.000 C 
ENDBRANCH  19  20
ENDBRANCH  18  19
ENDBRANCH  14  18
ENDBRANCH   8  11
BRANCH   5  26
ATOM     26  C   UNL     1       2.194   4.313  20.729  0.00  0.00    +0.000 C 
ATOM     27  F   UNL     1       2.681   3.042  20.693  0.00  0.00    +0.000 F 
ATOM     28  F   UNL     1       2.542   4.809  21.948  0.00  0.00    +0.000 F 
ATOM     29  F   UNL     1       0.840   4.191  20.745  0.00  0.00    +0.000 F 
ENDBRANCH   5  26
BRANCH   1  31
ATOM     30  C   UNL     1       5.396   5.813  15.492  0.00  0.00    +0.000 C 
ATOM     31  C   UNL     1       4.865   4.765  16.460  0.00  0.00    +0.000 C 
ENDBRANCH   1  31
TORSDOF 6
ENDMDL
