MODEL 1
REMARK VINA RESULT:      -9.0      0.000      0.000
REMARK  Name = 
REMARK  6 active torsions:
REMARK  status: ('A' for Active; 'I' for Inactive)
REMARK    1  A    between atoms: C_1  and  C_2
REMARK    2  A    between atoms: C_6  and  C_7
REMARK    3  A    between atoms: C_11  and  C_12
REMARK    4  A    between atoms: C_12  and  N_13
REMARK    5  A    between atoms: N_16  and  C_17
REMARK    6  A    between atoms: C_17  and  C_18
REMARK                            x       y       z     vdW  Elec       q    Type
REMARK                         _______ _______ _______ _____ _____    ______ ____
ROOT
ATOM      1  N   UNL     1       6.961   7.283  16.711  0.00  0.00    +0.000 N 
ATOM      2  C   UNL     1       7.758   7.659  17.760  0.00  0.00    +0.000 C 
ATOM      3  O   UNL     1       8.255   6.877  18.560  0.00  0.00    +0.000 OA
ATOM      4  N   UNL     1       7.934   9.016  17.826  0.00  0.00    +0.000 N 
ATOM      5  H   UNL     1       6.349   7.990  16.331  0.00  0.00    +0.000 HD
ATOM      6  H   UNL     1       7.855   9.533  16.960  0.00  0.00    +0.000 HD
ENDROOT
BRANCH   1   7
ATOM      7  C   UNL     1       6.536   5.902  16.568  0.00  0.00    +0.000 C 
BRANCH   7  12
ATOM      8  C   UNL     1       3.069   6.598  18.067  0.00  0.00    +0.000 A 
ATOM      9  C   UNL     1       2.517   5.306  18.018  0.00  0.00    +0.000 A 
ATOM     10  C   UNL     1       3.253   4.216  17.542  0.00  0.00    +0.000 A 
ATOM     11  C   UNL     1       4.560   4.396  17.089  0.00  0.00    +0.000 A 
ATOM     12  C   UNL     1       5.146   5.665  17.114  0.00  0.00    +0.000 A 
ATOM     13  C   UNL     1       4.390   6.748  17.601  0.00  0.00    +0.000 A 
BRANCH   8  19
ATOM     14  C   UNL     1       0.736   8.892  21.892  0.00  0.00    +0.000 C 
ATOM     15  C   UNL     1       1.160   8.893  20.453  0.00  0.00    +0.000 A 
ATOM     16  C   UNL     1       0.874   9.975  19.618  0.00  0.00    +0.000 A 
ATOM     17  C   UNL     1       1.281   9.956  18.287  0.00  0.00    +0.000 A 
ATOM     18  C   UNL     1       1.978   8.855  17.781  0.00  0.00    +0.000 A 
ATOM     19  C   UNL     1       2.299   7.752  18.592  0.00  0.00    +0.000 A 
ATOM     20  C   UNL     1       1.871   7.798  19.934  0.00  0.00    +0.000 A 
ENDBRANCH   8  19
ENDBRANCH   7  12
ENDBRANCH   1   7
BRANCH   4  21
ATOM     21  C   UNL     1       8.848   9.567  18.808  0.00  0.00    +0.000 C 
BRANCH  21  22
ATOM     22  C   UNL     1       8.935  11.046  18.661  0.00  0.00    +0.000 A 
ATOM     23  N   UNL     1       8.551  11.781  17.624  0.00  0.00    +0.000 NA
ATOM     24  N   UNL     1       8.856  13.117  17.886  0.00  0.00    +0.000 NA
ATOM     25  C   UNL     1       9.418  13.142  19.062  0.00  0.00    +0.000 A 
ATOM     26  N   UNL     1       9.488  11.881  19.563  0.00  0.00    +0.000 N 
ATOM     27  C   UNL     1      10.095  11.824  20.869  0.00  0.00    +0.000 C 
ATOM     28  C   UNL     1      10.057  13.306  21.303  0.00  0.00    +0.000 C 
ATOM     29  C   UNL     1       9.983  14.132  19.991  0.00  0.00    +0.000 C 
ENDBRANCH  21  22
ENDBRANCH   4  21
TORSDOF 5
ENDMDL
MODEL 2
REMARK VINA RESULT:      -8.9      5.104      8.216
REMARK  Name = 
REMARK  6 active torsions:
REMARK  status: ('A' for Active; 'I' for Inactive)
REMARK    1  A    between atoms: C_1  and  C_2
REMARK    2  A    between atoms: C_6  and  C_7
REMARK    3  A    between atoms: C_11  and  C_12
REMARK    4  A    between atoms: C_12  and  N_13
REMARK    5  A    between atoms: N_16  and  C_17
REMARK    6  A    between atoms: C_17  and  C_18
REMARK                            x       y       z     vdW  Elec       q    Type
REMARK                         _______ _______ _______ _____ _____    ______ ____
ROOT
ATOM      1  N   UNL     1       3.054   5.353  19.686  0.00  0.00    +0.000 N 
ATOM      2  C   UNL     1       2.468   6.508  19.241  0.00  0.00    +0.000 C 
ATOM      3  O   UNL     1       2.174   6.724  18.072  0.00  0.00    +0.000 OA
ATOM      4  N   UNL     1       2.251   7.410  20.250  0.00  0.00    +0.000 N 
ATOM      5  H   UNL     1       3.547   5.405  20.566  0.00  0.00    +0.000 HD
ATOM      6  H   UNL     1       2.132   7.037  21.183  0.00  0.00    +0.000 HD
ENDROOT
BRANCH   1   7
ATOM      7  C   UNL     1       3.500   4.344  18.742  0.00  0.00    +0.000 C 
BRANCH   7  12
ATOM      8  C   UNL     1       6.401   4.795  16.266  0.00  0.00    +0.000 A 
ATOM      9  C   UNL     1       7.399   5.260  17.139  0.00  0.00    +0.000 A 
ATOM     10  C   UNL     1       7.161   5.399  18.510  0.00  0.00    +0.000 A 
ATOM     11  C   UNL     1       5.909   5.086  19.041  0.00  0.00    +0.000 A 
ATOM     12  C   UNL     1       4.886   4.626  18.207  0.00  0.00    +0.000 A 
ATOM     13  C   UNL     1       5.147   4.489  16.830  0.00  0.00    +0.000 A 
BRANCH   8  19
ATOM     14  C   UNL     1       5.220   2.665  11.861  0.00  0.00    +0.000 C 
ATOM     15  C   UNL     1       6.090   3.599  12.649  0.00  0.00    +0.000 A 
ATOM     16  C   UNL     1       7.104   4.333  12.032  0.00  0.00    +0.000 A 
ATOM     17  C   UNL     1       7.895   5.198  12.783  0.00  0.00    +0.000 A 
ATOM     18  C   UNL     1       7.677   5.334  14.157  0.00  0.00    +0.000 A 
ATOM     19  C   UNL     1       6.657   4.625  14.814  0.00  0.00    +0.000 A 
ATOM     20  C   UNL     1       5.874   3.755  14.029  0.00  0.00    +0.000 A 
ENDBRANCH   8  19
ENDBRANCH   7  12
ENDBRANCH   1   7
BRANCH   4  21
ATOM     21  C   UNL     1       1.529   8.635  19.964  0.00  0.00    +0.000 C 
BRANCH  21  22
ATOM     22  C   UNL     1       0.981   9.217  21.220  0.00  0.00    +0.000 A 
ATOM     23  N   UNL     1       1.303   8.898  22.469  0.00  0.00    +0.000 NA
ATOM     24  N   UNL     1       0.517   9.654  23.340  0.00  0.00    +0.000 NA
ATOM     25  C   UNL     1      -0.253  10.393  22.592  0.00  0.00    +0.000 A 
ATOM     26  N   UNL     1       0.003  10.142  21.282  0.00  0.00    +0.000 N 
ATOM     27  C   UNL     1      -0.810  10.928  20.386  0.00  0.00    +0.000 C 
ATOM     28  C   UNL     1      -1.365  12.015  21.331  0.00  0.00    +0.000 C 
ATOM     29  C   UNL     1      -1.301  11.412  22.760  0.00  0.00    +0.000 C 
ENDBRANCH  21  22
ENDBRANCH   4  21
TORSDOF 5
ENDMDL
MODEL 3
REMARK VINA RESULT:      -8.9      5.256      7.632
REMARK  Name = 
REMARK  6 active torsions:
REMARK  status: ('A' for Active; 'I' for Inactive)
REMARK    1  A    between atoms: C_1  and  C_2
REMARK    2  A    between atoms: C_6  and  C_7
REMARK    3  A    between atoms: C_11  and  C_12
REMARK    4  A    between atoms: C_12  and  N_13
REMARK    5  A    between atoms: N_16  and  C_17
REMARK    6  A    between atoms: C_17  and  C_18
REMARK                            x       y       z     vdW  Elec       q    Type
REMARK                         _______ _______ _______ _____ _____    ______ ____
ROOT
ATOM      1  N   UNL     1       2.031   7.587  20.438  0.00  0.00    +0.000 N 
ATOM      2  C   UNL     1       2.295   6.251  20.291  0.00  0.00    +0.000 C 
ATOM      3  O   UNL     1       1.499   5.360  20.562  0.00  0.00    +0.000 OA
ATOM      4  N   UNL     1       3.557   6.013  19.815  0.00  0.00    +0.000 N 
ATOM      5  H   UNL     1       2.829   8.200  20.511  0.00  0.00    +0.000 HD
ATOM      6  H   UNL     1       3.981   6.739  19.253  0.00  0.00    +0.000 HD
ENDROOT
BRANCH   1   7
ATOM      7  C   UNL     1       0.802   8.029  21.073  0.00  0.00    +0.000 C 
BRANCH   7  12
ATOM      8  C   UNL     1      -1.122  10.833  19.287  0.00  0.00    +0.000 A 
ATOM      9  C   UNL     1      -0.509  11.957  19.864  0.00  0.00    +0.000 A 
ATOM     10  C   UNL     1       0.530  11.826  20.791  0.00  0.00    +0.000 A 
ATOM     11  C   UNL     1       0.974  10.559  21.173  0.00  0.00    +0.000 A 
ATOM     12  C   UNL     1       0.388   9.413  20.628  0.00  0.00    +0.000 A 
ATOM     13  C   UNL     1      -0.654   9.568  19.694  0.00  0.00    +0.000 A 
BRANCH   8  19
ATOM     14  C   UNL     1      -2.914   9.967  14.663  0.00  0.00    +0.000 C 
ATOM     15  C   UNL     1      -3.106  10.548  16.033  0.00  0.00    +0.000 A 
ATOM     16  C   UNL     1      -4.301  11.177  16.387  0.00  0.00    +0.000 A 
ATOM     17  C   UNL     1      -4.459  11.705  17.665  0.00  0.00    +0.000 A 
ATOM     18  C   UNL     1      -3.423  11.608  18.599  0.00  0.00    +0.000 A 
ATOM     19  C   UNL     1      -2.210  10.969  18.287  0.00  0.00    +0.000 A 
ATOM     20  C   UNL     1      -2.078  10.447  16.984  0.00  0.00    +0.000 A 
ENDBRANCH   8  19
ENDBRANCH   7  12
ENDBRANCH   1   7
BRANCH   4  21
ATOM     21  C   UNL     1       3.950   4.655  19.491  0.00  0.00    +0.000 C 
BRANCH  21  22
ATOM     22  C   UNL     1       5.281   4.647  18.824  0.00  0.00    +0.000 A 
ATOM     23  N   UNL     1       6.475   4.746  19.397  0.00  0.00    +0.000 NA
ATOM     24  N   UNL     1       7.451   4.742  18.400  0.00  0.00    +0.000 NA
ATOM     25  C   UNL     1       6.816   4.647  17.266  0.00  0.00    +0.000 A 
ATOM     26  N   UNL     1       5.478   4.594  17.493  0.00  0.00    +0.000 N 
ATOM     27  C   UNL     1       4.703   4.484  16.281  0.00  0.00    +0.000 C 
ATOM     28  C   UNL     1       5.780   4.082  15.250  0.00  0.00    +0.000 C 
ATOM     29  C   UNL     1       7.132   4.576  15.831  0.00  0.00    +0.000 C 
ENDBRANCH  21  22
ENDBRANCH   4  21
TORSDOF 5
ENDMDL
MODEL 4
REMARK VINA RESULT:      -8.8      1.024      1.283
REMARK  Name = 
REMARK  6 active torsions:
REMARK  status: ('A' for Active; 'I' for Inactive)
REMARK    1  A    between atoms: C_1  and  C_2
REMARK    2  A    between atoms: C_6  and  C_7
REMARK    3  A    between atoms: C_11  and  C_12
REMARK    4  A    between atoms: C_12  and  N_13
REMARK    5  A    between atoms: N_16  and  C_17
REMARK    6  A    between atoms: C_17  and  C_18
REMARK                            x       y       z     vdW  Elec       q    Type
REMARK                         _______ _______ _______ _____ _____    ______ ____
ROOT
ATOM      1  N   UNL     1       7.274   7.614  16.857  0.00  0.00    +0.000 N 
ATOM      2  C   UNL     1       7.992   8.095  17.921  0.00  0.00    +0.000 C 
ATOM      3  O   UNL     1       8.536   7.387  18.759  0.00  0.00    +0.000 OA
ATOM      4  N   UNL     1       8.029   9.464  17.954  0.00  0.00    +0.000 N 
ATOM      5  H   UNL     1       6.610   8.247  16.437  0.00  0.00    +0.000 HD
ATOM      6  H   UNL     1       7.931   9.949  17.072  0.00  0.00    +0.000 HD
ENDROOT
BRANCH   1   7
ATOM      7  C   UNL     1       6.995   6.195  16.740  0.00  0.00    +0.000 C 
BRANCH   7  12
ATOM      8  C   UNL     1       3.381   6.603  17.975  0.00  0.00    +0.000 A 
ATOM      9  C   UNL     1       2.918   5.286  17.815  0.00  0.00    +0.000 A 
ATOM     10  C   UNL     1       3.756   4.269  17.348  0.00  0.00    +0.000 A 
ATOM     11  C   UNL     1       5.082   4.550  17.016  0.00  0.00    +0.000 A 
ATOM     12  C   UNL     1       5.583   5.848  17.154  0.00  0.00    +0.000 A 
ATOM     13  C   UNL     1       4.724   6.856  17.630  0.00  0.00    +0.000 A 
BRANCH   8  19
ATOM     14  C   UNL     1       0.821   8.680  21.779  0.00  0.00    +0.000 C 
ATOM     15  C   UNL     1       1.248   8.714  20.341  0.00  0.00    +0.000 A 
ATOM     16  C   UNL     1       0.862   9.759  19.500  0.00  0.00    +0.000 A 
ATOM     17  C   UNL     1       1.274   9.773  18.171  0.00  0.00    +0.000 A 
ATOM     18  C   UNL     1       2.077   8.742  17.673  0.00  0.00    +0.000 A 
ATOM     19  C   UNL     1       2.500   7.680  18.491  0.00  0.00    +0.000 A 
ATOM     20  C   UNL     1       2.065   7.691  19.832  0.00  0.00    +0.000 A 
ENDBRANCH   8  19
ENDBRANCH   7  12
ENDBRANCH   1   7
BRANCH   4  21
ATOM     21  C   UNL     1       8.849  10.128  18.950  0.00  0.00    +0.000 C 
BRANCH  21  22
ATOM     22  C   UNL     1       9.610  11.248  18.330  0.00  0.00    +0.000 A 
ATOM     23  N   UNL     1      10.703  11.167  17.580  0.00  0.00    +0.000 NA
ATOM     24  N   UNL     1      11.113  12.459  17.247  0.00  0.00    +0.000 NA
ATOM     25  C   UNL     1      10.262  13.270  17.810  0.00  0.00    +0.000 A 
ATOM     26  N   UNL     1       9.328  12.556  18.490  0.00  0.00    +0.000 N 
ATOM     27  C   UNL     1       8.344  13.386  19.140  0.00  0.00    +0.000 C 
ATOM     28  C   UNL     1       8.568  14.747  18.447  0.00  0.00    +0.000 C 
ATOM     29  C   UNL     1      10.024  14.719  17.911  0.00  0.00    +0.000 C 
ENDBRANCH  21  22
ENDBRANCH   4  21
TORSDOF 5
ENDMDL
MODEL 5
REMARK VINA RESULT:      -8.8      5.086      7.030
REMARK  Name = 
REMARK  6 active torsions:
REMARK  status: ('A' for Active; 'I' for Inactive)
REMARK    1  A    between atoms: C_1  and  C_2
REMARK    2  A    between atoms: C_6  and  C_7
REMARK    3  A    between atoms: C_11  and  C_12
REMARK    4  A    between atoms: C_12  and  N_13
REMARK    5  A    between atoms: N_16  and  C_17
REMARK    6  A    between atoms: C_17  and  C_18
REMARK                            x       y       z     vdW  Elec       q    Type
REMARK                         _______ _______ _______ _____ _____    ______ ____
ROOT
ATOM      1  N   UNL     1       3.156   5.327  18.199  0.00  0.00    +0.000 N 
ATOM      2  C   UNL     1       4.349   4.706  17.936  0.00  0.00    +0.000 C 
ATOM      3  O   UNL     1       5.288   4.661  18.720  0.00  0.00    +0.000 OA
ATOM      4  N   UNL     1       4.384   4.143  16.687  0.00  0.00    +0.000 N 
ATOM      5  H   UNL     1       2.599   5.593  17.401  0.00  0.00    +0.000 HD
ATOM      6  H   UNL     1       3.500   3.865  16.283  0.00  0.00    +0.000 HD
ENDROOT
BRANCH   1   7
ATOM      7  C   UNL     1       2.986   6.110  19.410  0.00  0.00    +0.000 C 
BRANCH   7  12
ATOM      8  C   UNL     1       1.031   9.365  19.989  0.00  0.00    +0.000 A 
ATOM      9  C   UNL     1       1.232   9.995  18.749  0.00  0.00    +0.000 A 
ATOM     10  C   UNL     1       1.957   9.377  17.725  0.00  0.00    +0.000 A 
ATOM     11  C   UNL     1       2.511   8.112  17.924  0.00  0.00    +0.000 A 
ATOM     12  C   UNL     1       2.341   7.451  19.144  0.00  0.00    +0.000 A 
ATOM     13  C   UNL     1       1.605   8.089  20.159  0.00  0.00    +0.000 A 
BRANCH   8  19
ATOM     14  C   UNL     1      -1.609  13.295  21.697  0.00  0.00    +0.000 C 
ATOM     15  C   UNL     1      -1.057  11.918  21.919  0.00  0.00    +0.000 A 
ATOM     16  C   UNL     1      -1.305  11.225  23.106  0.00  0.00    +0.000 A 
ATOM     17  C   UNL     1      -0.787   9.947  23.288  0.00  0.00    +0.000 A 
ATOM     18  C   UNL     1      -0.017   9.351  22.284  0.00  0.00    +0.000 A 
ATOM     19  C   UNL     1       0.244  10.009  21.069  0.00  0.00    +0.000 A 
ATOM     20  C   UNL     1      -0.291  11.303  20.915  0.00  0.00    +0.000 A 
ENDBRANCH   8  19
ENDBRANCH   7  12
ENDBRANCH   1   7
BRANCH   4  21
ATOM     21  C   UNL     1       5.532   3.344  16.300  0.00  0.00    +0.000 C 
BRANCH  21  22
ATOM     22  C   UNL     1       6.407   4.113  15.373  0.00  0.00    +0.000 A 
ATOM     23  N   UNL     1       7.288   5.056  15.686  0.00  0.00    +0.000 NA
ATOM     24  N   UNL     1       7.856   5.545  14.508  0.00  0.00    +0.000 NA
ATOM     25  C   UNL     1       7.296   4.889  13.531  0.00  0.00    +0.000 A 
ATOM     26  N   UNL     1       6.394   4.005  14.030  0.00  0.00    +0.000 N 
ATOM     27  C   UNL     1       5.732   3.234  13.007  0.00  0.00    +0.000 C 
ATOM     28  C   UNL     1       6.636   3.490  11.781  0.00  0.00    +0.000 C 
ATOM     29  C   UNL     1       7.367   4.829  12.063  0.00  0.00    +0.000 C 
ENDBRANCH  21  22
ENDBRANCH   4  21
TORSDOF 5
ENDMDL
MODEL 6
REMARK VINA RESULT:      -8.7      1.113      1.606
REMARK  Name = 
REMARK  6 active torsions:
REMARK  status: ('A' for Active; 'I' for Inactive)
REMARK    1  A    between atoms: C_1  and  C_2
REMARK    2  A    between atoms: C_6  and  C_7
REMARK    3  A    between atoms: C_11  and  C_12
REMARK    4  A    between atoms: C_12  and  N_13
REMARK    5  A    between atoms: N_16  and  C_17
REMARK    6  A    between atoms: C_17  and  C_18
REMARK                            x       y       z     vdW  Elec       q    Type
REMARK                         _______ _______ _______ _____ _____    ______ ____
ROOT
ATOM      1  N   UNL     1       7.365   6.097  18.604  0.00  0.00    +0.000 N 
ATOM      2  C   UNL     1       7.618   7.189  17.816  0.00  0.00    +0.000 C 
ATOM      3  O   UNL     1       7.332   7.260  16.628  0.00  0.00    +0.000 OA
ATOM      4  N   UNL     1       8.239   8.200  18.502  0.00  0.00    +0.000 N 
ATOM      5  H   UNL     1       7.920   6.006  19.442  0.00  0.00    +0.000 HD
ATOM      6  H   UNL     1       8.078   8.246  19.499  0.00  0.00    +0.000 HD
ENDROOT
BRANCH   1   7
ATOM      7  C   UNL     1       6.852   4.871  18.020  0.00  0.00    +0.000 C 
BRANCH   7  12
ATOM      8  C   UNL     1       3.197   6.020  18.282  0.00  0.00    +0.000 A 
ATOM      9  C   UNL     1       2.543   4.860  17.836  0.00  0.00    +0.000 A 
ATOM     10  C   UNL     1       3.256   3.709  17.484  0.00  0.00    +0.000 A 
ATOM     11  C   UNL     1       4.650   3.698  17.559  0.00  0.00    +0.000 A 
ATOM     12  C   UNL     1       5.341   4.833  17.992  0.00  0.00    +0.000 A 
ATOM     13  C   UNL     1       4.604   5.978  18.345  0.00  0.00    +0.000 A 
BRANCH   8  19
ATOM     14  C   UNL     1       0.883   8.741  21.829  0.00  0.00    +0.000 C 
ATOM     15  C   UNL     1       1.311   8.583  20.400  0.00  0.00    +0.000 A 
ATOM     16  C   UNL     1       1.044   9.574  19.454  0.00  0.00    +0.000 A 
ATOM     17  C   UNL     1       1.456   9.407  18.135  0.00  0.00    +0.000 A 
ATOM     18  C   UNL     1       2.139   8.249  17.753  0.00  0.00    +0.000 A 
ATOM     19  C   UNL     1       2.441   7.234  18.678  0.00  0.00    +0.000 A 
ATOM     20  C   UNL     1       2.009   7.429  20.005  0.00  0.00    +0.000 A 
ENDBRANCH   8  19
ENDBRANCH   7  12
ENDBRANCH   1   7
BRANCH   4  21
ATOM     21  C   UNL     1       8.468   9.471  17.841  0.00  0.00    +0.000 C 
BRANCH  21  22
ATOM     22  C   UNL     1       9.043  10.455  18.798  0.00  0.00    +0.000 A 
ATOM     23  N   UNL     1       9.543  10.215  20.005  0.00  0.00    +0.000 NA
ATOM     24  N   UNL     1       9.931  11.427  20.578  0.00  0.00    +0.000 NA
ATOM     25  C   UNL     1       9.646  12.352  19.705  0.00  0.00    +0.000 A 
ATOM     26  N   UNL     1       9.092  11.787  18.602  0.00  0.00    +0.000 N 
ATOM     27  C   UNL     1       8.752  12.750  17.583  0.00  0.00    +0.000 C 
ATOM     28  C   UNL     1       9.535  13.996  18.050  0.00  0.00    +0.000 C 
ATOM     29  C   UNL     1       9.759  13.813  19.574  0.00  0.00    +0.000 C 
ENDBRANCH  21  22
ENDBRANCH   4  21
TORSDOF 5
ENDMDL
MODEL 7
REMARK VINA RESULT:      -8.5      4.959      7.545
REMARK  Name = 
REMARK  6 active torsions:
REMARK  status: ('A' for Active; 'I' for Inactive)
REMARK    1  A    between atoms: C_1  and  C_2
REMARK    2  A    between atoms: C_6  and  C_7
REMARK    3  A    between atoms: C_11  and  C_12
REMARK    4  A    between atoms: C_12  and  N_13
REMARK    5  A    between atoms: N_16  and  C_17
REMARK    6  A    between atoms: C_17  and  C_18
REMARK                            x       y       z     vdW  Elec       q    Type
REMARK                         _______ _______ _______ _____ _____    ______ ____
ROOT
ATOM      1  N   UNL     1       1.903   7.660  20.789  0.00  0.00    +0.000 N 
ATOM      2  C   UNL     1       1.949   6.309  20.569  0.00  0.00    +0.000 C 
ATOM      3  O   UNL     1       1.004   5.551  20.746  0.00  0.00    +0.000 OA
ATOM      4  N   UNL     1       3.179   5.888  20.134  0.00  0.00    +0.000 N 
ATOM      5  H   UNL     1       2.787   8.125  20.936  0.00  0.00    +0.000 HD
ATOM      6  H   UNL     1       3.747   6.563  19.639  0.00  0.00    +0.000 HD
ENDROOT
BRANCH   1   7
ATOM      7  C   UNL     1       0.733   8.267  21.397  0.00  0.00    +0.000 C 
BRANCH   7  12
ATOM      8  C   UNL     1      -1.073  10.742  19.080  0.00  0.00    +0.000 A 
ATOM      9  C   UNL     1      -0.521  11.951  19.535  0.00  0.00    +0.000 A 
ATOM     10  C   UNL     1       0.442  11.978  20.548  0.00  0.00    +0.000 A 
ATOM     11  C   UNL     1       0.868  10.789  21.143  0.00  0.00    +0.000 A 
ATOM     12  C   UNL     1       0.340   9.564  20.725  0.00  0.00    +0.000 A 
ATOM     13  C   UNL     1      -0.625   9.559  19.701  0.00  0.00    +0.000 A 
BRANCH   8  19
ATOM     14  C   UNL     1      -5.490  12.241  17.188  0.00  0.00    +0.000 C 
ATOM     15  C   UNL     1      -4.233  11.436  17.044  0.00  0.00    +0.000 A 
ATOM     16  C   UNL     1      -3.981  10.693  15.889  0.00  0.00    +0.000 A 
ATOM     17  C   UNL     1      -2.804   9.958  15.776  0.00  0.00    +0.000 A 
ATOM     18  C   UNL     1      -1.870   9.962  16.817  0.00  0.00    +0.000 A 
ATOM     19  C   UNL     1      -2.079  10.709  17.989  0.00  0.00    +0.000 A 
ATOM     20  C   UNL     1      -3.280  11.440  18.077  0.00  0.00    +0.000 A 
ENDBRANCH   8  19
ENDBRANCH   7  12
ENDBRANCH   1   7
BRANCH   4  21
ATOM     21  C   UNL     1       3.358   4.504  19.741  0.00  0.00    +0.000 C 
BRANCH  21  22
ATOM     22  C   UNL     1       4.199   4.419  18.516  0.00  0.00    +0.000 A 
ATOM     23  N   UNL     1       3.854   3.936  17.328  0.00  0.00    +0.000 NA
ATOM     24  N   UNL     1       4.960   4.005  16.479  0.00  0.00    +0.000 NA
ATOM     25  C   UNL     1       5.930   4.517  17.182  0.00  0.00    +0.000 A 
ATOM     26  N   UNL     1       5.496   4.776  18.443  0.00  0.00    +0.000 N 
ATOM     27  C   UNL     1       6.516   5.352  19.285  0.00  0.00    +0.000 C 
ATOM     28  C   UNL     1       7.577   5.784  18.250  0.00  0.00    +0.000 C 
ATOM     29  C   UNL     1       7.340   4.896  17.000  0.00  0.00    +0.000 C 
ENDBRANCH  21  22
ENDBRANCH   4  21
TORSDOF 5
ENDMDL
MODEL 8
REMARK VINA RESULT:      -8.4      1.561      2.278
REMARK  Name = 
REMARK  6 active torsions:
REMARK  status: ('A' for Active; 'I' for Inactive)
REMARK    1  A    between atoms: C_1  and  C_2
REMARK    2  A    between atoms: C_6  and  C_7
REMARK    3  A    between atoms: C_11  and  C_12
REMARK    4  A    between atoms: C_12  and  N_13
REMARK    5  A    between atoms: N_16  and  C_17
REMARK    6  A    between atoms: C_17  and  C_18
REMARK                            x       y       z     vdW  Elec       q    Type
REMARK                         _______ _______ _______ _____ _____    ______ ____
ROOT
ATOM      1  N   UNL     1       7.575   6.152  18.643  0.00  0.00    +0.000 N 
ATOM      2  C   UNL     1       7.723   7.341  17.979  0.00  0.00    +0.000 C 
ATOM      3  O   UNL     1       7.230   7.583  16.885  0.00  0.00    +0.000 OA
ATOM      4  N   UNL     1       8.496   8.237  18.671  0.00  0.00    +0.000 N 
ATOM      5  H   UNL     1       8.268   5.936  19.344  0.00  0.00    +0.000 HD
ATOM      6  H   UNL     1       8.518   8.143  19.678  0.00  0.00    +0.000 HD
ENDROOT
BRANCH   1   7
ATOM      7  C   UNL     1       6.919   5.027  18.000  0.00  0.00    +0.000 C 
BRANCH   7  12
ATOM      8  C   UNL     1       3.358   5.721  19.263  0.00  0.00    +0.000 A 
ATOM      9  C   UNL     1       2.889   4.405  19.406  0.00  0.00    +0.000 A 
ATOM     10  C   UNL     1       3.707   3.304  19.135  0.00  0.00    +0.000 A 
ATOM     11  C   UNL     1       5.019   3.496  18.698  0.00  0.00    +0.000 A 
ATOM     12  C   UNL     1       5.525   4.789  18.535  0.00  0.00    +0.000 A 
ATOM     13  C   UNL     1       4.686   5.883  18.818  0.00  0.00    +0.000 A 
BRANCH   8  19
ATOM     14  C   UNL     1       1.377  10.144  17.901  0.00  0.00    +0.000 C 
ATOM     15  C   UNL     1       1.514   9.051  18.920  0.00  0.00    +0.000 A 
ATOM     16  C   UNL     1       0.820   9.103  20.130  0.00  0.00    +0.000 A 
ATOM     17  C   UNL     1       0.959   8.076  21.059  0.00  0.00    +0.000 A 
ATOM     18  C   UNL     1       1.794   6.989  20.784  0.00  0.00    +0.000 A 
ATOM     19  C   UNL     1       2.499   6.891  19.571  0.00  0.00    +0.000 A 
ATOM     20  C   UNL     1       2.341   7.947  18.652  0.00  0.00    +0.000 A 
ENDBRANCH   8  19
ENDBRANCH   7  12
ENDBRANCH   1   7
BRANCH   4  21
ATOM     21  C   UNL     1       8.649   9.586  18.160  0.00  0.00    +0.000 C 
BRANCH  21  22
ATOM     22  C   UNL     1       9.340  10.442  19.162  0.00  0.00    +0.000 A 
ATOM     23  N   UNL     1       9.099  10.521  20.465  0.00  0.00    +0.000 NA
ATOM     24  N   UNL     1       9.945  11.482  21.020  0.00  0.00    +0.000 NA
ATOM     25  C   UNL     1      10.660  11.952  20.037  0.00  0.00    +0.000 A 
ATOM     26  N   UNL     1      10.306  11.338  18.878  0.00  0.00    +0.000 N 
ATOM     27  C   UNL     1      11.059  11.803  17.739  0.00  0.00    +0.000 C 
ATOM     28  C   UNL     1      12.232  12.545  18.415  0.00  0.00    +0.000 C 
ATOM     29  C   UNL     1      11.730  12.941  19.829  0.00  0.00    +0.000 C 
ENDBRANCH  21  22
ENDBRANCH   4  21
TORSDOF 5
ENDMDL
MODEL 9
REMARK VINA RESULT:      -8.4      1.850      3.397
REMARK  Name = 
REMARK  6 active torsions:
REMARK  status: ('A' for Active; 'I' for Inactive)
REMARK    1  A    between atoms: C_1  and  C_2
REMARK    2  A    between atoms: C_6  and  C_7
REMARK    3  A    between atoms: C_11  and  C_12
REMARK    4  A    between atoms: C_12  and  N_13
REMARK    5  A    between atoms: N_16  and  C_17
REMARK    6  A    between atoms: C_17  and  C_18
REMARK                            x       y       z     vdW  Elec       q    Type
REMARK                         _______ _______ _______ _____ _____    ______ ____
ROOT
ATOM      1  N   UNL     1       7.155   8.007  16.980  0.00  0.00    +0.000 N 
ATOM      2  C   UNL     1       8.005   8.205  18.036  0.00  0.00    +0.000 C 
ATOM      3  O   UNL     1       8.361   7.322  18.805  0.00  0.00    +0.000 OA
ATOM      4  N   UNL     1       8.410   9.509  18.148  0.00  0.00    +0.000 N 
ATOM      5  H   UNL     1       6.673   8.822  16.628  0.00  0.00    +0.000 HD
ATOM      6  H   UNL     1       8.421  10.062  17.301  0.00  0.00    +0.000 HD
ENDROOT
BRANCH   1   7
ATOM      7  C   UNL     1       6.500   6.725  16.791  0.00  0.00    +0.000 C 
BRANCH   7  12
ATOM      8  C   UNL     1       3.126   5.540  18.192  0.00  0.00    +0.000 A 
ATOM      9  C   UNL     1       2.416   6.753  18.177  0.00  0.00    +0.000 A 
ATOM     10  C   UNL     1       2.994   7.932  17.696  0.00  0.00    +0.000 A 
ATOM     11  C   UNL     1       4.309   7.928  17.227  0.00  0.00    +0.000 A 
ATOM     12  C   UNL     1       5.054   6.745  17.230  0.00  0.00    +0.000 A 
ATOM     13  C   UNL     1       4.451   5.569  17.715  0.00  0.00    +0.000 A 
BRANCH   8  19
ATOM     14  C   UNL     1       1.533   2.675  22.011  0.00  0.00    +0.000 C 
ATOM     15  C   UNL     1       1.716   2.871  20.535  0.00  0.00    +0.000 A 
ATOM     16  C   UNL     1       1.280   1.910  19.621  0.00  0.00    +0.000 A 
ATOM     17  C   UNL     1       1.455   2.115  18.256  0.00  0.00    +0.000 A 
ATOM     18  C   UNL     1       2.068   3.284  17.795  0.00  0.00    +0.000 A 
ATOM     19  C   UNL     1       2.507   4.284  18.681  0.00  0.00    +0.000 A 
ATOM     20  C   UNL     1       2.319   4.046  20.057  0.00  0.00    +0.000 A 
ENDBRANCH   8  19
ENDBRANCH   7  12
ENDBRANCH   1   7
BRANCH   4  21
ATOM     21  C   UNL     1       9.405   9.860  19.143  0.00  0.00    +0.000 C 
BRANCH  21  22
ATOM     22  C   UNL     1      10.049  11.156  18.795  0.00  0.00    +0.000 A 
ATOM     23  N   UNL     1      10.540  11.527  17.618  0.00  0.00    +0.000 NA
ATOM     24  N   UNL     1      11.092  12.802  17.745  0.00  0.00    +0.000 NA
ATOM     25  C   UNL     1      10.924  13.152  18.989  0.00  0.00    +0.000 A 
ATOM     26  N   UNL     1      10.290  12.158  19.663  0.00  0.00    +0.000 N 
ATOM     27  C   UNL     1      10.062  12.473  21.052  0.00  0.00    +0.000 C 
ATOM     28  C   UNL     1      10.304  13.997  21.077  0.00  0.00    +0.000 C 
ATOM     29  C   UNL     1      11.213  14.305  19.857  0.00  0.00    +0.000 C 
ENDBRANCH  21  22
ENDBRANCH   4  21
TORSDOF 5
ENDMDL
