MODEL 1
REMARK VINA RESULT:      -8.3      0.000      0.000
REMARK  Name = 
REMARK  4 active torsions:
REMARK  status: ('A' for Active; 'I' for Inactive)
REMARK    1  A    between atoms: C_1  and  C_2
REMARK    2  A    between atoms: C_6  and  N_7
REMARK    3  A    between atoms: C_8  and  C_10
REMARK    4  A    between atoms: C_10  and  C_11
REMARK                            x       y       z     vdW  Elec       q    Type
REMARK                         _______ _______ _______ _____ _____    ______ ____
ROOT
ATOM      1  N   UNL     1       3.155   6.214  19.139  0.00  0.00    +0.000 N 
ATOM      2  C   UNL     1       2.637   4.932  19.019  0.00  0.00    +0.000 C 
ATOM      3  O   UNL     1       1.445   4.641  18.917  0.00  0.00    +0.000 OA
ATOM      4  H   UNL     1       4.154   6.327  19.016  0.00  0.00    +0.000 HD
ENDROOT
BRANCH   1  10
ATOM      5  C   UNL     1      -1.362  11.689  21.449  0.00  0.00    +0.000 C 
ATOM      6  C   UNL     1      -0.429  10.699  20.856  0.00  0.00    +0.000 A 
ATOM      7  C   UNL     1       0.230   9.636  21.436  0.00  0.00    +0.000 A 
ATOM      8  C   UNL     1       0.978   8.982  20.421  0.00  0.00    +0.000 A 
ATOM      9  C   UNL     1       1.803   7.842  20.407  0.00  0.00    +0.000 A 
ATOM     10  C   UNL     1       2.387   7.402  19.212  0.00  0.00    +0.000 A 
ATOM     11  C   UNL     1       2.198   8.155  18.047  0.00  0.00    +0.000 A 
ATOM     12  C   UNL     1       1.384   9.302  18.033  0.00  0.00    +0.000 A 
ATOM     13  C   UNL     1       0.775   9.682  19.236  0.00  0.00    +0.000 A 
ATOM     14  N   UNL     1      -0.083  10.720  19.528  0.00  0.00    +0.000 N 
ATOM     15  H   UNL     1      -0.422  11.389  18.851  0.00  0.00    +0.000 HD
ENDBRANCH   1  10
BRANCH   2  16
ATOM     16  C   UNL     1       3.677   3.826  18.989  0.00  0.00    +0.000 C 
BRANCH  16  17
ATOM     17  C   UNL     1       4.806   4.070  18.014  0.00  0.00    +0.000 A 
ATOM     18  C   UNL     1       6.083   4.491  18.462  0.00  0.00    +0.000 A 
ATOM     19  C   UNL     1       7.113   4.775  17.558  0.00  0.00    +0.000 A 
ATOM     20  C   UNL     1       6.838   4.648  16.215  0.00  0.00    +0.000 A 
ATOM     21  C   UNL     1       5.602   4.251  15.768  0.00  0.00    +0.000 A 
ATOM     22  C   UNL     1       4.569   3.956  16.635  0.00  0.00    +0.000 A 
ATOM     23  O   UNL     1       5.529   4.205  14.410  0.00  0.00    +0.000 OA
ATOM     24  C   UNL     1       6.853   4.657  14.056  0.00  0.00    +0.000 C 
ATOM     25  O   UNL     1       7.702   4.899  15.196  0.00  0.00    +0.000 OA
ENDBRANCH  16  17
ENDBRANCH   2  16
TORSDOF 3
ENDMDL
MODEL 2
REMARK VINA RESULT:      -8.1      0.896      1.534
REMARK  Name = 
REMARK  4 active torsions:
REMARK  status: ('A' for Active; 'I' for Inactive)
REMARK    1  A    between atoms: C_1  and  C_2
REMARK    2  A    between atoms: C_6  and  N_7
REMARK    3  A    between atoms: C_8  and  C_10
REMARK    4  A    between atoms: C_10  and  C_11
REMARK                            x       y       z     vdW  Elec       q    Type
REMARK                         _______ _______ _______ _____ _____    ______ ____
ROOT
ATOM      1  N   UNL     1       3.138   6.210  19.690  0.00  0.00    +0.000 N 
ATOM      2  C   UNL     1       2.836   4.986  19.112  0.00  0.00    +0.000 C 
ATOM      3  O   UNL     1       1.761   4.674  18.598  0.00  0.00    +0.000 OA
ATOM      4  H   UNL     1       4.110   6.402  19.895  0.00  0.00    +0.000 HD
ENDROOT
BRANCH   1  10
ATOM      5  C   UNL     1      -0.636  12.565  18.644  0.00  0.00    +0.000 C 
ATOM      6  C   UNL     1       0.003  11.267  18.976  0.00  0.00    +0.000 A 
ATOM      7  C   UNL     1       0.851  10.475  18.232  0.00  0.00    +0.000 A 
ATOM      8  C   UNL     1       1.204   9.352  19.025  0.00  0.00    +0.000 A 
ATOM      9  C   UNL     1       2.047   8.244  18.817  0.00  0.00    +0.000 A 
ATOM     10  C   UNL     1       2.235   7.293  19.828  0.00  0.00    +0.000 A 
ATOM     11  C   UNL     1       1.513   7.421  21.022  0.00  0.00    +0.000 A 
ATOM     12  C   UNL     1       0.659   8.514  21.255  0.00  0.00    +0.000 A 
ATOM     13  C   UNL     1       0.536   9.471  20.240  0.00  0.00    +0.000 A 
ATOM     14  N   UNL     1      -0.185  10.644  20.184  0.00  0.00    +0.000 N 
ATOM     15  H   UNL     1      -0.757  10.999  20.937  0.00  0.00    +0.000 HD
ENDBRANCH   1  10
BRANCH   2  16
ATOM     16  C   UNL     1       3.976   3.983  19.113  0.00  0.00    +0.000 C 
BRANCH  16  17
ATOM     17  C   UNL     1       5.035   4.255  18.068  0.00  0.00    +0.000 A 
ATOM     18  C   UNL     1       6.291   4.807  18.424  0.00  0.00    +0.000 A 
ATOM     19  C   UNL     1       7.251   5.115  17.454  0.00  0.00    +0.000 A 
ATOM     20  C   UNL     1       6.927   4.879  16.137  0.00  0.00    +0.000 A 
ATOM     21  C   UNL     1       5.708   4.355  15.778  0.00  0.00    +0.000 A 
ATOM     22  C   UNL     1       4.745   4.034  16.713  0.00  0.00    +0.000 A 
ATOM     23  O   UNL     1       5.577   4.217  14.431  0.00  0.00    +0.000 OA
ATOM     24  C   UNL     1       6.840   4.751  13.982  0.00  0.00    +0.000 C 
ATOM     25  O   UNL     1       7.718   5.134  15.061  0.00  0.00    +0.000 OA
ENDBRANCH  16  17
ENDBRANCH   2  16
TORSDOF 3
ENDMDL
MODEL 3
REMARK VINA RESULT:      -7.9      2.984      4.477
REMARK  Name = 
REMARK  4 active torsions:
REMARK  status: ('A' for Active; 'I' for Inactive)
REMARK    1  A    between atoms: C_1  and  C_2
REMARK    2  A    between atoms: C_6  and  N_7
REMARK    3  A    between atoms: C_8  and  C_10
REMARK    4  A    between atoms: C_10  and  C_11
REMARK                            x       y       z     vdW  Elec       q    Type
REMARK                         _______ _______ _______ _____ _____    ______ ____
ROOT
ATOM      1  N   UNL     1       1.189   9.239  17.677  0.00  0.00    +0.000 N 
ATOM      2  C   UNL     1       1.923   8.458  18.558  0.00  0.00    +0.000 C 
ATOM      3  O   UNL     1       1.687   8.305  19.757  0.00  0.00    +0.000 OA
ATOM      4  H   UNL     1       1.371   9.122  16.687  0.00  0.00    +0.000 HD
ENDROOT
BRANCH   1  10
ATOM      5  C   UNL     1      -5.665  12.166  18.083  0.00  0.00    +0.000 C 
ATOM      6  C   UNL     1      -4.264  11.682  18.135  0.00  0.00    +0.000 A 
ATOM      7  C   UNL     1      -3.694  10.542  17.612  0.00  0.00    +0.000 A 
ATOM      8  C   UNL     1      -2.307  10.569  17.915  0.00  0.00    +0.000 A 
ATOM      9  C   UNL     1      -1.232   9.711  17.618  0.00  0.00    +0.000 A 
ATOM     10  C   UNL     1       0.069  10.032  18.026  0.00  0.00    +0.000 A 
ATOM     11  C   UNL     1       0.273  11.183  18.799  0.00  0.00    +0.000 A 
ATOM     12  C   UNL     1      -0.784  12.056  19.116  0.00  0.00    +0.000 A 
ATOM     13  C   UNL     1      -2.062  11.727  18.646  0.00  0.00    +0.000 A 
ATOM     14  N   UNL     1      -3.267  12.385  18.765  0.00  0.00    +0.000 N 
ATOM     15  H   UNL     1      -3.391  13.271  19.236  0.00  0.00    +0.000 HD
ENDBRANCH   1  10
BRANCH   2  16
ATOM     16  C   UNL     1       3.096   7.724  17.933  0.00  0.00    +0.000 C 
BRANCH  16  17
ATOM     17  C   UNL     1       3.081   6.230  18.164  0.00  0.00    +0.000 A 
ATOM     18  C   UNL     1       1.941   5.451  17.845  0.00  0.00    +0.000 A 
ATOM     19  C   UNL     1       1.901   4.078  18.112  0.00  0.00    +0.000 A 
ATOM     20  C   UNL     1       3.004   3.511  18.712  0.00  0.00    +0.000 A 
ATOM     21  C   UNL     1       4.111   4.258  19.036  0.00  0.00    +0.000 A 
ATOM     22  C   UNL     1       4.182   5.612  18.777  0.00  0.00    +0.000 A 
ATOM     23  O   UNL     1       5.081   3.517  19.637  0.00  0.00    +0.000 OA
ATOM     24  C   UNL     1       4.439   2.226  19.687  0.00  0.00    +0.000 C 
ATOM     25  O   UNL     1       3.138   2.206  19.064  0.00  0.00    +0.000 OA
ENDBRANCH  16  17
ENDBRANCH   2  16
TORSDOF 3
ENDMDL
MODEL 4
REMARK VINA RESULT:      -7.8      1.378      2.150
REMARK  Name = 
REMARK  4 active torsions:
REMARK  status: ('A' for Active; 'I' for Inactive)
REMARK    1  A    between atoms: C_1  and  C_2
REMARK    2  A    between atoms: C_6  and  N_7
REMARK    3  A    between atoms: C_8  and  C_10
REMARK    4  A    between atoms: C_10  and  C_11
REMARK                            x       y       z     vdW  Elec       q    Type
REMARK                         _______ _______ _______ _____ _____    ______ ____
ROOT
ATOM      1  N   UNL     1       2.389   6.581  20.489  0.00  0.00    +0.000 N 
ATOM      2  C   UNL     1       1.827   5.313  20.465  0.00  0.00    +0.000 C 
ATOM      3  O   UNL     1       0.623   5.055  20.492  0.00  0.00    +0.000 OA
ATOM      4  H   UNL     1       3.373   6.660  20.263  0.00  0.00    +0.000 HD
ENDROOT
BRANCH   1  10
ATOM      5  C   UNL     1      -1.907  12.159  22.970  0.00  0.00    +0.000 C 
ATOM      6  C   UNL     1      -1.015  11.151  22.345  0.00  0.00    +0.000 A 
ATOM      7  C   UNL     1      -0.389  10.052  22.893  0.00  0.00    +0.000 A 
ATOM      8  C   UNL     1       0.324   9.395  21.856  0.00  0.00    +0.000 A 
ATOM      9  C   UNL     1       1.108   8.227  21.808  0.00  0.00    +0.000 A 
ATOM     10  C   UNL     1       1.664   7.793  20.597  0.00  0.00    +0.000 A 
ATOM     11  C   UNL     1       1.492   8.580  19.451  0.00  0.00    +0.000 A 
ATOM     12  C   UNL     1       0.718   9.755  19.472  0.00  0.00    +0.000 A 
ATOM     13  C   UNL     1       0.136  10.129  20.689  0.00  0.00    +0.000 A 
ATOM     14  N   UNL     1      -0.682  11.189  21.014  0.00  0.00    +0.000 N 
ATOM     15  H   UNL     1      -1.004  11.885  20.355  0.00  0.00    +0.000 HD
ENDBRANCH   1  10
BRANCH   2  16
ATOM     16  C   UNL     1       2.828   4.175  20.370  0.00  0.00    +0.000 C 
BRANCH  16  17
ATOM     17  C   UNL     1       3.750   4.265  19.175  0.00  0.00    +0.000 A 
ATOM     18  C   UNL     1       3.264   4.072  17.858  0.00  0.00    +0.000 A 
ATOM     19  C   UNL     1       4.124   4.096  16.754  0.00  0.00    +0.000 A 
ATOM     20  C   UNL     1       5.465   4.295  16.995  0.00  0.00    +0.000 A 
ATOM     21  C   UNL     1       5.950   4.472  18.268  0.00  0.00    +0.000 A 
ATOM     22  C   UNL     1       5.125   4.462  19.374  0.00  0.00    +0.000 A 
ATOM     23  O   UNL     1       7.301   4.635  18.292  0.00  0.00    +0.000 OA
ATOM     24  C   UNL     1       7.613   4.501  16.890  0.00  0.00    +0.000 C 
ATOM     25  O   UNL     1       6.448   4.328  16.056  0.00  0.00    +0.000 OA
ENDBRANCH  16  17
ENDBRANCH   2  16
TORSDOF 3
ENDMDL
MODEL 5
REMARK VINA RESULT:      -7.8      2.750      4.091
REMARK  Name = 
REMARK  4 active torsions:
REMARK  status: ('A' for Active; 'I' for Inactive)
REMARK    1  A    between atoms: C_1  and  C_2
REMARK    2  A    between atoms: C_6  and  N_7
REMARK    3  A    between atoms: C_8  and  C_10
REMARK    4  A    between atoms: C_10  and  C_11
REMARK                            x       y       z     vdW  Elec       q    Type
REMARK                         _______ _______ _______ _____ _____    ______ ____
ROOT
ATOM      1  N   UNL     1       2.024   8.357  19.768  0.00  0.00    +0.000 N 
ATOM      2  C   UNL     1       2.014   8.397  18.381  0.00  0.00    +0.000 C 
ATOM      3  O   UNL     1       1.243   9.054  17.682  0.00  0.00    +0.000 OA
ATOM      4  H   UNL     1       2.828   7.937  20.217  0.00  0.00    +0.000 HD
ENDROOT
BRANCH   1  10
ATOM      5  C   UNL     1      -1.767  13.627  23.452  0.00  0.00    +0.000 C 
ATOM      6  C   UNL     1      -1.128  12.469  22.779  0.00  0.00    +0.000 A 
ATOM      7  C   UNL     1      -0.251  12.427  21.716  0.00  0.00    +0.000 A 
ATOM      8  C   UNL     1       0.086  11.068  21.483  0.00  0.00    +0.000 A 
ATOM      9  C   UNL     1       0.944  10.425  20.572  0.00  0.00    +0.000 A 
ATOM     10  C   UNL     1       1.109   9.034  20.611  0.00  0.00    +0.000 A 
ATOM     11  C   UNL     1       0.350   8.286  21.520  0.00  0.00    +0.000 A 
ATOM     12  C   UNL     1      -0.520   8.902  22.438  0.00  0.00    +0.000 A 
ATOM     13  C   UNL     1      -0.619  10.299  22.403  0.00  0.00    +0.000 A 
ATOM     14  N   UNL     1      -1.348  11.174  23.179  0.00  0.00    +0.000 N 
ATOM     15  H   UNL     1      -1.945  10.898  23.945  0.00  0.00    +0.000 HD
ENDBRANCH   1  10
BRANCH   2  16
ATOM     16  C   UNL     1       3.090   7.558  17.713  0.00  0.00    +0.000 C 
BRANCH  16  17
ATOM     17  C   UNL     1       3.044   6.092  18.080  0.00  0.00    +0.000 A 
ATOM     18  C   UNL     1       1.856   5.335  17.924  0.00  0.00    +0.000 A 
ATOM     19  C   UNL     1       1.792   3.993  18.317  0.00  0.00    +0.000 A 
ATOM     20  C   UNL     1       2.920   3.438  18.879  0.00  0.00    +0.000 A 
ATOM     21  C   UNL     1       4.074   4.165  19.046  0.00  0.00    +0.000 A 
ATOM     22  C   UNL     1       4.169   5.487  18.659  0.00  0.00    +0.000 A 
ATOM     23  O   UNL     1       5.064   3.441  19.634  0.00  0.00    +0.000 OA
ATOM     24  C   UNL     1       4.386   2.187  19.853  0.00  0.00    +0.000 C 
ATOM     25  O   UNL     1       3.039   2.164  19.338  0.00  0.00    +0.000 OA
ENDBRANCH  16  17
ENDBRANCH   2  16
TORSDOF 3
ENDMDL
MODEL 6
REMARK VINA RESULT:      -7.7      2.905      4.322
REMARK  Name = 
REMARK  4 active torsions:
REMARK  status: ('A' for Active; 'I' for Inactive)
REMARK    1  A    between atoms: C_1  and  C_2
REMARK    2  A    between atoms: C_6  and  N_7
REMARK    3  A    between atoms: C_8  and  C_10
REMARK    4  A    between atoms: C_10  and  C_11
REMARK                            x       y       z     vdW  Elec       q    Type
REMARK                         _______ _______ _______ _____ _____    ______ ____
ROOT
ATOM      1  N   UNL     1       1.197   9.350  17.672  0.00  0.00    +0.000 N 
ATOM      2  C   UNL     1       1.935   8.536  18.518  0.00  0.00    +0.000 C 
ATOM      3  O   UNL     1       1.682   8.306  19.702  0.00  0.00    +0.000 OA
ATOM      4  H   UNL     1       1.397   9.297  16.680  0.00  0.00    +0.000 HD
ENDROOT
BRANCH   1  10
ATOM      5  C   UNL     1      -5.746  12.049  18.155  0.00  0.00    +0.000 C 
ATOM      6  C   UNL     1      -4.331  11.606  18.196  0.00  0.00    +0.000 A 
ATOM      7  C   UNL     1      -3.723  10.507  17.628  0.00  0.00    +0.000 A 
ATOM      8  C   UNL     1      -2.340  10.563  17.942  0.00  0.00    +0.000 A 
ATOM      9  C   UNL     1      -1.238   9.751  17.616  0.00  0.00    +0.000 A 
ATOM     10  C   UNL     1       0.050  10.094  18.047  0.00  0.00    +0.000 A 
ATOM     11  C   UNL     1       0.214  11.215  18.870  0.00  0.00    +0.000 A 
ATOM     12  C   UNL     1      -0.870  12.041  19.217  0.00  0.00    +0.000 A 
ATOM     13  C   UNL     1      -2.135  11.695  18.725  0.00  0.00    +0.000 A 
ATOM     14  N   UNL     1      -3.360  12.310  18.863  0.00  0.00    +0.000 N 
ATOM     15  H   UNL     1      -3.513  13.170  19.371  0.00  0.00    +0.000 HD
ENDBRANCH   1  10
BRANCH   2  16
ATOM     16  C   UNL     1       3.137   7.870  17.872  0.00  0.00    +0.000 C 
BRANCH  16  17
ATOM     17  C   UNL     1       3.259   6.394  18.174  0.00  0.00    +0.000 A 
ATOM     18  C   UNL     1       4.451   5.852  18.715  0.00  0.00    +0.000 A 
ATOM     19  C   UNL     1       4.589   4.478  18.940  0.00  0.00    +0.000 A 
ATOM     20  C   UNL     1       3.531   3.666  18.601  0.00  0.00    +0.000 A 
ATOM     21  C   UNL     1       2.373   4.177  18.065  0.00  0.00    +0.000 A 
ATOM     22  C   UNL     1       2.205   5.529  17.840  0.00  0.00    +0.000 A 
ATOM     23  O   UNL     1       1.459   3.210  17.783  0.00  0.00    +0.000 OA
ATOM     24  C   UNL     1       2.191   2.028  18.167  0.00  0.00    +0.000 C 
ATOM     25  O   UNL     1       3.490   2.313  18.726  0.00  0.00    +0.000 OA
ENDBRANCH  16  17
ENDBRANCH   2  16
TORSDOF 3
ENDMDL
MODEL 7
REMARK VINA RESULT:      -7.6      1.326      1.735
REMARK  Name = 
REMARK  4 active torsions:
REMARK  status: ('A' for Active; 'I' for Inactive)
REMARK    1  A    between atoms: C_1  and  C_2
REMARK    2  A    between atoms: C_6  and  N_7
REMARK    3  A    between atoms: C_8  and  C_10
REMARK    4  A    between atoms: C_10  and  C_11
REMARK                            x       y       z     vdW  Elec       q    Type
REMARK                         _______ _______ _______ _____ _____    ______ ____
ROOT
ATOM      1  N   UNL     1       2.044   7.004  20.574  0.00  0.00    +0.000 N 
ATOM      2  C   UNL     1       2.756   6.637  19.441  0.00  0.00    +0.000 C 
ATOM      3  O   UNL     1       2.912   7.324  18.431  0.00  0.00    +0.000 OA
ATOM      4  H   UNL     1       2.159   6.434  21.403  0.00  0.00    +0.000 HD
ENDROOT
BRANCH   1  10
ATOM      5  C   UNL     1      -2.265  12.481  23.249  0.00  0.00    +0.000 C 
ATOM      6  C   UNL     1      -1.364  11.501  22.593  0.00  0.00    +0.000 A 
ATOM      7  C   UNL     1      -0.777  10.358  23.092  0.00  0.00    +0.000 A 
ATOM      8  C   UNL     1      -0.032   9.758  22.043  0.00  0.00    +0.000 A 
ATOM      9  C   UNL     1       0.736   8.582  21.948  0.00  0.00    +0.000 A 
ATOM     10  C   UNL     1       1.333   8.219  20.734  0.00  0.00    +0.000 A 
ATOM     11  C   UNL     1       1.218   9.082  19.636  0.00  0.00    +0.000 A 
ATOM     12  C   UNL     1       0.462  10.266  19.704  0.00  0.00    +0.000 A 
ATOM     13  C   UNL     1      -0.163  10.570  20.920  0.00  0.00    +0.000 A 
ATOM     14  N   UNL     1      -0.978  11.620  21.282  0.00  0.00    +0.000 N 
ATOM     15  H   UNL     1      -1.263  12.363  20.659  0.00  0.00    +0.000 HD
ENDBRANCH   1  10
BRANCH   2  16
ATOM     16  C   UNL     1       3.406   5.267  19.515  0.00  0.00    +0.000 C 
BRANCH  16  17
ATOM     17  C   UNL     1       4.568   5.085  18.564  0.00  0.00    +0.000 A 
ATOM     18  C   UNL     1       5.896   5.371  18.967  0.00  0.00    +0.000 A 
ATOM     19  C   UNL     1       6.967   5.261  18.073  0.00  0.00    +0.000 A 
ATOM     20  C   UNL     1       6.683   4.881  16.780  0.00  0.00    +0.000 A 
ATOM     21  C   UNL     1       5.398   4.610  16.375  0.00  0.00    +0.000 A 
ATOM     22  C   UNL     1       4.324   4.702  17.237  0.00  0.00    +0.000 A 
ATOM     23  O   UNL     1       5.328   4.271  15.059  0.00  0.00    +0.000 OA
ATOM     24  C   UNL     1       6.713   4.396  14.676  0.00  0.00    +0.000 C 
ATOM     25  O   UNL     1       7.584   4.741  15.773  0.00  0.00    +0.000 OA
ENDBRANCH  16  17
ENDBRANCH   2  16
TORSDOF 3
ENDMDL
MODEL 8
REMARK VINA RESULT:      -7.5      2.928      4.080
REMARK  Name = 
REMARK  4 active torsions:
REMARK  status: ('A' for Active; 'I' for Inactive)
REMARK    1  A    between atoms: C_1  and  C_2
REMARK    2  A    between atoms: C_6  and  N_7
REMARK    3  A    between atoms: C_8  and  C_10
REMARK    4  A    between atoms: C_10  and  C_11
REMARK                            x       y       z     vdW  Elec       q    Type
REMARK                         _______ _______ _______ _____ _____    ______ ____
ROOT
ATOM      1  N   UNL     1       1.927   8.329  19.659  0.00  0.00    +0.000 N 
ATOM      2  C   UNL     1       2.091   8.583  18.305  0.00  0.00    +0.000 C 
ATOM      3  O   UNL     1       1.542   9.480  17.665  0.00  0.00    +0.000 OA
ATOM      4  H   UNL     1       2.582   7.694  20.098  0.00  0.00    +0.000 HD
ENDROOT
BRANCH   1  10
ATOM      5  C   UNL     1      -1.637  13.733  23.377  0.00  0.00    +0.000 C 
ATOM      6  C   UNL     1      -1.042  12.551  22.704  0.00  0.00    +0.000 A 
ATOM      7  C   UNL     1      -0.209  12.474  21.609  0.00  0.00    +0.000 A 
ATOM      8  C   UNL     1       0.099  11.106  21.391  0.00  0.00    +0.000 A 
ATOM      9  C   UNL     1       0.911  10.430  20.461  0.00  0.00    +0.000 A 
ATOM     10  C   UNL     1       1.056   9.038  20.522  0.00  0.00    +0.000 A 
ATOM     11  C   UNL     1       0.323   8.321  21.477  0.00  0.00    +0.000 A 
ATOM     12  C   UNL     1      -0.501   8.969  22.415  0.00  0.00    +0.000 A 
ATOM     13  C   UNL     1      -0.581  10.366  22.354  0.00  0.00    +0.000 A 
ATOM     14  N   UNL     1      -1.265  11.269  23.139  0.00  0.00    +0.000 N 
ATOM     15  H   UNL     1      -1.836  11.017  23.934  0.00  0.00    +0.000 HD
ENDBRANCH   1  10
BRANCH   2  16
ATOM     16  C   UNL     1       3.068   7.659  17.599  0.00  0.00    +0.000 C 
BRANCH  16  17
ATOM     17  C   UNL     1       3.071   6.243  18.130  0.00  0.00    +0.000 A 
ATOM     18  C   UNL     1       4.189   5.724  18.827  0.00  0.00    +0.000 A 
ATOM     19  C   UNL     1       4.219   4.396  19.268  0.00  0.00    +0.000 A 
ATOM     20  C   UNL     1       3.129   3.605  18.985  0.00  0.00    +0.000 A 
ATOM     21  C   UNL     1       2.042   4.093  18.300  0.00  0.00    +0.000 A 
ATOM     22  C   UNL     1       1.981   5.401  17.861  0.00  0.00    +0.000 A 
ATOM     23  O   UNL     1       1.082   3.150  18.107  0.00  0.00    +0.000 OA
ATOM     24  C   UNL     1       1.707   2.001  18.716  0.00  0.00    +0.000 C 
ATOM     25  O   UNL     1       2.988   2.293  19.312  0.00  0.00    +0.000 OA
ENDBRANCH  16  17
ENDBRANCH   2  16
TORSDOF 3
ENDMDL
MODEL 9
REMARK VINA RESULT:      -7.5      3.467      8.617
REMARK  Name = 
REMARK  4 active torsions:
REMARK  status: ('A' for Active; 'I' for Inactive)
REMARK    1  A    between atoms: C_1  and  C_2
REMARK    2  A    between atoms: C_6  and  N_7
REMARK    3  A    between atoms: C_8  and  C_10
REMARK    4  A    between atoms: C_10  and  C_11
REMARK                            x       y       z     vdW  Elec       q    Type
REMARK                         _______ _______ _______ _____ _____    ______ ____
ROOT
ATOM      1  N   UNL     1       1.988   7.891  19.108  0.00  0.00    +0.000 N 
ATOM      2  C   UNL     1       1.703   9.144  18.586  0.00  0.00    +0.000 C 
ATOM      3  O   UNL     1       2.006   9.545  17.462  0.00  0.00    +0.000 OA
ATOM      4  H   UNL     1       1.514   7.622  19.962  0.00  0.00    +0.000 HD
ENDROOT
BRANCH   1  10
ATOM      5  C   UNL     1       6.682   4.232  14.603  0.00  0.00    +0.000 C 
ATOM      6  C   UNL     1       5.721   4.810  15.575  0.00  0.00    +0.000 A 
ATOM      7  C   UNL     1       5.534   6.115  15.976  0.00  0.00    +0.000 A 
ATOM      8  C   UNL     1       4.460   6.137  16.903  0.00  0.00    +0.000 A 
ATOM      9  C   UNL     1       3.810   7.165  17.611  0.00  0.00    +0.000 A 
ATOM     10  C   UNL     1       2.722   6.877  18.445  0.00  0.00    +0.000 A 
ATOM     11  C   UNL     1       2.339   5.541  18.623  0.00  0.00    +0.000 A 
ATOM     12  C   UNL     1       2.975   4.493  17.934  0.00  0.00    +0.000 A 
ATOM     13  C   UNL     1       4.025   4.826  17.069  0.00  0.00    +0.000 A 
ATOM     14  N   UNL     1       4.807   4.040  16.251  0.00  0.00    +0.000 N 
ATOM     15  H   UNL     1       4.705   3.040  16.151  0.00  0.00    +0.000 HD
ENDBRANCH   1  10
BRANCH   2  16
ATOM     16  C   UNL     1       0.922  10.057  19.514  0.00  0.00    +0.000 C 
BRANCH  16  17
ATOM     17  C   UNL     1      -0.373  10.571  18.926  0.00  0.00    +0.000 A 
ATOM     18  C   UNL     1      -1.127  11.576  19.580  0.00  0.00    +0.000 A 
ATOM     19  C   UNL     1      -2.356  12.012  19.070  0.00  0.00    +0.000 A 
ATOM     20  C   UNL     1      -2.816  11.416  17.917  0.00  0.00    +0.000 A 
ATOM     21  C   UNL     1      -2.099  10.432  17.280  0.00  0.00    +0.000 A 
ATOM     22  C   UNL     1      -0.881   9.989  17.755  0.00  0.00    +0.000 A 
ATOM     23  O   UNL     1      -2.733   9.961  16.172  0.00  0.00    +0.000 OA
ATOM     24  C   UNL     1      -3.949  10.736  16.209  0.00  0.00    +0.000 C 
ATOM     25  O   UNL     1      -3.989  11.691  17.290  0.00  0.00    +0.000 OA
ENDBRANCH  16  17
ENDBRANCH   2  16
TORSDOF 3
ENDMDL
