MODEL 1
REMARK VINA RESULT:      -8.8      0.000      0.000
REMARK  Name = 
REMARK  5 active torsions:
REMARK  status: ('A' for Active; 'I' for Inactive)
REMARK    1  A    between atoms: C_1  and  C_2
REMARK    2  A    between atoms: C_9  and  C_10
REMARK    3  A    between atoms: C_10  and  N_11
REMARK    4  A    between atoms: C_20  and  C_21
REMARK    5  A    between atoms: N_23  and  C_24
REMARK                            x       y       z     vdW  Elec       q    Type
REMARK                         _______ _______ _______ _____ _____    ______ ____
ROOT
ATOM      1  N   UNL     1       3.883   6.184  18.502  0.00  0.00    +0.000 NA
ATOM      2  C   UNL     1       4.223   5.202  19.601  0.00  0.00    +0.000 C 
ATOM      3  C   UNL     1       3.154   4.130  19.686  0.00  0.00    +0.000 A 
ATOM      4  C   UNL     1       2.518   3.867  20.904  0.00  0.00    +0.000 A 
ATOM      5  C   UNL     1       1.250   3.291  20.903  0.00  0.00    +0.000 A 
ATOM      6  C   UNL     1       0.644   2.943  19.694  0.00  0.00    +0.000 A 
ATOM      7  C   UNL     1       1.332   3.092  18.484  0.00  0.00    +0.000 A 
ATOM      8  C   UNL     1       2.605   3.676  18.469  0.00  0.00    +0.000 A 
ATOM      9  C   UNL     1       3.324   4.036  17.177  0.00  0.00    +0.000 C 
ATOM     10  C   UNL     1       4.053   5.414  17.232  0.00  0.00    +0.000 C 
ENDROOT
BRANCH  10  11
ATOM     11  C   UNL     1       5.612   5.363  17.010  0.00  0.00    +0.000 C 
ATOM     12  O   UNL     1       6.270   4.339  16.908  0.00  0.00    +0.000 OA
ATOM     13  N   UNL     1       6.148   6.662  17.009  0.00  0.00    +0.000 N 
ATOM     14  H   UNL     1       5.484   7.356  17.353  0.00  0.00    +0.000 HD
BRANCH  13  15
ATOM     15  C   UNL     1       7.538   6.948  17.202  0.00  0.00    +0.000 C 
ATOM     16  C   UNL     1       8.119   7.013  18.597  0.00  0.00    +0.000 C 
ATOM     17  C   UNL     1       7.992   8.259  17.775  0.00  0.00    +0.000 C 
ENDBRANCH  13  15
ENDBRANCH  10  11
BRANCH   1  18
ATOM     18  C   UNL     1       2.544   6.738  18.776  0.00  0.00    +0.000 C 
BRANCH  18  27
ATOM     19  C   UNL     1       1.165   7.221  21.425  0.00  0.00    +0.000 C 
ATOM     20  C   UNL     1       0.877   8.524  20.738  0.00  0.00    +0.000 A 
ATOM     21  C   UNL     1       0.094   9.429  21.371  0.00  0.00    +0.000 A 
ATOM     22  C   UNL     1      -0.211  10.699  20.745  0.00  0.00    +0.000 A 
ATOM     23  C   UNL     1       0.290  11.019  19.541  0.00  0.00    +0.000 A 
ATOM     24  C   UNL     1       1.129  10.098  18.851  0.00  0.00    +0.000 A 
ATOM     25  N   UNL     1       1.722  10.217  17.685  0.00  0.00    +0.000 NA
ATOM     26  C   UNL     1       2.375   9.034  17.486  0.00  0.00    +0.000 A 
ATOM     27  C   UNL     1       2.189   8.158  18.535  0.00  0.00    +0.000 A 
ATOM     28  N   UNL     1       1.397   8.863  19.454  0.00  0.00    +0.000 N 
ENDBRANCH  18  27
ENDBRANCH   1  18
TORSDOF 4
ENDMDL
MODEL 2
REMARK VINA RESULT:      -8.2      1.439      1.926
REMARK  Name = 
REMARK  5 active torsions:
REMARK  status: ('A' for Active; 'I' for Inactive)
REMARK    1  A    between atoms: C_1  and  C_2
REMARK    2  A    between atoms: C_9  and  C_10
REMARK    3  A    between atoms: C_10  and  N_11
REMARK    4  A    between atoms: C_20  and  C_21
REMARK    5  A    between atoms: N_23  and  C_24
REMARK                            x       y       z     vdW  Elec       q    Type
REMARK                         _______ _______ _______ _____ _____    ______ ____
ROOT
ATOM      1  N   UNL     1       3.989   5.877  18.625  0.00  0.00    +0.000 NA
ATOM      2  C   UNL     1       4.339   4.770  19.594  0.00  0.00    +0.000 C 
ATOM      3  C   UNL     1       3.146   3.853  19.785  0.00  0.00    +0.000 A 
ATOM      4  C   UNL     1       2.668   3.581  21.071  0.00  0.00    +0.000 A 
ATOM      5  C   UNL     1       1.343   3.188  21.238  0.00  0.00    +0.000 A 
ATOM      6  C   UNL     1       0.517   3.029  20.123  0.00  0.00    +0.000 A 
ATOM      7  C   UNL     1       1.030   3.181  18.830  0.00  0.00    +0.000 A 
ATOM      8  C   UNL     1       2.359   3.583  18.647  0.00  0.00    +0.000 A 
ATOM      9  C   UNL     1       2.923   3.945  17.279  0.00  0.00    +0.000 C 
ATOM     10  C   UNL     1       3.849   5.200  17.300  0.00  0.00    +0.000 C 
ENDROOT
BRANCH  10  11
ATOM     11  C   UNL     1       5.333   4.952  16.829  0.00  0.00    +0.000 C 
ATOM     12  O   UNL     1       6.314   5.518  17.285  0.00  0.00    +0.000 OA
ATOM     13  N   UNL     1       5.361   4.034  15.766  0.00  0.00    +0.000 N 
ATOM     14  H   UNL     1       4.434   3.868  15.371  0.00  0.00    +0.000 HD
BRANCH  13  15
ATOM     15  C   UNL     1       6.477   3.876  14.882  0.00  0.00    +0.000 C 
ATOM     16  C   UNL     1       6.864   4.988  13.933  0.00  0.00    +0.000 C 
ATOM     17  C   UNL     1       6.282   3.713  13.402  0.00  0.00    +0.000 C 
ENDBRANCH  13  15
ENDBRANCH  10  11
BRANCH   1  18
ATOM     18  C   UNL     1       2.805   6.587  19.143  0.00  0.00    +0.000 C 
BRANCH  18  27
ATOM     19  C   UNL     1       1.100   7.303  21.538  0.00  0.00    +0.000 C 
ATOM     20  C   UNL     1       0.819   8.483  20.655  0.00  0.00    +0.000 A 
ATOM     21  C   UNL     1      -0.084   9.402  21.071  0.00  0.00    +0.000 A 
ATOM     22  C   UNL     1      -0.387  10.555  20.249  0.00  0.00    +0.000 A 
ATOM     23  C   UNL     1       0.231  10.755  19.074  0.00  0.00    +0.000 A 
ATOM     24  C   UNL     1       1.198   9.817  18.610  0.00  0.00    +0.000 A 
ATOM     25  N   UNL     1       1.914   9.829  17.510  0.00  0.00    +0.000 NA
ATOM     26  C   UNL     1       2.654   8.681  17.544  0.00  0.00    +0.000 A 
ATOM     27  C   UNL     1       2.398   7.935  18.676  0.00  0.00    +0.000 A 
ATOM     28  N   UNL     1       1.465   8.692  19.400  0.00  0.00    +0.000 N 
ENDBRANCH  18  27
ENDBRANCH   1  18
TORSDOF 4
ENDMDL
MODEL 3
REMARK VINA RESULT:      -7.7      3.121      6.121
REMARK  Name = 
REMARK  5 active torsions:
REMARK  status: ('A' for Active; 'I' for Inactive)
REMARK    1  A    between atoms: C_1  and  C_2
REMARK    2  A    between atoms: C_9  and  C_10
REMARK    3  A    between atoms: C_10  and  N_11
REMARK    4  A    between atoms: C_20  and  C_21
REMARK    5  A    between atoms: N_23  and  C_24
REMARK                            x       y       z     vdW  Elec       q    Type
REMARK                         _______ _______ _______ _____ _____    ______ ____
ROOT
ATOM      1  N   UNL     1       4.740   5.065  15.732  0.00  0.00    +0.000 NA
ATOM      2  C   UNL     1       5.685   6.236  15.582  0.00  0.00    +0.000 C 
ATOM      3  C   UNL     1       6.821   6.115  16.579  0.00  0.00    +0.000 A 
ATOM      4  C   UNL     1       7.108   7.174  17.448  0.00  0.00    +0.000 A 
ATOM      5  C   UNL     1       7.763   6.913  18.649  0.00  0.00    +0.000 A 
ATOM      6  C   UNL     1       8.163   5.611  18.957  0.00  0.00    +0.000 A 
ATOM      7  C   UNL     1       7.985   4.574  18.033  0.00  0.00    +0.000 A 
ATOM      8  C   UNL     1       7.323   4.820  16.824  0.00  0.00    +0.000 A 
ATOM      9  C   UNL     1       6.934   3.705  15.863  0.00  0.00    +0.000 C 
ATOM     10  C   UNL     1       5.513   3.881  15.246  0.00  0.00    +0.000 C 
ENDROOT
BRANCH  10  11
ATOM     11  C   UNL     1       5.468   4.003  13.675  0.00  0.00    +0.000 C 
ATOM     12  O   UNL     1       4.683   4.699  13.051  0.00  0.00    +0.000 OA
ATOM     13  N   UNL     1       6.418   3.148  13.092  0.00  0.00    +0.000 N 
ATOM     14  H   UNL     1       6.798   2.475  13.759  0.00  0.00    +0.000 HD
BRANCH  13  15
ATOM     15  C   UNL     1       6.387   2.745  11.717  0.00  0.00    +0.000 C 
ATOM     16  C   UNL     1       6.028   1.324  11.345  0.00  0.00    +0.000 C 
ATOM     17  C   UNL     1       7.428   1.824  11.151  0.00  0.00    +0.000 C 
ENDBRANCH  13  15
ENDBRANCH  10  11
BRANCH   1  18
ATOM     18  C   UNL     1       4.267   5.029  17.128  0.00  0.00    +0.000 C 
BRANCH  18  27
ATOM     19  C   UNL     1       2.575   6.512  19.151  0.00  0.00    +0.000 C 
ATOM     20  C   UNL     1       2.304   5.097  19.570  0.00  0.00    +0.000 A 
ATOM     21  C   UNL     1       1.538   4.882  20.666  0.00  0.00    +0.000 A 
ATOM     22  C   UNL     1       1.252   3.532  21.107  0.00  0.00    +0.000 A 
ATOM     23  C   UNL     1       1.714   2.468  20.432  0.00  0.00    +0.000 A 
ATOM     24  C   UNL     1       2.510   2.653  19.266  0.00  0.00    +0.000 A 
ATOM     25  N   UNL     1       3.045   1.760  18.466  0.00  0.00    +0.000 NA
ATOM     26  C   UNL     1       3.733   2.475  17.528  0.00  0.00    +0.000 A 
ATOM     27  C   UNL     1       3.633   3.835  17.740  0.00  0.00    +0.000 A 
ATOM     28  N   UNL     1       2.803   3.963  18.863  0.00  0.00    +0.000 N 
ENDBRANCH  18  27
ENDBRANCH   1  18
TORSDOF 4
ENDMDL
MODEL 4
REMARK VINA RESULT:      -7.3      1.791      2.581
REMARK  Name = 
REMARK  5 active torsions:
REMARK  status: ('A' for Active; 'I' for Inactive)
REMARK    1  A    between atoms: C_1  and  C_2
REMARK    2  A    between atoms: C_9  and  C_10
REMARK    3  A    between atoms: C_10  and  N_11
REMARK    4  A    between atoms: C_20  and  C_21
REMARK    5  A    between atoms: N_23  and  C_24
REMARK                            x       y       z     vdW  Elec       q    Type
REMARK                         _______ _______ _______ _____ _____    ______ ____
ROOT
ATOM      1  N   UNL     1       2.989   6.693  19.098  0.00  0.00    +0.000 NA
ATOM      2  C   UNL     1       3.706   5.656  19.933  0.00  0.00    +0.000 C 
ATOM      3  C   UNL     1       2.849   4.412  20.063  0.00  0.00    +0.000 A 
ATOM      4  C   UNL     1       2.551   3.893  21.328  0.00  0.00    +0.000 A 
ATOM      5  C   UNL     1       1.411   3.110  21.493  0.00  0.00    +0.000 A 
ATOM      6  C   UNL     1       0.603   2.815  20.394  0.00  0.00    +0.000 A 
ATOM      7  C   UNL     1       0.968   3.231  19.108  0.00  0.00    +0.000 A 
ATOM      8  C   UNL     1       2.108   4.025  18.928  0.00  0.00    +0.000 A 
ATOM      9  C   UNL     1       2.456   4.663  17.589  0.00  0.00    +0.000 C 
ATOM     10  C   UNL     1       2.973   6.129  17.713  0.00  0.00    +0.000 C 
ENDROOT
BRANCH  10  11
ATOM     11  C   UNL     1       4.433   6.378  17.173  0.00  0.00    +0.000 C 
ATOM     12  O   UNL     1       5.099   7.377  17.396  0.00  0.00    +0.000 OA
ATOM     13  N   UNL     1       4.835   5.317  16.345  0.00  0.00    +0.000 N 
ATOM     14  H   UNL     1       4.057   4.709  16.086  0.00  0.00    +0.000 HD
BRANCH  13  15
ATOM     15  C   UNL     1       5.924   5.401  15.418  0.00  0.00    +0.000 C 
ATOM     16  C   UNL     1       6.158   4.296  14.412  0.00  0.00    +0.000 C 
ATOM     17  C   UNL     1       7.123   4.505  15.540  0.00  0.00    +0.000 C 
ENDBRANCH  13  15
ENDBRANCH  10  11
BRANCH   1  18
ATOM     18  C   UNL     1       1.682   6.967  19.724  0.00  0.00    +0.000 C 
BRANCH  18  27
ATOM     19  C   UNL     1       0.957   8.941  17.549  0.00  0.00    +0.000 C 
ATOM     20  C   UNL     1       0.965   9.855  18.739  0.00  0.00    +0.000 A 
ATOM     21  C   UNL     1       0.761  11.178  18.540  0.00  0.00    +0.000 A 
ATOM     22  C   UNL     1       0.763  12.096  19.661  0.00  0.00    +0.000 A 
ATOM     23  C   UNL     1       0.941  11.660  20.917  0.00  0.00    +0.000 A 
ATOM     24  C   UNL     1       1.145  10.273  21.168  0.00  0.00    +0.000 A 
ATOM     25  N   UNL     1       1.327   9.645  22.307  0.00  0.00    +0.000 NA
ATOM     26  C   UNL     1       1.504   8.332  21.976  0.00  0.00    +0.000 A 
ATOM     27  C   UNL     1       1.437   8.129  20.613  0.00  0.00    +0.000 A 
ATOM     28  N   UNL     1       1.167   9.397  20.075  0.00  0.00    +0.000 N 
ENDBRANCH  18  27
ENDBRANCH   1  18
TORSDOF 4
ENDMDL
MODEL 5
REMARK VINA RESULT:      -7.3      2.940      6.087
REMARK  Name = 
REMARK  5 active torsions:
REMARK  status: ('A' for Active; 'I' for Inactive)
REMARK    1  A    between atoms: C_1  and  C_2
REMARK    2  A    between atoms: C_9  and  C_10
REMARK    3  A    between atoms: C_10  and  N_11
REMARK    4  A    between atoms: C_20  and  C_21
REMARK    5  A    between atoms: N_23  and  C_24
REMARK                            x       y       z     vdW  Elec       q    Type
REMARK                         _______ _______ _______ _____ _____    ______ ____
ROOT
ATOM      1  N   UNL     1       5.056   5.202  15.579  0.00  0.00    +0.000 NA
ATOM      2  C   UNL     1       6.058   6.330  15.496  0.00  0.00    +0.000 C 
ATOM      3  C   UNL     1       7.042   6.234  16.646  0.00  0.00    +0.000 A 
ATOM      4  C   UNL     1       7.250   7.334  17.486  0.00  0.00    +0.000 A 
ATOM      5  C   UNL     1       7.724   7.126  18.779  0.00  0.00    +0.000 A 
ATOM      6  C   UNL     1       8.026   5.834  19.211  0.00  0.00    +0.000 A 
ATOM      7  C   UNL     1       7.935   4.749  18.331  0.00  0.00    +0.000 A 
ATOM      8  C   UNL     1       7.454   4.942  17.030  0.00  0.00    +0.000 A 
ATOM      9  C   UNL     1       7.156   3.783  16.088  0.00  0.00    +0.000 C 
ATOM     10  C   UNL     1       5.840   3.966  15.272  0.00  0.00    +0.000 C 
ENDROOT
BRANCH  10  11
ATOM     11  C   UNL     1       6.015   3.994  13.705  0.00  0.00    +0.000 C 
ATOM     12  O   UNL     1       6.984   4.449  13.119  0.00  0.00    +0.000 OA
ATOM     13  N   UNL     1       4.870   3.477  13.077  0.00  0.00    +0.000 N 
ATOM     14  H   UNL     1       4.083   3.382  13.720  0.00  0.00    +0.000 HD
BRANCH  13  15
ATOM     15  C   UNL     1       4.553   3.696  11.697  0.00  0.00    +0.000 C 
ATOM     16  C   UNL     1       3.254   3.180  11.120  0.00  0.00    +0.000 C 
ATOM     17  C   UNL     1       4.558   2.568  10.706  0.00  0.00    +0.000 C 
ENDBRANCH  13  15
ENDBRANCH  10  11
BRANCH   1  18
ATOM     18  C   UNL     1       4.396   5.265  16.897  0.00  0.00    +0.000 C 
BRANCH  18  27
ATOM     19  C   UNL     1       2.768   6.835  18.906  0.00  0.00    +0.000 C 
ATOM     20  C   UNL     1       2.440   5.436  19.339  0.00  0.00    +0.000 A 
ATOM     21  C   UNL     1       1.668   5.263  20.438  0.00  0.00    +0.000 A 
ATOM     22  C   UNL     1       1.329   3.930  20.892  0.00  0.00    +0.000 A 
ATOM     23  C   UNL     1       1.746   2.841  20.228  0.00  0.00    +0.000 A 
ATOM     24  C   UNL     1       2.548   2.983  19.059  0.00  0.00    +0.000 A 
ATOM     25  N   UNL     1       3.046   2.061  18.268  0.00  0.00    +0.000 NA
ATOM     26  C   UNL     1       3.760   2.739  17.322  0.00  0.00    +0.000 A 
ATOM     27  C   UNL     1       3.716   4.104  17.520  0.00  0.00    +0.000 A 
ATOM     28  N   UNL     1       2.892   4.276  18.643  0.00  0.00    +0.000 N 
ENDBRANCH  18  27
ENDBRANCH   1  18
TORSDOF 4
ENDMDL
MODEL 6
REMARK VINA RESULT:      -7.2      0.940      1.965
REMARK  Name = 
REMARK  5 active torsions:
REMARK  status: ('A' for Active; 'I' for Inactive)
REMARK    1  A    between atoms: C_1  and  C_2
REMARK    2  A    between atoms: C_9  and  C_10
REMARK    3  A    between atoms: C_10  and  N_11
REMARK    4  A    between atoms: C_20  and  C_21
REMARK    5  A    between atoms: N_23  and  C_24
REMARK                            x       y       z     vdW  Elec       q    Type
REMARK                         _______ _______ _______ _____ _____    ______ ____
ROOT
ATOM      1  N   UNL     1       4.113   6.002  18.303  0.00  0.00    +0.000 NA
ATOM      2  C   UNL     1       4.446   5.016  19.399  0.00  0.00    +0.000 C 
ATOM      3  C   UNL     1       3.566   3.787  19.277  0.00  0.00    +0.000 A 
ATOM      4  C   UNL     1       2.813   3.351  20.372  0.00  0.00    +0.000 A 
ATOM      5  C   UNL     1       1.670   2.586  20.154  0.00  0.00    +0.000 A 
ATOM      6  C   UNL     1       1.310   2.227  18.854  0.00  0.00    +0.000 A 
ATOM      7  C   UNL     1       2.130   2.559  17.769  0.00  0.00    +0.000 A 
ATOM      8  C   UNL     1       3.279   3.334  17.973  0.00  0.00    +0.000 A 
ATOM      9  C   UNL     1       4.109   3.884  16.821  0.00  0.00    +0.000 C 
ATOM     10  C   UNL     1       4.587   5.352  17.043  0.00  0.00    +0.000 C 
ENDROOT
BRANCH  10  11
ATOM     11  C   UNL     1       6.149   5.559  17.060  0.00  0.00    +0.000 C 
ATOM     12  O   UNL     1       6.968   4.677  17.269  0.00  0.00    +0.000 OA
ATOM     13  N   UNL     1       6.465   6.913  16.862  0.00  0.00    +0.000 N 
ATOM     14  H   UNL     1       5.649   7.520  16.954  0.00  0.00    +0.000 HD
BRANCH  13  15
ATOM     15  C   UNL     1       7.736   7.488  17.185  0.00  0.00    +0.000 C 
ATOM     16  C   UNL     1       8.163   7.638  18.628  0.00  0.00    +0.000 C 
ATOM     17  C   UNL     1       7.841   8.850  17.807  0.00  0.00    +0.000 C 
ENDBRANCH  13  15
ENDBRANCH  10  11
BRANCH   1  18
ATOM     18  C   UNL     1       2.676   6.322  18.391  0.00  0.00    +0.000 C 
BRANCH  18  27
ATOM     19  C   UNL     1       2.076   9.009  17.135  0.00  0.00    +0.000 C 
ATOM     20  C   UNL     1       1.682   9.290  18.556  0.00  0.00    +0.000 A 
ATOM     21  C   UNL     1       1.294  10.545  18.883  0.00  0.00    +0.000 A 
ATOM     22  C   UNL     1       0.908  10.861  20.243  0.00  0.00    +0.000 A 
ATOM     23  C   UNL     1       0.900   9.921  21.200  0.00  0.00    +0.000 A 
ATOM     24  C   UNL     1       1.287   8.586  20.891  0.00  0.00    +0.000 A 
ATOM     25  N   UNL     1       1.340   7.528  21.667  0.00  0.00    +0.000 NA
ATOM     26  C   UNL     1       1.807   6.518  20.876  0.00  0.00    +0.000 A 
ATOM     27  C   UNL     1       2.055   6.943  19.587  0.00  0.00    +0.000 A 
ATOM     28  N   UNL     1       1.684   8.296  19.579  0.00  0.00    +0.000 N 
ENDBRANCH  18  27
ENDBRANCH   1  18
TORSDOF 4
ENDMDL
MODEL 7
REMARK VINA RESULT:      -7.2      6.043      8.728
REMARK  Name = 
REMARK  5 active torsions:
REMARK  status: ('A' for Active; 'I' for Inactive)
REMARK    1  A    between atoms: C_1  and  C_2
REMARK    2  A    between atoms: C_9  and  C_10
REMARK    3  A    between atoms: C_10  and  N_11
REMARK    4  A    between atoms: C_20  and  C_21
REMARK    5  A    between atoms: N_23  and  C_24
REMARK                            x       y       z     vdW  Elec       q    Type
REMARK                         _______ _______ _______ _____ _____    ______ ____
ROOT
ATOM      1  N   UNL     1      -1.328  12.890  19.832  0.00  0.00    +0.000 NA
ATOM      2  C   UNL     1      -0.740  12.873  21.225  0.00  0.00    +0.000 C 
ATOM      3  C   UNL     1      -0.187  11.496  21.537  0.00  0.00    +0.000 A 
ATOM      4  C   UNL     1      -0.595  10.820  22.692  0.00  0.00    +0.000 A 
ATOM      5  C   UNL     1      -0.513   9.431  22.735  0.00  0.00    +0.000 A 
ATOM      6  C   UNL     1       0.013   8.729  21.649  0.00  0.00    +0.000 A 
ATOM      7  C   UNL     1       0.535   9.413  20.545  0.00  0.00    +0.000 A 
ATOM      8  C   UNL     1       0.453  10.810  20.484  0.00  0.00    +0.000 A 
ATOM      9  C   UNL     1       0.831  11.597  19.237  0.00  0.00    +0.000 C 
ATOM     10  C   UNL     1      -0.152  12.765  18.916  0.00  0.00    +0.000 C 
ENDROOT
BRANCH  10  11
ATOM     11  C   UNL     1       0.489  14.205  18.904  0.00  0.00    +0.000 C 
ATOM     12  O   UNL     1       1.647  14.456  19.202  0.00  0.00    +0.000 OA
ATOM     13  N   UNL     1      -0.476  15.167  18.563  0.00  0.00    +0.000 N 
ATOM     14  H   UNL     1      -1.425  14.793  18.594  0.00  0.00    +0.000 HD
BRANCH  13  15
ATOM     15  C   UNL     1      -0.325  16.569  18.818  0.00  0.00    +0.000 C 
ATOM     16  C   UNL     1      -1.527  17.486  18.774  0.00  0.00    +0.000 C 
ATOM     17  C   UNL     1      -0.467  17.581  17.718  0.00  0.00    +0.000 C 
ENDBRANCH  13  15
ENDBRANCH  10  11
BRANCH   1  18
ATOM     18  C   UNL     1      -2.354  11.835  19.751  0.00  0.00    +0.000 C 
BRANCH  18  27
ATOM     19  C   UNL     1      -4.647  12.787  21.481  0.00  0.00    +0.000 C 
ATOM     20  C   UNL     1      -5.389  12.466  20.216  0.00  0.00    +0.000 A 
ATOM     21  C   UNL     1      -6.737  12.585  20.210  0.00  0.00    +0.000 A 
ATOM     22  C   UNL     1      -7.494  12.284  19.012  0.00  0.00    +0.000 A 
ATOM     23  C   UNL     1      -6.881  11.906  17.879  0.00  0.00    +0.000 A 
ATOM     24  C   UNL     1      -5.462  11.783  17.843  0.00  0.00    +0.000 A 
ATOM     25  N   UNL     1      -4.676  11.441  16.848  0.00  0.00    +0.000 NA
ATOM     26  C   UNL     1      -3.411  11.451  17.363  0.00  0.00    +0.000 A 
ATOM     27  C   UNL     1      -3.399  11.799  18.698  0.00  0.00    +0.000 A 
ATOM     28  N   UNL     1      -4.743  12.052  19.014  0.00  0.00    +0.000 N 
ENDBRANCH  18  27
ENDBRANCH   1  18
TORSDOF 4
ENDMDL
MODEL 8
REMARK VINA RESULT:      -7.0      3.790      7.164
REMARK  Name = 
REMARK  5 active torsions:
REMARK  status: ('A' for Active; 'I' for Inactive)
REMARK    1  A    between atoms: C_1  and  C_2
REMARK    2  A    between atoms: C_9  and  C_10
REMARK    3  A    between atoms: C_10  and  N_11
REMARK    4  A    between atoms: C_20  and  C_21
REMARK    5  A    between atoms: N_23  and  C_24
REMARK                            x       y       z     vdW  Elec       q    Type
REMARK                         _______ _______ _______ _____ _____    ______ ____
ROOT
ATOM      1  N   UNL     1      -0.014  11.322  18.630  0.00  0.00    +0.000 NA
ATOM      2  C   UNL     1       0.981  12.099  19.462  0.00  0.00    +0.000 C 
ATOM      3  C   UNL     1       0.504  12.177  20.900  0.00  0.00    +0.000 A 
ATOM      4  C   UNL     1       0.391  13.419  21.535  0.00  0.00    +0.000 A 
ATOM      5  C   UNL     1      -0.483  13.558  22.610  0.00  0.00    +0.000 A 
ATOM      6  C   UNL     1      -1.204  12.454  23.070  0.00  0.00    +0.000 A 
ATOM      7  C   UNL     1      -0.997  11.186  22.514  0.00  0.00    +0.000 A 
ATOM      8  C   UNL     1      -0.126  11.032  21.428  0.00  0.00    +0.000 A 
ATOM      9  C   UNL     1       0.000   9.723  20.661  0.00  0.00    +0.000 C 
ATOM     10  C   UNL     1       0.095   9.912  19.116  0.00  0.00    +0.000 C 
ENDROOT
BRANCH  10  11
ATOM     11  C   UNL     1       1.416   9.369  18.448  0.00  0.00    +0.000 C 
ATOM     12  O   UNL     1       1.953   9.857  17.466  0.00  0.00    +0.000 OA
ATOM     13  N   UNL     1       1.853   8.207  19.105  0.00  0.00    +0.000 N 
ATOM     14  H   UNL     1       1.144   7.825  19.732  0.00  0.00    +0.000 HD
BRANCH  13  15
ATOM     15  C   UNL     1       2.782   7.276  18.538  0.00  0.00    +0.000 C 
ATOM     16  C   UNL     1       2.341   5.871  18.191  0.00  0.00    +0.000 C 
ATOM     17  C   UNL     1       3.292   6.104  19.327  0.00  0.00    +0.000 C 
ENDBRANCH  13  15
ENDBRANCH  10  11
BRANCH   1  18
ATOM     18  C   UNL     1      -1.331  11.974  18.756  0.00  0.00    +0.000 C 
BRANCH  18  27
ATOM     19  C   UNL     1      -3.442  13.150  20.577  0.00  0.00    +0.000 C 
ATOM     20  C   UNL     1      -4.318  12.466  19.568  0.00  0.00    +0.000 A 
ATOM     21  C   UNL     1      -5.657  12.476  19.762  0.00  0.00    +0.000 A 
ATOM     22  C   UNL     1      -6.540  11.827  18.814  0.00  0.00    +0.000 A 
ATOM     23  C   UNL     1      -6.059  11.225  17.715  0.00  0.00    +0.000 A 
ATOM     24  C   UNL     1      -4.656  11.206  17.469  0.00  0.00    +0.000 A 
ATOM     25  N   UNL     1      -3.988  10.687  16.465  0.00  0.00    +0.000 NA
ATOM     26  C   UNL     1      -2.672  10.922  16.741  0.00  0.00    +0.000 A 
ATOM     27  C   UNL     1      -2.506  11.594  17.935  0.00  0.00    +0.000 A 
ATOM     28  N   UNL     1      -3.809  11.814  18.405  0.00  0.00    +0.000 N 
ENDBRANCH  18  27
ENDBRANCH   1  18
TORSDOF 4
ENDMDL
MODEL 9
REMARK VINA RESULT:      -7.0      1.873      2.340
REMARK  Name = 
REMARK  5 active torsions:
REMARK  status: ('A' for Active; 'I' for Inactive)
REMARK    1  A    between atoms: C_1  and  C_2
REMARK    2  A    between atoms: C_9  and  C_10
REMARK    3  A    between atoms: C_10  and  N_11
REMARK    4  A    between atoms: C_20  and  C_21
REMARK    5  A    between atoms: N_23  and  C_24
REMARK                            x       y       z     vdW  Elec       q    Type
REMARK                         _______ _______ _______ _____ _____    ______ ____
ROOT
ATOM      1  N   UNL     1       4.476   5.753  17.788  0.00  0.00    +0.000 NA
ATOM      2  C   UNL     1       5.125   4.730  18.693  0.00  0.00    +0.000 C 
ATOM      3  C   UNL     1       4.165   3.584  18.950  0.00  0.00    +0.000 A 
ATOM      4  C   UNL     1       3.863   3.202  20.261  0.00  0.00    +0.000 A 
ATOM      5  C   UNL     1       2.664   2.542  20.521  0.00  0.00    +0.000 A 
ATOM      6  C   UNL     1       1.798   2.230  19.471  0.00  0.00    +0.000 A 
ATOM      7  C   UNL     1       2.159   2.502  18.146  0.00  0.00    +0.000 A 
ATOM      8  C   UNL     1       3.358   3.171  17.870  0.00  0.00    +0.000 A 
ATOM      9  C   UNL     1       3.718   3.660  16.474  0.00  0.00    +0.000 C 
ATOM     10  C   UNL     1       4.367   5.078  16.458  0.00  0.00    +0.000 C 
ENDROOT
BRANCH  10  11
ATOM     11  C   UNL     1       5.825   5.148  15.863  0.00  0.00    +0.000 C 
ATOM     12  O   UNL     1       6.650   6.006  16.136  0.00  0.00    +0.000 OA
ATOM     13  N   UNL     1       6.020   4.120  14.927  0.00  0.00    +0.000 N 
ATOM     14  H   UNL     1       5.145   3.667  14.658  0.00  0.00    +0.000 HD
BRANCH  13  15
ATOM     15  C   UNL     1       7.071   4.120  13.953  0.00  0.00    +0.000 C 
ATOM     16  C   UNL     1       7.082   5.146  12.842  0.00  0.00    +0.000 C 
ATOM     17  C   UNL     1       6.819   3.703  12.533  0.00  0.00    +0.000 C 
ENDBRANCH  13  15
ENDBRANCH  10  11
BRANCH   1  18
ATOM     18  C   UNL     1       3.219   6.196  18.419  0.00  0.00    +0.000 C 
BRANCH  18  27
ATOM     19  C   UNL     1       1.890   6.261  21.137  0.00  0.00    +0.000 C 
ATOM     20  C   UNL     1       1.453   7.593  20.599  0.00  0.00    +0.000 A 
ATOM     21  C   UNL     1       0.607   8.344  21.343  0.00  0.00    +0.000 A 
ATOM     22  C   UNL     1       0.158   9.634  20.862  0.00  0.00    +0.000 A 
ATOM     23  C   UNL     1       0.585  10.126  19.689  0.00  0.00    +0.000 A 
ATOM     24  C   UNL     1       1.486   9.371  18.885  0.00  0.00    +0.000 A 
ATOM     25  N   UNL     1       2.025   9.669  17.725  0.00  0.00    +0.000 NA
ATOM     26  C   UNL     1       2.783   8.585  17.386  0.00  0.00    +0.000 A 
ATOM     27  C   UNL     1       2.719   7.591  18.340  0.00  0.00    +0.000 A 
ATOM     28  N   UNL     1       1.894   8.113  19.347  0.00  0.00    +0.000 N 
ENDBRANCH  18  27
ENDBRANCH   1  18
TORSDOF 4
ENDMDL
