MODEL 1
REMARK VINA RESULT:      -8.4      0.000      0.000
REMARK  Name = 
REMARK  7 active torsions:
REMARK  status: ('A' for Active; 'I' for Inactive)
REMARK    1  A    between atoms: C_2  and  C_3
REMARK    2  A    between atoms: C_3  and  S_4
REMARK    3  A    between atoms: S_4  and  C_5
REMARK    4  A    between atoms: C_8  and  C_9
REMARK    5  A    between atoms: N_19  and  C_20
REMARK    6  A    between atoms: C_23  and  C_24
REMARK    7  A    between atoms: C_24  and  O_26
REMARK                            x       y       z     vdW  Elec       q    Type
REMARK                         _______ _______ _______ _____ _____    ______ ____
ROOT
ATOM      1  S   UNL     1       2.837   2.206  19.845  0.00  0.00    +0.000 S 
ENDROOT
BRANCH   1   2
ATOM      2  C   UNL     1       3.310   2.970  18.349  0.00  0.00    +0.000 A 
ATOM      3  N   UNL     1       2.466   3.473  17.475  0.00  0.00    +0.000 NA
ATOM      4  N   UNL     1       3.223   4.078  16.497  0.00  0.00    +0.000 NA
ATOM      5  C   UNL     1       4.492   3.892  16.814  0.00  0.00    +0.000 A 
ATOM      6  O   UNL     1       4.618   3.155  17.974  0.00  0.00    +0.000 OA
BRANCH   5   7
ATOM      7  C   UNL     1       5.625   4.459  16.021  0.00  0.00    +0.000 A 
ATOM      8  C   UNL     1       6.534   5.369  16.528  0.00  0.00    +0.000 A 
ATOM      9  N   UNL     1       7.449   5.644  15.551  0.00  0.00    +0.000 N 
ATOM     10  C   UNL     1       7.119   4.974  14.390  0.00  0.00    +0.000 A 
ATOM     11  C   UNL     1       7.735   5.005  13.135  0.00  0.00    +0.000 A 
ATOM     12  C   UNL     1       7.151   4.257  12.110  0.00  0.00    +0.000 A 
ATOM     13  C   UNL     1       6.016   3.487  12.343  0.00  0.00    +0.000 A 
ATOM     14  C   UNL     1       5.432   3.441  13.617  0.00  0.00    +0.000 A 
ATOM     15  C   UNL     1       5.979   4.211  14.663  0.00  0.00    +0.000 A 
ATOM     16  H   UNL     1       8.236   6.273  15.644  0.00  0.00    +0.000 HD
ENDBRANCH   5   7
ENDBRANCH   1   2
BRANCH   1  17
ATOM     17  C   UNL     1       2.904   3.634  20.976  0.00  0.00    +0.000 C 
BRANCH  17  19
ATOM     18  O   UNL     1       0.815   4.654  20.430  0.00  0.00    +0.000 OA
ATOM     19  C   UNL     1       2.029   4.811  20.540  0.00  0.00    +0.000 C 
ATOM     20  N   UNL     1       2.693   6.016  20.360  0.00  0.00    +0.000 N 
ATOM     21  H   UNL     1       3.704   5.958  20.310  0.00  0.00    +0.000 HD
BRANCH  20  22
ATOM     22  C   UNL     1       2.106   7.255  20.018  0.00  0.00    +0.000 A 
ATOM     23  C   UNL     1       1.426   8.067  20.932  0.00  0.00    +0.000 A 
ATOM     24  C   UNL     1       0.821   9.266  20.525  0.00  0.00    +0.000 A 
ATOM     25  C   UNL     1       0.886   9.662  19.188  0.00  0.00    +0.000 A 
ATOM     26  C   UNL     1       1.614   8.886  18.280  0.00  0.00    +0.000 A 
ATOM     27  C   UNL     1       2.225   7.692  18.694  0.00  0.00    +0.000 A 
BRANCH  25  28
ATOM     28  C   UNL     1       0.257  10.914  18.690  0.00  0.00    +0.000 C 
ATOM     29  O   UNL     1       0.441  11.995  19.217  0.00  0.00    +0.000 OA
BRANCH  28  30
ATOM     30  O   UNL     1      -0.501  10.761  17.580  0.00  0.00    +0.000 OA
ATOM     31  H   UNL     1      -0.598  11.553  17.021  0.00  0.00    +0.000 HD
ENDBRANCH  28  30
ENDBRANCH  25  28
ENDBRANCH  20  22
ENDBRANCH  17  19
ENDBRANCH   1  17
TORSDOF 7
ENDMDL
MODEL 2
REMARK VINA RESULT:      -8.0      1.944      2.798
REMARK  Name = 
REMARK  7 active torsions:
REMARK  status: ('A' for Active; 'I' for Inactive)
REMARK    1  A    between atoms: C_2  and  C_3
REMARK    2  A    between atoms: C_3  and  S_4
REMARK    3  A    between atoms: S_4  and  C_5
REMARK    4  A    between atoms: C_8  and  C_9
REMARK    5  A    between atoms: N_19  and  C_20
REMARK    6  A    between atoms: C_23  and  C_24
REMARK    7  A    between atoms: C_24  and  O_26
REMARK                            x       y       z     vdW  Elec       q    Type
REMARK                         _______ _______ _______ _____ _____    ______ ____
ROOT
ATOM      1  S   UNL     1       2.200   1.702  20.026  0.00  0.00    +0.000 S 
ENDROOT
BRANCH   1   2
ATOM      2  C   UNL     1       2.852   2.624  18.695  0.00  0.00    +0.000 A 
ATOM      3  N   UNL     1       2.350   2.627  17.479  0.00  0.00    +0.000 NA
ATOM      4  N   UNL     1       3.067   3.553  16.758  0.00  0.00    +0.000 NA
ATOM      5  C   UNL     1       3.986   4.052  17.566  0.00  0.00    +0.000 A 
ATOM      6  O   UNL     1       3.927   3.470  18.816  0.00  0.00    +0.000 OA
BRANCH   5   7
ATOM      7  C   UNL     1       4.929   5.140  17.161  0.00  0.00    +0.000 A 
ATOM      8  C   UNL     1       4.853   5.806  15.953  0.00  0.00    +0.000 A 
ATOM      9  N   UNL     1       5.838   6.755  15.929  0.00  0.00    +0.000 N 
ATOM     10  C   UNL     1       6.597   6.678  17.079  0.00  0.00    +0.000 A 
ATOM     11  C   UNL     1       7.731   7.408  17.451  0.00  0.00    +0.000 A 
ATOM     12  C   UNL     1       8.339   7.083  18.666  0.00  0.00    +0.000 A 
ATOM     13  C   UNL     1       7.812   6.091  19.487  0.00  0.00    +0.000 A 
ATOM     14  C   UNL     1       6.655   5.393  19.114  0.00  0.00    +0.000 A 
ATOM     15  C   UNL     1       6.038   5.675  17.878  0.00  0.00    +0.000 A 
ATOM     16  H   UNL     1       6.015   7.398  15.169  0.00  0.00    +0.000 HD
ENDBRANCH   5   7
ENDBRANCH   1   2
BRANCH   1  17
ATOM     17  C   UNL     1       2.056   3.007  21.289  0.00  0.00    +0.000 C 
BRANCH  17  19
ATOM     18  O   UNL     1       0.311   4.316  20.317  0.00  0.00    +0.000 OA
ATOM     19  C   UNL     1       1.455   4.313  20.765  0.00  0.00    +0.000 C 
ATOM     20  N   UNL     1       2.257   5.438  20.901  0.00  0.00    +0.000 N 
ATOM     21  H   UNL     1       3.232   5.260  21.118  0.00  0.00    +0.000 HD
BRANCH  20  22
ATOM     22  C   UNL     1       1.911   6.762  20.551  0.00  0.00    +0.000 A 
ATOM     23  C   UNL     1       1.205   7.626  21.395  0.00  0.00    +0.000 A 
ATOM     24  C   UNL     1       0.848   8.916  20.974  0.00  0.00    +0.000 A 
ATOM     25  C   UNL     1       1.190   9.354  19.693  0.00  0.00    +0.000 A 
ATOM     26  C   UNL     1       1.946   8.518  18.866  0.00  0.00    +0.000 A 
ATOM     27  C   UNL     1       2.310   7.232  19.294  0.00  0.00    +0.000 A 
BRANCH  25  28
ATOM     28  C   UNL     1       0.831  10.704  19.184  0.00  0.00    +0.000 C 
ATOM     29  O   UNL     1       0.647  11.656  19.920  0.00  0.00    +0.000 OA
BRANCH  28  30
ATOM     30  O   UNL     1       0.769  10.799  17.836  0.00  0.00    +0.000 OA
ATOM     31  H   UNL     1      -0.079  11.111  17.472  0.00  0.00    +0.000 HD
ENDBRANCH  28  30
ENDBRANCH  25  28
ENDBRANCH  20  22
ENDBRANCH  17  19
ENDBRANCH   1  17
TORSDOF 7
ENDMDL
MODEL 3
REMARK VINA RESULT:      -7.8      6.450      8.389
REMARK  Name = 
REMARK  7 active torsions:
REMARK  status: ('A' for Active; 'I' for Inactive)
REMARK    1  A    between atoms: C_2  and  C_3
REMARK    2  A    between atoms: C_3  and  S_4
REMARK    3  A    between atoms: S_4  and  C_5
REMARK    4  A    between atoms: C_8  and  C_9
REMARK    5  A    between atoms: N_19  and  C_20
REMARK    6  A    between atoms: C_23  and  C_24
REMARK    7  A    between atoms: C_24  and  O_26
REMARK                            x       y       z     vdW  Elec       q    Type
REMARK                         _______ _______ _______ _____ _____    ______ ____
ROOT
ATOM      1  S   UNL     1       7.603   8.280  17.439  0.00  0.00    +0.000 S 
ENDROOT
BRANCH   1   2
ATOM      2  C   UNL     1       7.000   6.684  17.809  0.00  0.00    +0.000 A 
ATOM      3  N   UNL     1       7.702   5.748  18.410  0.00  0.00    +0.000 NA
ATOM      4  N   UNL     1       6.850   4.688  18.619  0.00  0.00    +0.000 NA
ATOM      5  C   UNL     1       5.676   5.024  18.113  0.00  0.00    +0.000 A 
ATOM      6  O   UNL     1       5.715   6.280  17.544  0.00  0.00    +0.000 OA
BRANCH   5   7
ATOM      7  C   UNL     1       4.466   4.150  18.201  0.00  0.00    +0.000 A 
ATOM      8  C   UNL     1       4.270   3.034  17.410  0.00  0.00    +0.000 A 
ATOM      9  N   UNL     1       3.087   2.456  17.778  0.00  0.00    +0.000 N 
ATOM     10  C   UNL     1       2.475   3.211  18.758  0.00  0.00    +0.000 A 
ATOM     11  C   UNL     1       1.236   3.030  19.381  0.00  0.00    +0.000 A 
ATOM     12  C   UNL     1       0.836   3.990  20.315  0.00  0.00    +0.000 A 
ATOM     13  C   UNL     1       1.658   5.067  20.632  0.00  0.00    +0.000 A 
ATOM     14  C   UNL     1       2.912   5.213  20.021  0.00  0.00    +0.000 A 
ATOM     15  C   UNL     1       3.328   4.279  19.051  0.00  0.00    +0.000 A 
ATOM     16  H   UNL     1       2.692   1.617  17.373  0.00  0.00    +0.000 HD
ENDBRANCH   5   7
ENDBRANCH   1   2
BRANCH   1  17
ATOM     17  C   UNL     1       8.685   8.562  18.878  0.00  0.00    +0.000 C 
BRANCH  17  19
ATOM     18  O   UNL     1       9.472  10.409  20.171  0.00  0.00    +0.000 OA
ATOM     19  C   UNL     1       9.097  10.023  19.066  0.00  0.00    +0.000 C 
ATOM     20  N   UNL     1       9.074  10.804  17.918  0.00  0.00    +0.000 N 
ATOM     21  H   UNL     1       8.578  10.408  17.127  0.00  0.00    +0.000 HD
BRANCH  20  22
ATOM     22  C   UNL     1       9.463  12.158  17.817  0.00  0.00    +0.000 A 
ATOM     23  C   UNL     1      10.757  12.568  17.478  0.00  0.00    +0.000 A 
ATOM     24  C   UNL     1      11.098  13.928  17.439  0.00  0.00    +0.000 A 
ATOM     25  C   UNL     1      10.142  14.898  17.747  0.00  0.00    +0.000 A 
ATOM     26  C   UNL     1       8.832  14.499  18.029  0.00  0.00    +0.000 A 
ATOM     27  C   UNL     1       8.492  13.138  18.058  0.00  0.00    +0.000 A 
BRANCH  25  28
ATOM     28  C   UNL     1      10.443  16.354  17.736  0.00  0.00    +0.000 C 
ATOM     29  O   UNL     1       9.802  17.161  18.383  0.00  0.00    +0.000 OA
BRANCH  28  30
ATOM     30  O   UNL     1      11.513  16.703  16.985  0.00  0.00    +0.000 OA
ATOM     31  H   UNL     1      12.045  15.965  16.638  0.00  0.00    +0.000 HD
ENDBRANCH  28  30
ENDBRANCH  25  28
ENDBRANCH  20  22
ENDBRANCH  17  19
ENDBRANCH   1  17
TORSDOF 7
ENDMDL
MODEL 4
REMARK VINA RESULT:      -7.8      2.840      8.819
REMARK  Name = 
REMARK  7 active torsions:
REMARK  status: ('A' for Active; 'I' for Inactive)
REMARK    1  A    between atoms: C_2  and  C_3
REMARK    2  A    between atoms: C_3  and  S_4
REMARK    3  A    between atoms: S_4  and  C_5
REMARK    4  A    between atoms: C_8  and  C_9
REMARK    5  A    between atoms: N_19  and  C_20
REMARK    6  A    between atoms: C_23  and  C_24
REMARK    7  A    between atoms: C_24  and  O_26
REMARK                            x       y       z     vdW  Elec       q    Type
REMARK                         _______ _______ _______ _____ _____    ______ ____
ROOT
ATOM      1  S   UNL     1       2.022   4.868  20.995  0.00  0.00    +0.000 S 
ENDROOT
BRANCH   1   2
ATOM      2  C   UNL     1       1.873   6.519  20.447  0.00  0.00    +0.000 A 
ATOM      3  N   UNL     1       2.681   7.086  19.578  0.00  0.00    +0.000 NA
ATOM      4  N   UNL     1       2.171   8.339  19.324  0.00  0.00    +0.000 NA
ATOM      5  C   UNL     1       1.088   8.479  20.070  0.00  0.00    +0.000 A 
ATOM      6  O   UNL     1       0.862   7.359  20.844  0.00  0.00    +0.000 OA
BRANCH   5   7
ATOM      7  C   UNL     1       0.216   9.692  20.027  0.00  0.00    +0.000 A 
ATOM      8  C   UNL     1      -0.058  10.396  18.870  0.00  0.00    +0.000 A 
ATOM      9  N   UNL     1      -0.911  11.417  19.186  0.00  0.00    +0.000 N 
ATOM     10  C   UNL     1      -1.151  11.430  20.544  0.00  0.00    +0.000 A 
ATOM     11  C   UNL     1      -1.908  12.324  21.309  0.00  0.00    +0.000 A 
ATOM     12  C   UNL     1      -1.940  12.126  22.692  0.00  0.00    +0.000 A 
ATOM     13  C   UNL     1      -1.265  11.059  23.278  0.00  0.00    +0.000 A 
ATOM     14  C   UNL     1      -0.539  10.154  22.491  0.00  0.00    +0.000 A 
ATOM     15  C   UNL     1      -0.462  10.346  21.097  0.00  0.00    +0.000 A 
ATOM     16  H   UNL     1      -1.286  12.092  18.532  0.00  0.00    +0.000 HD
ENDBRANCH   5   7
ENDBRANCH   1   2
BRANCH   1  17
ATOM     17  C   UNL     1       1.223   3.991  19.611  0.00  0.00    +0.000 C 
BRANCH  17  19
ATOM     18  O   UNL     1       1.358   4.057  17.228  0.00  0.00    +0.000 OA
ATOM     19  C   UNL     1       1.980   4.104  18.286  0.00  0.00    +0.000 C 
ATOM     20  N   UNL     1       3.347   4.322  18.395  0.00  0.00    +0.000 N 
ATOM     21  H   UNL     1       3.747   4.161  19.312  0.00  0.00    +0.000 HD
BRANCH  20  22
ATOM     22  C   UNL     1       4.252   4.519  17.328  0.00  0.00    +0.000 A 
ATOM     23  C   UNL     1       4.574   5.777  16.809  0.00  0.00    +0.000 A 
ATOM     24  C   UNL     1       5.445   5.908  15.716  0.00  0.00    +0.000 A 
ATOM     25  C   UNL     1       6.000   4.772  15.124  0.00  0.00    +0.000 A 
ATOM     26  C   UNL     1       5.729   3.515  15.674  0.00  0.00    +0.000 A 
ATOM     27  C   UNL     1       4.865   3.389  16.773  0.00  0.00    +0.000 A 
BRANCH  25  28
ATOM     28  C   UNL     1       6.918   4.842  13.958  0.00  0.00    +0.000 C 
ATOM     29  O   UNL     1       7.890   5.575  13.931  0.00  0.00    +0.000 OA
BRANCH  28  30
ATOM     30  O   UNL     1       6.614   3.994  12.949  0.00  0.00    +0.000 OA
ATOM     31  H   UNL     1       6.521   4.399  12.068  0.00  0.00    +0.000 HD
ENDBRANCH  28  30
ENDBRANCH  25  28
ENDBRANCH  20  22
ENDBRANCH  17  19
ENDBRANCH   1  17
TORSDOF 7
ENDMDL
MODEL 5
REMARK VINA RESULT:      -7.6      2.822      8.619
REMARK  Name = 
REMARK  7 active torsions:
REMARK  status: ('A' for Active; 'I' for Inactive)
REMARK    1  A    between atoms: C_2  and  C_3
REMARK    2  A    between atoms: C_3  and  S_4
REMARK    3  A    between atoms: S_4  and  C_5
REMARK    4  A    between atoms: C_8  and  C_9
REMARK    5  A    between atoms: N_19  and  C_20
REMARK    6  A    between atoms: C_23  and  C_24
REMARK    7  A    between atoms: C_24  and  O_26
REMARK                            x       y       z     vdW  Elec       q    Type
REMARK                         _______ _______ _______ _____ _____    ______ ____
ROOT
ATOM      1  S   UNL     1       2.551   5.231  20.654  0.00  0.00    +0.000 S 
ENDROOT
BRANCH   1   2
ATOM      2  C   UNL     1       2.115   6.846  20.154  0.00  0.00    +0.000 A 
ATOM      3  N   UNL     1       2.496   7.399  19.023  0.00  0.00    +0.000 NA
ATOM      4  N   UNL     1       1.862   8.618  18.947  0.00  0.00    +0.000 NA
ATOM      5  C   UNL     1       1.144   8.755  20.048  0.00  0.00    +0.000 A 
ATOM      6  O   UNL     1       1.292   7.667  20.884  0.00  0.00    +0.000 OA
BRANCH   5   7
ATOM      7  C   UNL     1       0.259   9.932  20.307  0.00  0.00    +0.000 A 
ATOM      8  C   UNL     1       0.391  10.760  21.406  0.00  0.00    +0.000 A 
ATOM      9  N   UNL     1      -0.551  11.747  21.308  0.00  0.00    +0.000 N 
ATOM     10  C   UNL     1      -1.337  11.543  20.193  0.00  0.00    +0.000 A 
ATOM     11  C   UNL     1      -2.446  12.264  19.738  0.00  0.00    +0.000 A 
ATOM     12  C   UNL     1      -3.093  11.798  18.591  0.00  0.00    +0.000 A 
ATOM     13  C   UNL     1      -2.629  10.675  17.913  0.00  0.00    +0.000 A 
ATOM     14  C   UNL     1      -1.495   9.985  18.365  0.00  0.00    +0.000 A 
ATOM     15  C   UNL     1      -0.841  10.411  19.538  0.00  0.00    +0.000 A 
ATOM     16  H   UNL     1      -0.683  12.500  21.971  0.00  0.00    +0.000 HD
ENDBRANCH   5   7
ENDBRANCH   1   2
BRANCH   1  17
ATOM     17  C   UNL     1       1.687   4.251  19.382  0.00  0.00    +0.000 C 
BRANCH  17  19
ATOM     18  O   UNL     1       1.866   3.701  17.066  0.00  0.00    +0.000 OA
ATOM     19  C   UNL     1       2.435   4.167  18.050  0.00  0.00    +0.000 C 
ATOM     20  N   UNL     1       3.716   4.701  18.050  0.00  0.00    +0.000 N 
ATOM     21  H   UNL     1       4.118   4.884  18.962  0.00  0.00    +0.000 HD
BRANCH  20  22
ATOM     22  C   UNL     1       4.584   4.796  16.938  0.00  0.00    +0.000 A 
ATOM     23  C   UNL     1       4.964   6.010  16.356  0.00  0.00    +0.000 A 
ATOM     24  C   UNL     1       5.791   6.042  15.223  0.00  0.00    +0.000 A 
ATOM     25  C   UNL     1       6.245   4.850  14.655  0.00  0.00    +0.000 A 
ATOM     26  C   UNL     1       5.918   3.635  15.266  0.00  0.00    +0.000 A 
ATOM     27  C   UNL     1       5.098   3.608  16.405  0.00  0.00    +0.000 A 
BRANCH  25  28
ATOM     28  C   UNL     1       7.113   4.815  13.449  0.00  0.00    +0.000 C 
ATOM     29  O   UNL     1       8.048   5.578  13.292  0.00  0.00    +0.000 OA
BRANCH  28  30
ATOM     30  O   UNL     1       6.809   3.838  12.564  0.00  0.00    +0.000 OA
ATOM     31  H   UNL     1       6.509   4.139  11.688  0.00  0.00    +0.000 HD
ENDBRANCH  28  30
ENDBRANCH  25  28
ENDBRANCH  20  22
ENDBRANCH  17  19
ENDBRANCH   1  17
TORSDOF 7
ENDMDL
MODEL 6
REMARK VINA RESULT:      -7.6      1.010      1.407
REMARK  Name = 
REMARK  7 active torsions:
REMARK  status: ('A' for Active; 'I' for Inactive)
REMARK    1  A    between atoms: C_2  and  C_3
REMARK    2  A    between atoms: C_3  and  S_4
REMARK    3  A    between atoms: S_4  and  C_5
REMARK    4  A    between atoms: C_8  and  C_9
REMARK    5  A    between atoms: N_19  and  C_20
REMARK    6  A    between atoms: C_23  and  C_24
REMARK    7  A    between atoms: C_24  and  O_26
REMARK                            x       y       z     vdW  Elec       q    Type
REMARK                         _______ _______ _______ _____ _____    ______ ____
ROOT
ATOM      1  S   UNL     1       2.616   2.053  19.457  0.00  0.00    +0.000 S 
ENDROOT
BRANCH   1   2
ATOM      2  C   UNL     1       3.166   2.859  18.010  0.00  0.00    +0.000 A 
ATOM      3  N   UNL     1       2.370   3.417  17.125  0.00  0.00    +0.000 NA
ATOM      4  N   UNL     1       3.180   4.037  16.200  0.00  0.00    +0.000 NA
ATOM      5  C   UNL     1       4.431   3.805  16.558  0.00  0.00    +0.000 A 
ATOM      6  O   UNL     1       4.492   3.022  17.692  0.00  0.00    +0.000 OA
BRANCH   5   7
ATOM      7  C   UNL     1       5.608   4.370  15.831  0.00  0.00    +0.000 A 
ATOM      8  C   UNL     1       6.544   5.200  16.419  0.00  0.00    +0.000 A 
ATOM      9  N   UNL     1       7.496   5.496  15.483  0.00  0.00    +0.000 N 
ATOM     10  C   UNL     1       7.165   4.922  14.273  0.00  0.00    +0.000 A 
ATOM     11  C   UNL     1       7.813   5.008  13.036  0.00  0.00    +0.000 A 
ATOM     12  C   UNL     1       7.222   4.358  11.950  0.00  0.00    +0.000 A 
ATOM     13  C   UNL     1       6.048   3.628  12.104  0.00  0.00    +0.000 A 
ATOM     14  C   UNL     1       5.430   3.525  13.359  0.00  0.00    +0.000 A 
ATOM     15  C   UNL     1       5.985   4.197  14.467  0.00  0.00    +0.000 A 
ATOM     16  H   UNL     1       8.307   6.080  15.636  0.00  0.00    +0.000 HD
ENDBRANCH   5   7
ENDBRANCH   1   2
BRANCH   1  17
ATOM     17  C   UNL     1       3.270   3.182  20.729  0.00  0.00    +0.000 C 
BRANCH  17  19
ATOM     18  O   UNL     1       4.484   5.122  20.048  0.00  0.00    +0.000 OA
ATOM     19  C   UNL     1       3.377   4.637  20.270  0.00  0.00    +0.000 C 
ATOM     20  N   UNL     1       2.169   5.293  20.077  0.00  0.00    +0.000 N 
ATOM     21  H   UNL     1       1.352   4.836  20.467  0.00  0.00    +0.000 HD
BRANCH  20  22
ATOM     22  C   UNL     1       1.998   6.613  19.603  0.00  0.00    +0.000 A 
ATOM     23  C   UNL     1       2.298   7.011  18.296  0.00  0.00    +0.000 A 
ATOM     24  C   UNL     1       2.152   8.348  17.895  0.00  0.00    +0.000 A 
ATOM     25  C   UNL     1       1.708   9.307  18.807  0.00  0.00    +0.000 A 
ATOM     26  C   UNL     1       1.351   8.907  20.098  0.00  0.00    +0.000 A 
ATOM     27  C   UNL     1       1.489   7.567  20.492  0.00  0.00    +0.000 A 
BRANCH  25  28
ATOM     28  C   UNL     1       1.545  10.740  18.448  0.00  0.00    +0.000 C 
ATOM     29  O   UNL     1       0.821  11.494  19.073  0.00  0.00    +0.000 OA
BRANCH  28  30
ATOM     30  O   UNL     1       2.298  11.149  17.402  0.00  0.00    +0.000 OA
ATOM     31  H   UNL     1       2.768  11.994  17.522  0.00  0.00    +0.000 HD
ENDBRANCH  28  30
ENDBRANCH  25  28
ENDBRANCH  20  22
ENDBRANCH  17  19
ENDBRANCH   1  17
TORSDOF 7
ENDMDL
MODEL 7
REMARK VINA RESULT:      -7.6      1.194      1.540
REMARK  Name = 
REMARK  7 active torsions:
REMARK  status: ('A' for Active; 'I' for Inactive)
REMARK    1  A    between atoms: C_2  and  C_3
REMARK    2  A    between atoms: C_3  and  S_4
REMARK    3  A    between atoms: S_4  and  C_5
REMARK    4  A    between atoms: C_8  and  C_9
REMARK    5  A    between atoms: N_19  and  C_20
REMARK    6  A    between atoms: C_23  and  C_24
REMARK    7  A    between atoms: C_24  and  O_26
REMARK                            x       y       z     vdW  Elec       q    Type
REMARK                         _______ _______ _______ _____ _____    ______ ____
ROOT
ATOM      1  S   UNL     1       3.342   2.159  19.029  0.00  0.00    +0.000 S 
ENDROOT
BRANCH   1   2
ATOM      2  C   UNL     1       4.498   3.248  18.306  0.00  0.00    +0.000 A 
ATOM      3  N   UNL     1       5.278   4.059  18.988  0.00  0.00    +0.000 NA
ATOM      4  N   UNL     1       6.114   4.662  18.076  0.00  0.00    +0.000 NA
ATOM      5  C   UNL     1       5.785   4.204  16.880  0.00  0.00    +0.000 A 
ATOM      6  O   UNL     1       4.728   3.320  16.954  0.00  0.00    +0.000 OA
BRANCH   5   7
ATOM      7  C   UNL     1       6.513   4.582  15.631  0.00  0.00    +0.000 A 
ATOM      8  C   UNL     1       7.576   5.464  15.602  0.00  0.00    +0.000 A 
ATOM      9  N   UNL     1       8.022   5.550  14.312  0.00  0.00    +0.000 N 
ATOM     10  C   UNL     1       7.226   4.784  13.485  0.00  0.00    +0.000 A 
ATOM     11  C   UNL     1       7.278   4.622  12.096  0.00  0.00    +0.000 A 
ATOM     12  C   UNL     1       6.304   3.815  11.503  0.00  0.00    +0.000 A 
ATOM     13  C   UNL     1       5.340   3.172  12.274  0.00  0.00    +0.000 A 
ATOM     14  C   UNL     1       5.325   3.319  13.668  0.00  0.00    +0.000 A 
ATOM     15  C   UNL     1       6.274   4.154  14.292  0.00  0.00    +0.000 A 
ATOM     16  H   UNL     1       8.796   6.118  13.996  0.00  0.00    +0.000 HD
ENDBRANCH   5   7
ENDBRANCH   1   2
BRANCH   1  17
ATOM     17  C   UNL     1       2.804   3.153  20.458  0.00  0.00    +0.000 C 
BRANCH  17  19
ATOM     18  O   UNL     1       0.807   4.312  19.848  0.00  0.00    +0.000 OA
ATOM     19  C   UNL     1       2.011   4.405  20.079  0.00  0.00    +0.000 C 
ATOM     20  N   UNL     1       2.728   5.593  20.088  0.00  0.00    +0.000 N 
ATOM     21  H   UNL     1       3.737   5.499  20.118  0.00  0.00    +0.000 HD
BRANCH  20  22
ATOM     22  C   UNL     1       2.214   6.885  19.833  0.00  0.00    +0.000 A 
ATOM     23  C   UNL     1       2.303   7.521  18.590  0.00  0.00    +0.000 A 
ATOM     24  C   UNL     1       1.816   8.824  18.408  0.00  0.00    +0.000 A 
ATOM     25  C   UNL     1       1.238   9.511  19.478  0.00  0.00    +0.000 A 
ATOM     26  C   UNL     1       1.093   8.860  20.708  0.00  0.00    +0.000 A 
ATOM     27  C   UNL     1       1.572   7.553  20.882  0.00  0.00    +0.000 A 
BRANCH  25  28
ATOM     28  C   UNL     1       0.715  10.897  19.354  0.00  0.00    +0.000 C 
ATOM     29  O   UNL     1       0.255  11.511  20.299  0.00  0.00    +0.000 OA
BRANCH  28  30
ATOM     30  O   UNL     1       0.832  11.435  18.118  0.00  0.00    +0.000 OA
ATOM     31  H   UNL     1       1.549  11.076  17.566  0.00  0.00    +0.000 HD
ENDBRANCH  28  30
ENDBRANCH  25  28
ENDBRANCH  20  22
ENDBRANCH  17  19
ENDBRANCH   1  17
TORSDOF 7
ENDMDL
MODEL 8
REMARK VINA RESULT:      -7.6      6.575      8.419
REMARK  Name = 
REMARK  7 active torsions:
REMARK  status: ('A' for Active; 'I' for Inactive)
REMARK    1  A    between atoms: C_2  and  C_3
REMARK    2  A    between atoms: C_3  and  S_4
REMARK    3  A    between atoms: S_4  and  C_5
REMARK    4  A    between atoms: C_8  and  C_9
REMARK    5  A    between atoms: N_19  and  C_20
REMARK    6  A    between atoms: C_23  and  C_24
REMARK    7  A    between atoms: C_24  and  O_26
REMARK                            x       y       z     vdW  Elec       q    Type
REMARK                         _______ _______ _______ _____ _____    ______ ____
ROOT
ATOM      1  S   UNL     1       7.749   8.405  17.484  0.00  0.00    +0.000 S 
ENDROOT
BRANCH   1   2
ATOM      2  C   UNL     1       7.005   6.885  17.913  0.00  0.00    +0.000 A 
ATOM      3  N   UNL     1       7.501   6.039  18.790  0.00  0.00    +0.000 NA
ATOM      4  N   UNL     1       6.578   5.028  18.929  0.00  0.00    +0.000 NA
ATOM      5  C   UNL     1       5.575   5.299  18.112  0.00  0.00    +0.000 A 
ATOM      6  O   UNL     1       5.804   6.459  17.402  0.00  0.00    +0.000 OA
BRANCH   5   7
ATOM      7  C   UNL     1       4.342   4.458  18.023  0.00  0.00    +0.000 A 
ATOM      8  C   UNL     1       4.057   3.630  16.954  0.00  0.00    +0.000 A 
ATOM      9  N   UNL     1       2.878   2.988  17.217  0.00  0.00    +0.000 N 
ATOM     10  C   UNL     1       2.356   3.430  18.416  0.00  0.00    +0.000 A 
ATOM     11  C   UNL     1       1.152   3.093  19.043  0.00  0.00    +0.000 A 
ATOM     12  C   UNL     1       0.846   3.739  20.244  0.00  0.00    +0.000 A 
ATOM     13  C   UNL     1       1.725   4.660  20.805  0.00  0.00    +0.000 A 
ATOM     14  C   UNL     1       2.943   4.960  20.179  0.00  0.00    +0.000 A 
ATOM     15  C   UNL     1       3.264   4.349  18.950  0.00  0.00    +0.000 A 
ATOM     16  H   UNL     1       2.429   2.314  16.611  0.00  0.00    +0.000 HD
ENDBRANCH   5   7
ENDBRANCH   1   2
BRANCH   1  17
ATOM     17  C   UNL     1       8.789   8.685  18.954  0.00  0.00    +0.000 C 
BRANCH  17  19
ATOM     18  O   UNL     1       9.468  10.519  20.325  0.00  0.00    +0.000 OA
ATOM     19  C   UNL     1       9.130  10.156  19.200  0.00  0.00    +0.000 C 
ATOM     20  N   UNL     1       9.090  10.975  18.080  0.00  0.00    +0.000 N 
ATOM     21  H   UNL     1       8.626  10.586  17.267  0.00  0.00    +0.000 HD
BRANCH  20  22
ATOM     22  C   UNL     1       9.417  12.349  18.034  0.00  0.00    +0.000 A 
ATOM     23  C   UNL     1       8.498  13.372  18.290  0.00  0.00    +0.000 A 
ATOM     24  C   UNL     1       8.869  14.721  18.183  0.00  0.00    +0.000 A 
ATOM     25  C   UNL     1      10.170  15.061  17.808  0.00  0.00    +0.000 A 
ATOM     26  C   UNL     1      11.110  14.045  17.607  0.00  0.00    +0.000 A 
ATOM     27  C   UNL     1      10.737  12.697  17.725  0.00  0.00    +0.000 A 
BRANCH  25  28
ATOM     28  C   UNL     1      10.622  16.470  17.664  0.00  0.00    +0.000 C 
ATOM     29  O   UNL     1      10.794  16.997  16.580  0.00  0.00    +0.000 OA
BRANCH  28  30
ATOM     30  O   UNL     1      10.782  17.132  18.833  0.00  0.00    +0.000 OA
ATOM     31  H   UNL     1       9.967  17.313  19.333  0.00  0.00    +0.000 HD
ENDBRANCH  28  30
ENDBRANCH  25  28
ENDBRANCH  20  22
ENDBRANCH  17  19
ENDBRANCH   1  17
TORSDOF 7
ENDMDL
MODEL 9
REMARK VINA RESULT:      -7.5      4.789      6.692
REMARK  Name = 
REMARK  7 active torsions:
REMARK  status: ('A' for Active; 'I' for Inactive)
REMARK    1  A    between atoms: C_2  and  C_3
REMARK    2  A    between atoms: C_3  and  S_4
REMARK    3  A    between atoms: S_4  and  C_5
REMARK    4  A    between atoms: C_8  and  C_9
REMARK    5  A    between atoms: N_19  and  C_20
REMARK    6  A    between atoms: C_23  and  C_24
REMARK    7  A    between atoms: C_24  and  O_26
REMARK                            x       y       z     vdW  Elec       q    Type
REMARK                         _______ _______ _______ _____ _____    ______ ____
ROOT
ATOM      1  S   UNL     1       0.655  10.159  19.686  0.00  0.00    +0.000 S 
ENDROOT
BRANCH   1   2
ATOM      2  C   UNL     1       1.601   8.946  18.861  0.00  0.00    +0.000 A 
ATOM      3  N   UNL     1       2.188   9.129  17.699  0.00  0.00    +0.000 NA
ATOM      4  N   UNL     1       2.919   7.992  17.442  0.00  0.00    +0.000 NA
ATOM      5  C   UNL     1       2.722   7.164  18.454  0.00  0.00    +0.000 A 
ATOM      6  O   UNL     1       1.855   7.701  19.382  0.00  0.00    +0.000 OA
BRANCH   5   7
ATOM      7  C   UNL     1       3.402   5.837  18.569  0.00  0.00    +0.000 A 
ATOM      8  C   UNL     1       4.773   5.685  18.641  0.00  0.00    +0.000 A 
ATOM      9  N   UNL     1       5.045   4.351  18.776  0.00  0.00    +0.000 N 
ATOM     10  C   UNL     1       3.874   3.622  18.733  0.00  0.00    +0.000 A 
ATOM     11  C   UNL     1       3.683   2.237  18.774  0.00  0.00    +0.000 A 
ATOM     12  C   UNL     1       2.374   1.762  18.659  0.00  0.00    +0.000 A 
ATOM     13  C   UNL     1       1.301   2.641  18.538  0.00  0.00    +0.000 A 
ATOM     14  C   UNL     1       1.510   4.027  18.532  0.00  0.00    +0.000 A 
ATOM     15  C   UNL     1       2.822   4.536  18.614  0.00  0.00    +0.000 A 
ATOM     16  H   UNL     1       5.969   3.946  18.859  0.00  0.00    +0.000 HD
ENDBRANCH   5   7
ENDBRANCH   1   2
BRANCH   1  17
ATOM     17  C   UNL     1       0.382   9.329  21.286  0.00  0.00    +0.000 C 
BRANCH  17  19
ATOM     18  O   UNL     1       0.094  10.043  23.546  0.00  0.00    +0.000 OA
ATOM     19  C   UNL     1      -0.193  10.245  22.369  0.00  0.00    +0.000 C 
ATOM     20  N   UNL     1      -0.967  11.301  21.909  0.00  0.00    +0.000 N 
ATOM     21  H   UNL     1      -1.265  11.241  20.942  0.00  0.00    +0.000 HD
BRANCH  20  22
ATOM     22  C   UNL     1      -1.559  12.313  22.699  0.00  0.00    +0.000 A 
ATOM     23  C   UNL     1      -2.838  12.212  23.254  0.00  0.00    +0.000 A 
ATOM     24  C   UNL     1      -3.393  13.269  23.992  0.00  0.00    +0.000 A 
ATOM     25  C   UNL     1      -2.669  14.448  24.176  0.00  0.00    +0.000 A 
ATOM     26  C   UNL     1      -1.367  14.535  23.674  0.00  0.00    +0.000 A 
ATOM     27  C   UNL     1      -0.812  13.471  22.945  0.00  0.00    +0.000 A 
BRANCH  25  28
ATOM     28  C   UNL     1      -3.205  15.608  24.936  0.00  0.00    +0.000 C 
ATOM     29  O   UNL     1      -4.378  15.932  24.899  0.00  0.00    +0.000 OA
BRANCH  28  30
ATOM     30  O   UNL     1      -2.294  16.247  25.705  0.00  0.00    +0.000 OA
ATOM     31  H   UNL     1      -1.532  15.713  25.991  0.00  0.00    +0.000 HD
ENDBRANCH  28  30
ENDBRANCH  25  28
ENDBRANCH  20  22
ENDBRANCH  17  19
ENDBRANCH   1  17
TORSDOF 7
ENDMDL
