MODEL 1
REMARK VINA RESULT:      -8.2      0.000      0.000
REMARK  Name = 
REMARK  6 active torsions:
REMARK  status: ('A' for Active; 'I' for Inactive)
REMARK    1  A    between atoms: C_1  and  C_2
REMARK    2  A    between atoms: C_2  and  C_3
REMARK    3  A    between atoms: N_5  and  C_6
REMARK    4  A    between atoms: C_10  and  C_11
REMARK    5  A    between atoms: N_13  and  C_14
REMARK    6  A    between atoms: N_23  and  C_24
REMARK                            x       y       z     vdW  Elec       q    Type
REMARK                         _______ _______ _______ _____ _____    ______ ____
ROOT
ATOM      1  C   UNL     1       8.119   8.819  18.129  0.00  0.00    +0.000 C 
ATOM      2  O   UNL     1       7.445   9.487  17.345  0.00  0.00    +0.000 OA
ATOM      3  N   UNL     1       9.125   9.292  18.959  0.00  0.00    +0.000 N 
ATOM      4  H   UNL     1       9.730   8.610  19.400  0.00  0.00    +0.000 HD
ENDROOT
BRANCH   3   5
ATOM      5  C   UNL     1       9.515  10.646  19.069  0.00  0.00    +0.000 A 
ATOM      6  C   UNL     1       9.366  11.369  20.275  0.00  0.00    +0.000 A 
ATOM      7  C   UNL     1       9.662  12.727  20.357  0.00  0.00    +0.000 A 
ATOM      8  C   UNL     1      10.127  13.328  19.216  0.00  0.00    +0.000 A 
ATOM      9  C   UNL     1      10.332  12.636  18.043  0.00  0.00    +0.000 A 
ATOM     10  C   UNL     1      10.043  11.287  17.937  0.00  0.00    +0.000 A 
ATOM     11  O   UNL     1      10.810  13.455  17.030  0.00  0.00    +0.000 OA
ATOM     12  C   UNL     1      10.869  14.719  17.653  0.00  0.00    +0.000 A 
ATOM     13  O   UNL     1      11.237  15.729  17.072  0.00  0.00    +0.000 OA
ATOM     14  N   UNL     1      10.457  14.635  18.965  0.00  0.00    +0.000 N 
ATOM     15  C   UNL     1      10.311  15.705  19.910  0.00  0.00    +0.000 C 
ENDBRANCH   3   5
BRANCH   1  20
ATOM     16  C   UNL     1       6.918   5.424  17.012  0.00  0.00    +0.000 A 
ATOM     17  C   UNL     1       7.355   4.633  18.079  0.00  0.00    +0.000 A 
ATOM     18  C   UNL     1       7.997   5.194  19.186  0.00  0.00    +0.000 A 
ATOM     19  C   UNL     1       8.246   6.561  19.228  0.00  0.00    +0.000 A 
ATOM     20  C   UNL     1       7.884   7.354  18.138  0.00  0.00    +0.000 A 
ATOM     21  C   UNL     1       7.220   6.788  17.033  0.00  0.00    +0.000 A 
BRANCH  16  24
ATOM     22  C   UNL     1       6.637   4.854  14.617  0.00  0.00    +0.000 C 
ATOM     23  O   UNL     1       7.753   5.197  14.238  0.00  0.00    +0.000 OA
ATOM     24  N   UNL     1       6.174   4.908  15.924  0.00  0.00    +0.000 N 
ATOM     25  H   UNL     1       5.324   4.401  16.140  0.00  0.00    +0.000 HD
BRANCH  22  27
ATOM     26  C   UNL     1       6.339   3.566  12.504  0.00  0.00    +0.000 C 
ATOM     27  C   UNL     1       5.623   4.288  13.638  0.00  0.00    +0.000 C 
ENDBRANCH  22  27
ENDBRANCH  16  24
ENDBRANCH   1  20
TORSDOF 4
ENDMDL
MODEL 2
REMARK VINA RESULT:      -8.2      6.400      7.737
REMARK  Name = 
REMARK  6 active torsions:
REMARK  status: ('A' for Active; 'I' for Inactive)
REMARK    1  A    between atoms: C_1  and  C_2
REMARK    2  A    between atoms: C_2  and  C_3
REMARK    3  A    between atoms: N_5  and  C_6
REMARK    4  A    between atoms: C_10  and  C_11
REMARK    5  A    between atoms: N_13  and  C_14
REMARK    6  A    between atoms: N_23  and  C_24
REMARK                            x       y       z     vdW  Elec       q    Type
REMARK                         _______ _______ _______ _____ _____    ______ ____
ROOT
ATOM      1  C   UNL     1       3.519   6.192  18.266  0.00  0.00    +0.000 C 
ATOM      2  O   UNL     1       2.642   5.409  18.632  0.00  0.00    +0.000 OA
ATOM      3  N   UNL     1       3.414   7.573  18.199  0.00  0.00    +0.000 N 
ATOM      4  H   UNL     1       4.133   8.076  17.694  0.00  0.00    +0.000 HD
ENDROOT
BRANCH   3   5
ATOM      5  C   UNL     1       2.277   8.319  18.588  0.00  0.00    +0.000 A 
ATOM      6  C   UNL     1       1.465   8.987  17.644  0.00  0.00    +0.000 A 
ATOM      7  C   UNL     1       0.402   9.798  18.034  0.00  0.00    +0.000 A 
ATOM      8  C   UNL     1       0.164   9.899  19.381  0.00  0.00    +0.000 A 
ATOM      9  C   UNL     1       0.906   9.216  20.319  0.00  0.00    +0.000 A 
ATOM     10  C   UNL     1       1.967   8.407  19.955  0.00  0.00    +0.000 A 
ATOM     11  O   UNL     1       0.475   9.473  21.612  0.00  0.00    +0.000 OA
ATOM     12  C   UNL     1      -0.580  10.387  21.414  0.00  0.00    +0.000 A 
ATOM     13  O   UNL     1      -1.221  10.872  22.335  0.00  0.00    +0.000 OA
ATOM     14  N   UNL     1      -0.760  10.638  20.072  0.00  0.00    +0.000 N 
ATOM     15  C   UNL     1      -1.683  11.556  19.466  0.00  0.00    +0.000 C 
ENDBRANCH   3   5
BRANCH   1  20
ATOM     16  C   UNL     1       5.961   4.445  15.985  0.00  0.00    +0.000 A 
ATOM     17  C   UNL     1       7.101   4.425  16.795  0.00  0.00    +0.000 A 
ATOM     18  C   UNL     1       7.077   4.932  18.097  0.00  0.00    +0.000 A 
ATOM     19  C   UNL     1       5.914   5.502  18.602  0.00  0.00    +0.000 A 
ATOM     20  C   UNL     1       4.789   5.598  17.780  0.00  0.00    +0.000 A 
ATOM     21  C   UNL     1       4.811   5.069  16.475  0.00  0.00    +0.000 A 
BRANCH  16  24
ATOM     22  C   UNL     1       6.622   4.315  13.600  0.00  0.00    +0.000 C 
ATOM     23  O   UNL     1       7.402   5.263  13.598  0.00  0.00    +0.000 OA
ATOM     24  N   UNL     1       5.918   3.850  14.702  0.00  0.00    +0.000 N 
ATOM     25  H   UNL     1       5.479   2.939  14.625  0.00  0.00    +0.000 HD
BRANCH  22  27
ATOM     26  C   UNL     1       4.874   3.470  12.038  0.00  0.00    +0.000 C 
ATOM     27  C   UNL     1       6.367   3.515  12.335  0.00  0.00    +0.000 C 
ENDBRANCH  22  27
ENDBRANCH  16  24
ENDBRANCH   1  20
TORSDOF 4
ENDMDL
MODEL 3
REMARK VINA RESULT:      -8.2      6.941      8.465
REMARK  Name = 
REMARK  6 active torsions:
REMARK  status: ('A' for Active; 'I' for Inactive)
REMARK    1  A    between atoms: C_1  and  C_2
REMARK    2  A    between atoms: C_2  and  C_3
REMARK    3  A    between atoms: N_5  and  C_6
REMARK    4  A    between atoms: C_10  and  C_11
REMARK    5  A    between atoms: N_13  and  C_14
REMARK    6  A    between atoms: N_23  and  C_24
REMARK                            x       y       z     vdW  Elec       q    Type
REMARK                         _______ _______ _______ _____ _____    ______ ____
ROOT
ATOM      1  C   UNL     1       1.676   5.797  20.521  0.00  0.00    +0.000 C 
ATOM      2  O   UNL     1       0.479   5.524  20.600  0.00  0.00    +0.000 OA
ATOM      3  N   UNL     1       2.230   7.068  20.485  0.00  0.00    +0.000 N 
ATOM      4  H   UNL     1       3.203   7.149  20.218  0.00  0.00    +0.000 HD
ENDROOT
BRANCH   3   5
ATOM      5  C   UNL     1       1.497   8.274  20.577  0.00  0.00    +0.000 A 
ATOM      6  C   UNL     1       1.271   9.096  19.450  0.00  0.00    +0.000 A 
ATOM      7  C   UNL     1       0.631  10.328  19.556  0.00  0.00    +0.000 A 
ATOM      8  C   UNL     1       0.209  10.698  20.808  0.00  0.00    +0.000 A 
ATOM      9  C   UNL     1       0.370   9.893  21.914  0.00  0.00    +0.000 A 
ATOM     10  C   UNL     1       1.004   8.666  21.831  0.00  0.00    +0.000 A 
ATOM     11  O   UNL     1      -0.139  10.479  23.064  0.00  0.00    +0.000 OA
ATOM     12  C   UNL     1      -0.611  11.722  22.598  0.00  0.00    +0.000 A 
ATOM     13  O   UNL     1      -1.130  12.553  23.330  0.00  0.00    +0.000 OA
ATOM     14  N   UNL     1      -0.399  11.847  21.243  0.00  0.00    +0.000 N 
ATOM     15  C   UNL     1      -0.676  12.983  20.411  0.00  0.00    +0.000 C 
ENDBRANCH   3   5
BRANCH   1  20
ATOM     16  C   UNL     1       4.552   3.725  19.235  0.00  0.00    +0.000 A 
ATOM     17  C   UNL     1       4.402   2.569  20.007  0.00  0.00    +0.000 A 
ATOM     18  C   UNL     1       3.348   2.431  20.913  0.00  0.00    +0.000 A 
ATOM     19  C   UNL     1       2.439   3.468  21.088  0.00  0.00    +0.000 A 
ATOM     20  C   UNL     1       2.617   4.659  20.380  0.00  0.00    +0.000 A 
ATOM     21  C   UNL     1       3.670   4.786  19.454  0.00  0.00    +0.000 A 
BRANCH  16  24
ATOM     22  C   UNL     1       6.704   4.608  18.380  0.00  0.00    +0.000 C 
ATOM     23  O   UNL     1       7.045   5.208  19.395  0.00  0.00    +0.000 OA
ATOM     24  N   UNL     1       5.544   3.860  18.234  0.00  0.00    +0.000 N 
ATOM     25  H   UNL     1       5.483   3.245  17.431  0.00  0.00    +0.000 HD
BRANCH  22  27
ATOM     26  C   UNL     1       6.713   4.652  15.888  0.00  0.00    +0.000 C 
ATOM     27  C   UNL     1       7.580   4.616  17.140  0.00  0.00    +0.000 C 
ENDBRANCH  22  27
ENDBRANCH  16  24
ENDBRANCH   1  20
TORSDOF 4
ENDMDL
MODEL 4
REMARK VINA RESULT:      -8.0      1.490      1.884
REMARK  Name = 
REMARK  6 active torsions:
REMARK  status: ('A' for Active; 'I' for Inactive)
REMARK    1  A    between atoms: C_1  and  C_2
REMARK    2  A    between atoms: C_2  and  C_3
REMARK    3  A    between atoms: N_5  and  C_6
REMARK    4  A    between atoms: C_10  and  C_11
REMARK    5  A    between atoms: N_13  and  C_14
REMARK    6  A    between atoms: N_23  and  C_24
REMARK                            x       y       z     vdW  Elec       q    Type
REMARK                         _______ _______ _______ _____ _____    ______ ____
ROOT
ATOM      1  C   UNL     1       8.114   8.704  18.069  0.00  0.00    +0.000 C 
ATOM      2  O   UNL     1       7.536   9.371  17.212  0.00  0.00    +0.000 OA
ATOM      3  N   UNL     1       9.034   9.172  18.995  0.00  0.00    +0.000 N 
ATOM      4  H   UNL     1       9.579   8.488  19.504  0.00  0.00    +0.000 HD
ENDROOT
BRANCH   3   5
ATOM      5  C   UNL     1       9.431  10.523  19.131  0.00  0.00    +0.000 A 
ATOM      6  C   UNL     1      10.006  11.242  18.060  0.00  0.00    +0.000 A 
ATOM      7  C   UNL     1      10.483  12.541  18.219  0.00  0.00    +0.000 A 
ATOM      8  C   UNL     1      10.345  13.100  19.464  0.00  0.00    +0.000 A 
ATOM      9  C   UNL     1       9.740  12.441  20.511  0.00  0.00    +0.000 A 
ATOM     10  C   UNL     1       9.262  11.150  20.376  0.00  0.00    +0.000 A 
ATOM     11  O   UNL     1       9.715  13.209  21.667  0.00  0.00    +0.000 OA
ATOM     12  C   UNL     1      10.371  14.392  21.269  0.00  0.00    +0.000 A 
ATOM     13  O   UNL     1      10.564  15.332  22.027  0.00  0.00    +0.000 OA
ATOM     14  N   UNL     1      10.747  14.319  19.946  0.00  0.00    +0.000 N 
ATOM     15  C   UNL     1      11.491  15.286  19.189  0.00  0.00    +0.000 C 
ENDBRANCH   3   5
BRANCH   1  20
ATOM     16  C   UNL     1       6.895   5.328  16.914  0.00  0.00    +0.000 A 
ATOM     17  C   UNL     1       7.290   4.529  17.992  0.00  0.00    +0.000 A 
ATOM     18  C   UNL     1       7.909   5.079  19.117  0.00  0.00    +0.000 A 
ATOM     19  C   UNL     1       8.177   6.442  19.168  0.00  0.00    +0.000 A 
ATOM     20  C   UNL     1       7.857   7.242  18.069  0.00  0.00    +0.000 A 
ATOM     21  C   UNL     1       7.216   6.687  16.945  0.00  0.00    +0.000 A 
BRANCH  16  24
ATOM     22  C   UNL     1       6.658   4.798  14.505  0.00  0.00    +0.000 C 
ATOM     23  O   UNL     1       7.776   5.161  14.150  0.00  0.00    +0.000 OA
ATOM     24  N   UNL     1       6.174   4.824  15.805  0.00  0.00    +0.000 N 
ATOM     25  H   UNL     1       5.326   4.303  15.998  0.00  0.00    +0.000 HD
BRANCH  22  27
ATOM     26  C   UNL     1       6.409   3.578  12.346  0.00  0.00    +0.000 C 
ATOM     27  C   UNL     1       5.666   4.241  13.499  0.00  0.00    +0.000 C 
ENDBRANCH  22  27
ENDBRANCH  16  24
ENDBRANCH   1  20
TORSDOF 4
ENDMDL
MODEL 5
REMARK VINA RESULT:      -7.9      6.773      8.064
REMARK  Name = 
REMARK  6 active torsions:
REMARK  status: ('A' for Active; 'I' for Inactive)
REMARK    1  A    between atoms: C_1  and  C_2
REMARK    2  A    between atoms: C_2  and  C_3
REMARK    3  A    between atoms: N_5  and  C_6
REMARK    4  A    between atoms: C_10  and  C_11
REMARK    5  A    between atoms: N_13  and  C_14
REMARK    6  A    between atoms: N_23  and  C_24
REMARK                            x       y       z     vdW  Elec       q    Type
REMARK                         _______ _______ _______ _____ _____    ______ ____
ROOT
ATOM      1  C   UNL     1       2.528   7.682  18.566  0.00  0.00    +0.000 C 
ATOM      2  O   UNL     1       2.494   8.402  17.569  0.00  0.00    +0.000 OA
ATOM      3  N   UNL     1       1.900   7.925  19.779  0.00  0.00    +0.000 N 
ATOM      4  H   UNL     1       2.174   7.359  20.572  0.00  0.00    +0.000 HD
ENDROOT
BRANCH   3   5
ATOM      5  C   UNL     1       1.071   9.038  20.053  0.00  0.00    +0.000 A 
ATOM      6  C   UNL     1       0.488   9.805  19.020  0.00  0.00    +0.000 A 
ATOM      7  C   UNL     1      -0.251  10.955  19.287  0.00  0.00    +0.000 A 
ATOM      8  C   UNL     1      -0.406  11.296  20.607  0.00  0.00    +0.000 A 
ATOM      9  C   UNL     1       0.107  10.537  21.635  0.00  0.00    +0.000 A 
ATOM     10  C   UNL     1       0.845   9.392  21.393  0.00  0.00    +0.000 A 
ATOM     11  O   UNL     1      -0.182  11.079  22.879  0.00  0.00    +0.000 OA
ATOM     12  C   UNL     1      -0.897  12.250  22.550  0.00  0.00    +0.000 A 
ATOM     13  O   UNL     1      -1.323  13.027  23.392  0.00  0.00    +0.000 OA
ATOM     14  N   UNL     1      -1.026  12.373  21.184  0.00  0.00    +0.000 N 
ATOM     15  C   UNL     1      -1.626  13.453  20.453  0.00  0.00    +0.000 C 
ENDBRANCH   3   5
BRANCH   1  20
ATOM     16  C   UNL     1       4.811   5.048  17.129  0.00  0.00    +0.000 A 
ATOM     17  C   UNL     1       4.964   4.207  18.235  0.00  0.00    +0.000 A 
ATOM     18  C   UNL     1       4.296   4.458  19.436  0.00  0.00    +0.000 A 
ATOM     19  C   UNL     1       3.485   5.580  19.562  0.00  0.00    +0.000 A 
ATOM     20  C   UNL     1       3.382   6.471  18.492  0.00  0.00    +0.000 A 
ATOM     21  C   UNL     1       4.042   6.205  17.276  0.00  0.00    +0.000 A 
BRANCH  16  24
ATOM     22  C   UNL     1       6.634   5.228  15.459  0.00  0.00    +0.000 C 
ATOM     23  O   UNL     1       7.415   5.884  16.144  0.00  0.00    +0.000 OA
ATOM     24  N   UNL     1       5.388   4.772  15.866  0.00  0.00    +0.000 N 
ATOM     25  H   UNL     1       4.939   4.068  15.292  0.00  0.00    +0.000 HD
BRANCH  22  27
ATOM     26  C   UNL     1       5.980   3.819  13.511  0.00  0.00    +0.000 C 
ATOM     27  C   UNL     1       6.998   4.819  14.042  0.00  0.00    +0.000 C 
ENDBRANCH  22  27
ENDBRANCH  16  24
ENDBRANCH   1  20
TORSDOF 4
ENDMDL
MODEL 6
REMARK VINA RESULT:      -7.8      6.915      8.187
REMARK  Name = 
REMARK  6 active torsions:
REMARK  status: ('A' for Active; 'I' for Inactive)
REMARK    1  A    between atoms: C_1  and  C_2
REMARK    2  A    between atoms: C_2  and  C_3
REMARK    3  A    between atoms: N_5  and  C_6
REMARK    4  A    between atoms: C_10  and  C_11
REMARK    5  A    between atoms: N_13  and  C_14
REMARK    6  A    between atoms: N_23  and  C_24
REMARK                            x       y       z     vdW  Elec       q    Type
REMARK                         _______ _______ _______ _____ _____    ______ ____
ROOT
ATOM      1  C   UNL     1       1.844   5.730  20.375  0.00  0.00    +0.000 C 
ATOM      2  O   UNL     1       0.691   5.413  20.664  0.00  0.00    +0.000 OA
ATOM      3  N   UNL     1       2.338   7.021  20.263  0.00  0.00    +0.000 N 
ATOM      4  H   UNL     1       3.243   7.142  19.826  0.00  0.00    +0.000 HD
ENDROOT
BRANCH   3   5
ATOM      5  C   UNL     1       1.594   8.198  20.509  0.00  0.00    +0.000 A 
ATOM      6  C   UNL     1       1.180   8.560  21.811  0.00  0.00    +0.000 A 
ATOM      7  C   UNL     1       0.368   9.667  22.042  0.00  0.00    +0.000 A 
ATOM      8  C   UNL     1       0.006  10.407  20.944  0.00  0.00    +0.000 A 
ATOM      9  C   UNL     1       0.439  10.107  19.672  0.00  0.00    +0.000 A 
ATOM     10  C   UNL     1       1.245   9.012  19.419  0.00  0.00    +0.000 A 
ATOM     11  O   UNL     1      -0.053  10.999  18.730  0.00  0.00    +0.000 OA
ATOM     12  C   UNL     1      -0.847  11.867  19.508  0.00  0.00    +0.000 A 
ATOM     13  O   UNL     1      -1.474  12.802  19.030  0.00  0.00    +0.000 OA
ATOM     14  N   UNL     1      -0.807  11.505  20.836  0.00  0.00    +0.000 N 
ATOM     15  C   UNL     1      -1.527  12.093  21.929  0.00  0.00    +0.000 C 
ENDBRANCH   3   5
BRANCH   1  20
ATOM     16  C   UNL     1       4.505   3.782  18.548  0.00  0.00    +0.000 A 
ATOM     17  C   UNL     1       4.538   2.611  19.312  0.00  0.00    +0.000 A 
ATOM     18  C   UNL     1       3.671   2.423  20.392  0.00  0.00    +0.000 A 
ATOM     19  C   UNL     1       2.775   3.424  20.748  0.00  0.00    +0.000 A 
ATOM     20  C   UNL     1       2.781   4.629  20.043  0.00  0.00    +0.000 A 
ATOM     21  C   UNL     1       3.643   4.807  18.943  0.00  0.00    +0.000 A 
BRANCH  16  24
ATOM     22  C   UNL     1       6.609   4.405  17.397  0.00  0.00    +0.000 C 
ATOM     23  O   UNL     1       7.275   4.646  18.400  0.00  0.00    +0.000 OA
ATOM     24  N   UNL     1       5.293   3.966  17.386  0.00  0.00    +0.000 N 
ATOM     25  H   UNL     1       4.930   3.600  16.514  0.00  0.00    +0.000 HD
BRANCH  22  27
ATOM     26  C   UNL     1       6.233   4.044  14.960  0.00  0.00    +0.000 C 
ATOM     27  C   UNL     1       7.211   4.553  16.011  0.00  0.00    +0.000 C 
ENDBRANCH  22  27
ENDBRANCH  16  24
ENDBRANCH   1  20
TORSDOF 4
ENDMDL
MODEL 7
REMARK VINA RESULT:      -7.8      6.870      8.200
REMARK  Name = 
REMARK  6 active torsions:
REMARK  status: ('A' for Active; 'I' for Inactive)
REMARK    1  A    between atoms: C_1  and  C_2
REMARK    2  A    between atoms: C_2  and  C_3
REMARK    3  A    between atoms: N_5  and  C_6
REMARK    4  A    between atoms: C_10  and  C_11
REMARK    5  A    between atoms: N_13  and  C_14
REMARK    6  A    between atoms: N_23  and  C_24
REMARK                            x       y       z     vdW  Elec       q    Type
REMARK                         _______ _______ _______ _____ _____    ______ ____
ROOT
ATOM      1  C   UNL     1       2.520   7.366  19.167  0.00  0.00    +0.000 C 
ATOM      2  O   UNL     1       2.549   8.224  18.285  0.00  0.00    +0.000 OA
ATOM      3  N   UNL     1       1.896   7.474  20.401  0.00  0.00    +0.000 N 
ATOM      4  H   UNL     1       2.119   6.780  21.103  0.00  0.00    +0.000 HD
ENDROOT
BRANCH   3   5
ATOM      5  C   UNL     1       1.145   8.592  20.834  0.00  0.00    +0.000 A 
ATOM      6  C   UNL     1       0.972   8.888  22.204  0.00  0.00    +0.000 A 
ATOM      7  C   UNL     1       0.156   9.932  22.632  0.00  0.00    +0.000 A 
ATOM      8  C   UNL     1      -0.458  10.676  21.656  0.00  0.00    +0.000 A 
ATOM      9  C   UNL     1      -0.265  10.441  20.313  0.00  0.00    +0.000 A 
ATOM     10  C   UNL     1       0.540   9.409  19.865  0.00  0.00    +0.000 A 
ATOM     11  O   UNL     1      -0.986  11.323  19.521  0.00  0.00    +0.000 OA
ATOM     12  C   UNL     1      -1.662  12.115  20.472  0.00  0.00    +0.000 A 
ATOM     13  O   UNL     1      -2.426  13.018  20.162  0.00  0.00    +0.000 OA
ATOM     14  N   UNL     1      -1.341  11.720  21.752  0.00  0.00    +0.000 N 
ATOM     15  C   UNL     1      -1.867  12.228  22.986  0.00  0.00    +0.000 C 
ENDBRANCH   3   5
BRANCH   1  20
ATOM     16  C   UNL     1       4.662   4.831  17.378  0.00  0.00    +0.000 A 
ATOM     17  C   UNL     1       4.710   3.813  18.335  0.00  0.00    +0.000 A 
ATOM     18  C   UNL     1       4.016   3.917  19.543  0.00  0.00    +0.000 A 
ATOM     19  C   UNL     1       3.284   5.064  19.830  0.00  0.00    +0.000 A 
ATOM     20  C   UNL     1       3.287   6.121  18.917  0.00  0.00    +0.000 A 
ATOM     21  C   UNL     1       3.972   6.004  17.693  0.00  0.00    +0.000 A 
BRANCH  16  24
ATOM     22  C   UNL     1       6.601   4.993  15.843  0.00  0.00    +0.000 C 
ATOM     23  O   UNL     1       7.439   5.321  16.678  0.00  0.00    +0.000 OA
ATOM     24  N   UNL     1       5.265   4.718  16.102  0.00  0.00    +0.000 N 
ATOM     25  H   UNL     1       4.735   4.255  15.374  0.00  0.00    +0.000 HD
BRANCH  22  27
ATOM     26  C   UNL     1       5.994   3.900  13.687  0.00  0.00    +0.000 C 
ATOM     27  C   UNL     1       6.981   4.828  14.382  0.00  0.00    +0.000 C 
ENDBRANCH  22  27
ENDBRANCH  16  24
ENDBRANCH   1  20
TORSDOF 4
ENDMDL
MODEL 8
REMARK VINA RESULT:      -7.8      7.834      9.082
REMARK  Name = 
REMARK  6 active torsions:
REMARK  status: ('A' for Active; 'I' for Inactive)
REMARK    1  A    between atoms: C_1  and  C_2
REMARK    2  A    between atoms: C_2  and  C_3
REMARK    3  A    between atoms: N_5  and  C_6
REMARK    4  A    between atoms: C_10  and  C_11
REMARK    5  A    between atoms: N_13  and  C_14
REMARK    6  A    between atoms: N_23  and  C_24
REMARK                            x       y       z     vdW  Elec       q    Type
REMARK                         _______ _______ _______ _____ _____    ______ ____
ROOT
ATOM      1  C   UNL     1       2.026   8.857  18.276  0.00  0.00    +0.000 C 
ATOM      2  O   UNL     1       2.200   9.855  17.577  0.00  0.00    +0.000 OA
ATOM      3  N   UNL     1       1.187   8.759  19.376  0.00  0.00    +0.000 N 
ATOM      4  H   UNL     1       1.291   7.950  19.976  0.00  0.00    +0.000 HD
ENDROOT
BRANCH   3   5
ATOM      5  C   UNL     1       0.351   9.795  19.853  0.00  0.00    +0.000 A 
ATOM      6  C   UNL     1      -0.601  10.426  19.021  0.00  0.00    +0.000 A 
ATOM      7  C   UNL     1      -1.359  11.509  19.462  0.00  0.00    +0.000 A 
ATOM      8  C   UNL     1      -1.152  11.921  20.754  0.00  0.00    +0.000 A 
ATOM      9  C   UNL     1      -0.269  11.291  21.602  0.00  0.00    +0.000 A 
ATOM     10  C   UNL     1       0.495  10.215  21.185  0.00  0.00    +0.000 A 
ATOM     11  O   UNL     1      -0.236  11.884  22.855  0.00  0.00    +0.000 OA
ATOM     12  C   UNL     1      -1.150  12.949  22.720  0.00  0.00    +0.000 A 
ATOM     13  O   UNL     1      -1.396  13.733  23.626  0.00  0.00    +0.000 OA
ATOM     14  N   UNL     1      -1.696  12.965  21.456  0.00  0.00    +0.000 N 
ATOM     15  C   UNL     1      -2.611  13.924  20.906  0.00  0.00    +0.000 C 
ENDBRANCH   3   5
BRANCH   1  20
ATOM     16  C   UNL     1       3.269   5.299  18.355  0.00  0.00    +0.000 A 
ATOM     17  C   UNL     1       4.344   5.381  17.465  0.00  0.00    +0.000 A 
ATOM     18  C   UNL     1       4.704   6.593  16.870  0.00  0.00    +0.000 A 
ATOM     19  C   UNL     1       3.968   7.743  17.131  0.00  0.00    +0.000 A 
ATOM     20  C   UNL     1       2.846   7.663  17.958  0.00  0.00    +0.000 A 
ATOM     21  C   UNL     1       2.498   6.443  18.571  0.00  0.00    +0.000 A 
BRANCH  16  24
ATOM     22  C   UNL     1       1.868   3.291  18.738  0.00  0.00    +0.000 C 
ATOM     23  O   UNL     1       1.099   3.449  17.794  0.00  0.00    +0.000 OA
ATOM     24  N   UNL     1       2.939   4.114  19.056  0.00  0.00    +0.000 N 
ATOM     25  H   UNL     1       3.617   3.761  19.721  0.00  0.00    +0.000 HD
BRANCH  22  27
ATOM     26  C   UNL     1       1.501   2.591  21.102  0.00  0.00    +0.000 C 
ATOM     27  C   UNL     1       1.715   2.105  19.674  0.00  0.00    +0.000 C 
ENDBRANCH  22  27
ENDBRANCH  16  24
ENDBRANCH   1  20
TORSDOF 4
ENDMDL
MODEL 9
REMARK VINA RESULT:      -7.6      7.028      7.753
REMARK  Name = 
REMARK  6 active torsions:
REMARK  status: ('A' for Active; 'I' for Inactive)
REMARK    1  A    between atoms: C_1  and  C_2
REMARK    2  A    between atoms: C_2  and  C_3
REMARK    3  A    between atoms: N_5  and  C_6
REMARK    4  A    between atoms: C_10  and  C_11
REMARK    5  A    between atoms: N_13  and  C_14
REMARK    6  A    between atoms: N_23  and  C_24
REMARK                            x       y       z     vdW  Elec       q    Type
REMARK                         _______ _______ _______ _____ _____    ______ ____
ROOT
ATOM      1  C   UNL     1       2.234   5.627  19.782  0.00  0.00    +0.000 C 
ATOM      2  O   UNL     1       1.660   5.358  20.836  0.00  0.00    +0.000 OA
ATOM      3  N   UNL     1       2.314   6.877  19.184  0.00  0.00    +0.000 N 
ATOM      4  H   UNL     1       2.640   6.919  18.227  0.00  0.00    +0.000 HD
ENDROOT
BRANCH   3   5
ATOM      5  C   UNL     1       1.776   8.068  19.722  0.00  0.00    +0.000 A 
ATOM      6  C   UNL     1       1.498   8.204  21.101  0.00  0.00    +0.000 A 
ATOM      7  C   UNL     1       0.881   9.342  21.617  0.00  0.00    +0.000 A 
ATOM      8  C   UNL     1       0.575  10.336  20.724  0.00  0.00    +0.000 A 
ATOM      9  C   UNL     1       0.882  10.251  19.384  0.00  0.00    +0.000 A 
ATOM     10  C   UNL     1       1.493   9.131  18.850  0.00  0.00    +0.000 A 
ATOM     11  O   UNL     1       0.478  11.379  18.684  0.00  0.00    +0.000 OA
ATOM     12  C   UNL     1      -0.125  12.168  19.684  0.00  0.00    +0.000 A 
ATOM     13  O   UNL     1      -0.628  13.259  19.457  0.00  0.00    +0.000 OA
ATOM     14  N   UNL     1      -0.064  11.535  20.906  0.00  0.00    +0.000 N 
ATOM     15  C   UNL     1      -0.620  11.977  22.153  0.00  0.00    +0.000 C 
ENDBRANCH   3   5
BRANCH   1  20
ATOM     16  C   UNL     1       4.201   3.771  17.155  0.00  0.00    +0.000 A 
ATOM     17  C   UNL     1       3.980   2.449  17.553  0.00  0.00    +0.000 A 
ATOM     18  C   UNL     1       3.159   2.146  18.642  0.00  0.00    +0.000 A 
ATOM     19  C   UNL     1       2.568   3.168  19.376  0.00  0.00    +0.000 A 
ATOM     20  C   UNL     1       2.839   4.495  19.038  0.00  0.00    +0.000 A 
ATOM     21  C   UNL     1       3.652   4.797  17.928  0.00  0.00    +0.000 A 
BRANCH  16  24
ATOM     22  C   UNL     1       6.304   4.377  15.991  0.00  0.00    +0.000 C 
ATOM     23  O   UNL     1       7.051   4.307  16.963  0.00  0.00    +0.000 OA
ATOM     24  N   UNL     1       4.941   4.114  15.998  0.00  0.00    +0.000 N 
ATOM     25  H   UNL     1       4.484   3.999  15.101  0.00  0.00    +0.000 HD
BRANCH  22  27
ATOM     26  C   UNL     1       6.199   3.888  13.550  0.00  0.00    +0.000 C 
ATOM     27  C   UNL     1       6.842   4.757  14.623  0.00  0.00    +0.000 C 
ENDBRANCH  22  27
ENDBRANCH  16  24
ENDBRANCH   1  20
TORSDOF 4
ENDMDL
