MODEL 1
REMARK VINA RESULT:      -9.4      0.000      0.000
REMARK  Name = 
REMARK  5 active torsions:
REMARK  status: ('A' for Active; 'I' for Inactive)
REMARK    1  A    between atoms: C_2  and  C_3
REMARK    2  A    between atoms: C_3  and  N_4
REMARK    3  A    between atoms: C_7  and  C_8
REMARK    4  A    between atoms: N_17  and  C_18
REMARK    5  A    between atoms: C_23  and  C_24
REMARK                            x       y       z     vdW  Elec       q    Type
REMARK                         _______ _______ _______ _____ _____    ______ ____
ROOT
ATOM      1  C   UNL     1       6.472   5.558  19.202  0.00  0.00    +0.000 C 
ENDROOT
BRANCH   1   2
ATOM      2  N   UNL     1       7.177   5.406  17.897  0.00  0.00    +0.000 NA
ATOM      3  C   UNL     1       6.918   6.547  17.000  0.00  0.00    +0.000 C 
ATOM      4  C   UNL     1       5.573   6.251  16.367  0.00  0.00    +0.000 C 
ATOM      5  C   UNL     1       5.700   4.766  16.018  0.00  0.00    +0.000 C 
ATOM      6  C   UNL     1       6.603   4.231  17.162  0.00  0.00    +0.000 C 
BRANCH   5   7
ATOM      7  C   UNL     1       6.214   4.705  14.582  0.00  0.00    +0.000 A 
ATOM      8  C   UNL     1       5.760   3.869  13.632  0.00  0.00    +0.000 A 
ATOM      9  C   UNL     1       6.540   3.696  12.391  0.00  0.00    +0.000 A 
ATOM     10  O   UNL     1       6.268   2.797  11.604  0.00  0.00    +0.000 OA
ATOM     11  N   UNL     1       7.600   4.535  12.221  0.00  0.00    +0.000 N 
ATOM     12  C   UNL     1       8.057   5.408  13.165  0.00  0.00    +0.000 A 
ATOM     13  O   UNL     1       9.085   6.060  13.012  0.00  0.00    +0.000 OA
ATOM     14  N   UNL     1       7.317   5.482  14.320  0.00  0.00    +0.000 N 
ATOM     15  H   UNL     1       8.180   4.394  11.408  0.00  0.00    +0.000 HD
ATOM     16  H   UNL     1       7.704   6.098  15.029  0.00  0.00    +0.000 HD
ENDBRANCH   5   7
ENDBRANCH   1   2
BRANCH   1  18
ATOM     17  O   UNL     1       5.603   3.343  19.510  0.00  0.00    +0.000 OA
ATOM     18  C   UNL     1       5.345   4.546  19.460  0.00  0.00    +0.000 C 
ATOM     19  N   UNL     1       4.081   5.078  19.645  0.00  0.00    +0.000 N 
ATOM     20  H   UNL     1       3.935   5.978  19.189  0.00  0.00    +0.000 HD
BRANCH  19  21
ATOM     21  C   UNL     1       2.961   4.296  20.020  0.00  0.00    +0.000 A 
ATOM     22  C   UNL     1       2.911   3.747  21.312  0.00  0.00    +0.000 A 
ATOM     23  C   UNL     1       1.800   3.020  21.748  0.00  0.00    +0.000 A 
ATOM     24  C   UNL     1       0.719   2.829  20.898  0.00  0.00    +0.000 A 
ATOM     25  C   UNL     1       0.757   3.359  19.611  0.00  0.00    +0.000 A 
ATOM     26  C   UNL     1       1.873   4.099  19.154  0.00  0.00    +0.000 A 
BRANCH  26  27
ATOM     27  C   UNL     1       1.860   4.537  17.713  0.00  0.00    +0.000 C 
ATOM     28  F   UNL     1       0.650   4.422  17.095  0.00  0.00    +0.000 F 
ATOM     29  F   UNL     1       2.222   5.844  17.566  0.00  0.00    +0.000 F 
ATOM     30  F   UNL     1       2.729   3.826  16.943  0.00  0.00    +0.000 F 
ENDBRANCH  26  27
ENDBRANCH  19  21
ENDBRANCH   1  18
TORSDOF 5
ENDMDL
MODEL 2
REMARK VINA RESULT:      -8.9      0.641      1.706
REMARK  Name = 
REMARK  5 active torsions:
REMARK  status: ('A' for Active; 'I' for Inactive)
REMARK    1  A    between atoms: C_2  and  C_3
REMARK    2  A    between atoms: C_3  and  N_4
REMARK    3  A    between atoms: C_7  and  C_8
REMARK    4  A    between atoms: N_17  and  C_18
REMARK    5  A    between atoms: C_23  and  C_24
REMARK                            x       y       z     vdW  Elec       q    Type
REMARK                         _______ _______ _______ _____ _____    ______ ____
ROOT
ATOM      1  C   UNL     1       6.459   5.618  19.136  0.00  0.00    +0.000 C 
ENDROOT
BRANCH   1   2
ATOM      2  N   UNL     1       7.258   5.399  17.897  0.00  0.00    +0.000 NA
ATOM      3  C   UNL     1       7.072   6.492  16.926  0.00  0.00    +0.000 C 
ATOM      4  C   UNL     1       5.776   6.166  16.211  0.00  0.00    +0.000 C 
ATOM      5  C   UNL     1       5.921   4.665  15.948  0.00  0.00    +0.000 C 
ATOM      6  C   UNL     1       6.734   4.189  17.182  0.00  0.00    +0.000 C 
BRANCH   5   7
ATOM      7  C   UNL     1       6.539   4.530  14.559  0.00  0.00    +0.000 A 
ATOM      8  C   UNL     1       7.434   5.378  14.024  0.00  0.00    +0.000 A 
ATOM      9  C   UNL     1       7.716   5.311  12.577  0.00  0.00    +0.000 A 
ATOM     10  O   UNL     1       8.362   6.195  12.027  0.00  0.00    +0.000 OA
ATOM     11  N   UNL     1       7.162   4.265  11.902  0.00  0.00    +0.000 N 
ATOM     12  C   UNL     1       6.273   3.380  12.437  0.00  0.00    +0.000 A 
ATOM     13  O   UNL     1       5.711   2.524  11.759  0.00  0.00    +0.000 OA
ATOM     14  N   UNL     1       6.012   3.530  13.777  0.00  0.00    +0.000 N 
ATOM     15  H   UNL     1       7.295   4.235  10.902  0.00  0.00    +0.000 HD
ATOM     16  H   UNL     1       5.308   2.895  14.142  0.00  0.00    +0.000 HD
ENDBRANCH   5   7
ENDBRANCH   1   2
BRANCH   1  18
ATOM     17  O   UNL     1       5.583   3.397  19.366  0.00  0.00    +0.000 OA
ATOM     18  C   UNL     1       5.332   4.602  19.378  0.00  0.00    +0.000 C 
ATOM     19  N   UNL     1       4.077   5.133  19.623  0.00  0.00    +0.000 N 
ATOM     20  H   UNL     1       3.926   6.054  19.213  0.00  0.00    +0.000 HD
BRANCH  19  21
ATOM     21  C   UNL     1       2.962   4.341  19.992  0.00  0.00    +0.000 A 
ATOM     22  C   UNL     1       2.908   3.795  21.285  0.00  0.00    +0.000 A 
ATOM     23  C   UNL     1       1.801   3.059  21.716  0.00  0.00    +0.000 A 
ATOM     24  C   UNL     1       0.729   2.855  20.859  0.00  0.00    +0.000 A 
ATOM     25  C   UNL     1       0.770   3.381  19.570  0.00  0.00    +0.000 A 
ATOM     26  C   UNL     1       1.882   4.131  19.119  0.00  0.00    +0.000 A 
BRANCH  26  27
ATOM     27  C   UNL     1       1.876   4.564  17.677  0.00  0.00    +0.000 C 
ATOM     28  F   UNL     1       2.111   5.893  17.482  0.00  0.00    +0.000 F 
ATOM     29  F   UNL     1       2.821   3.915  16.937  0.00  0.00    +0.000 F 
ATOM     30  F   UNL     1       0.689   4.312  17.060  0.00  0.00    +0.000 F 
ENDBRANCH  26  27
ENDBRANCH  19  21
ENDBRANCH   1  18
TORSDOF 5
ENDMDL
MODEL 3
REMARK VINA RESULT:      -8.9      0.863      1.031
REMARK  Name = 
REMARK  5 active torsions:
REMARK  status: ('A' for Active; 'I' for Inactive)
REMARK    1  A    between atoms: C_2  and  C_3
REMARK    2  A    between atoms: C_3  and  N_4
REMARK    3  A    between atoms: C_7  and  C_8
REMARK    4  A    between atoms: N_17  and  C_18
REMARK    5  A    between atoms: C_23  and  C_24
REMARK                            x       y       z     vdW  Elec       q    Type
REMARK                         _______ _______ _______ _____ _____    ______ ____
ROOT
ATOM      1  C   UNL     1       6.108   6.118  18.906  0.00  0.00    +0.000 C 
ENDROOT
BRANCH   1   2
ATOM      2  N   UNL     1       6.847   5.911  17.628  0.00  0.00    +0.000 NA
ATOM      3  C   UNL     1       6.441   6.884  16.599  0.00  0.00    +0.000 C 
ATOM      4  C   UNL     1       5.162   6.321  16.011  0.00  0.00    +0.000 C 
ATOM      5  C   UNL     1       5.506   4.839  15.846  0.00  0.00    +0.000 C 
ATOM      6  C   UNL     1       6.459   4.585  17.045  0.00  0.00    +0.000 C 
BRANCH   5   7
ATOM      7  C   UNL     1       6.045   4.677  14.427  0.00  0.00    +0.000 A 
ATOM      8  C   UNL     1       5.615   3.770  13.534  0.00  0.00    +0.000 A 
ATOM      9  C   UNL     1       6.417   3.513  12.323  0.00  0.00    +0.000 A 
ATOM     10  O   UNL     1       6.166   2.557  11.600  0.00  0.00    +0.000 OA
ATOM     11  N   UNL     1       7.473   4.348  12.109  0.00  0.00    +0.000 N 
ATOM     12  C   UNL     1       7.907   5.292  12.994  0.00  0.00    +0.000 A 
ATOM     13  O   UNL     1       8.932   5.941  12.809  0.00  0.00    +0.000 OA
ATOM     14  N   UNL     1       7.146   5.444  14.127  0.00  0.00    +0.000 N 
ATOM     15  H   UNL     1       8.067   4.153  11.318  0.00  0.00    +0.000 HD
ATOM     16  H   UNL     1       7.516   6.113  14.795  0.00  0.00    +0.000 HD
ENDBRANCH   5   7
ENDBRANCH   1   2
BRANCH   1  18
ATOM     17  O   UNL     1       5.833   3.899  19.776  0.00  0.00    +0.000 OA
ATOM     18  C   UNL     1       5.270   4.921  19.380  0.00  0.00    +0.000 C 
ATOM     19  N   UNL     1       3.897   5.089  19.348  0.00  0.00    +0.000 N 
ATOM     20  H   UNL     1       3.574   5.761  18.653  0.00  0.00    +0.000 HD
BRANCH  19  21
ATOM     21  C   UNL     1       2.989   4.135  19.871  0.00  0.00    +0.000 A 
ATOM     22  C   UNL     1       2.591   4.234  21.214  0.00  0.00    +0.000 A 
ATOM     23  C   UNL     1       1.651   3.354  21.758  0.00  0.00    +0.000 A 
ATOM     24  C   UNL     1       1.095   2.358  20.967  0.00  0.00    +0.000 A 
ATOM     25  C   UNL     1       1.487   2.241  19.635  0.00  0.00    +0.000 A 
ATOM     26  C   UNL     1       2.435   3.125  19.069  0.00  0.00    +0.000 A 
BRANCH  26  27
ATOM     27  C   UNL     1       2.869   2.847  17.654  0.00  0.00    +0.000 C 
ATOM     28  F   UNL     1       2.181   1.845  17.035  0.00  0.00    +0.000 F 
ATOM     29  F   UNL     1       2.729   3.937  16.845  0.00  0.00    +0.000 F 
ATOM     30  F   UNL     1       4.181   2.492  17.569  0.00  0.00    +0.000 F 
ENDBRANCH  26  27
ENDBRANCH  19  21
ENDBRANCH   1  18
TORSDOF 5
ENDMDL
MODEL 4
REMARK VINA RESULT:      -8.3      1.605      2.504
REMARK  Name = 
REMARK  5 active torsions:
REMARK  status: ('A' for Active; 'I' for Inactive)
REMARK    1  A    between atoms: C_2  and  C_3
REMARK    2  A    between atoms: C_3  and  N_4
REMARK    3  A    between atoms: C_7  and  C_8
REMARK    4  A    between atoms: N_17  and  C_18
REMARK    5  A    between atoms: C_23  and  C_24
REMARK                            x       y       z     vdW  Elec       q    Type
REMARK                         _______ _______ _______ _____ _____    ______ ____
ROOT
ATOM      1  C   UNL     1       6.289   5.777  18.979  0.00  0.00    +0.000 C 
ENDROOT
BRANCH   1   2
ATOM      2  N   UNL     1       7.052   5.809  17.698  0.00  0.00    +0.000 NA
ATOM      3  C   UNL     1       6.342   6.576  16.659  0.00  0.00    +0.000 C 
ATOM      4  C   UNL     1       5.321   5.612  16.088  0.00  0.00    +0.000 C 
ATOM      5  C   UNL     1       6.138   4.326  15.940  0.00  0.00    +0.000 C 
ATOM      6  C   UNL     1       7.125   4.421  17.135  0.00  0.00    +0.000 C 
BRANCH   5   7
ATOM      7  C   UNL     1       6.696   4.332  14.520  0.00  0.00    +0.000 A 
ATOM      8  C   UNL     1       7.560   5.239  14.031  0.00  0.00    +0.000 A 
ATOM      9  C   UNL     1       7.778   5.315  12.574  0.00  0.00    +0.000 A 
ATOM     10  O   UNL     1       8.392   6.255  12.083  0.00  0.00    +0.000 OA
ATOM     11  N   UNL     1       7.203   4.332  11.824  0.00  0.00    +0.000 N 
ATOM     12  C   UNL     1       6.345   3.389  12.309  0.00  0.00    +0.000 A 
ATOM     13  O   UNL     1       5.761   2.596  11.577  0.00  0.00    +0.000 OA
ATOM     14  N   UNL     1       6.142   3.407  13.668  0.00  0.00    +0.000 N 
ATOM     15  H   UNL     1       7.292   4.399  10.822  0.00  0.00    +0.000 HD
ATOM     16  H   UNL     1       5.461   2.731  14.000  0.00  0.00    +0.000 HD
ENDBRANCH   5   7
ENDBRANCH   1   2
BRANCH   1  18
ATOM     17  O   UNL     1       5.530   3.596  19.629  0.00  0.00    +0.000 OA
ATOM     18  C   UNL     1       5.237   4.663  19.088  0.00  0.00    +0.000 C 
ATOM     19  N   UNL     1       3.986   4.956  18.573  0.00  0.00    +0.000 N 
ATOM     20  H   UNL     1       3.993   5.652  17.828  0.00  0.00    +0.000 HD
BRANCH  19  21
ATOM     21  C   UNL     1       2.873   4.091  18.710  0.00  0.00    +0.000 A 
ATOM     22  C   UNL     1       2.756   2.984  17.853  0.00  0.00    +0.000 A 
ATOM     23  C   UNL     1       1.709   2.069  17.989  0.00  0.00    +0.000 A 
ATOM     24  C   UNL     1       0.758   2.246  18.985  0.00  0.00    +0.000 A 
ATOM     25  C   UNL     1       0.854   3.344  19.837  0.00  0.00    +0.000 A 
ATOM     26  C   UNL     1       1.909   4.278  19.714  0.00  0.00    +0.000 A 
BRANCH  26  27
ATOM     27  C   UNL     1       1.862   5.485  20.614  0.00  0.00    +0.000 C 
ATOM     28  F   UNL     1       2.463   6.598  20.103  0.00  0.00    +0.000 F 
ATOM     29  F   UNL     1       0.584   5.864  20.906  0.00  0.00    +0.000 F 
ATOM     30  F   UNL     1       2.465   5.267  21.815  0.00  0.00    +0.000 F 
ENDBRANCH  26  27
ENDBRANCH  19  21
ENDBRANCH   1  18
TORSDOF 5
ENDMDL
MODEL 5
REMARK VINA RESULT:      -8.2      5.566      8.373
REMARK  Name = 
REMARK  5 active torsions:
REMARK  status: ('A' for Active; 'I' for Inactive)
REMARK    1  A    between atoms: C_2  and  C_3
REMARK    2  A    between atoms: C_3  and  N_4
REMARK    3  A    between atoms: C_7  and  C_8
REMARK    4  A    between atoms: N_17  and  C_18
REMARK    5  A    between atoms: C_23  and  C_24
REMARK                            x       y       z     vdW  Elec       q    Type
REMARK                         _______ _______ _______ _____ _____    ______ ____
ROOT
ATOM      1  C   UNL     1       8.177   7.944  17.711  0.00  0.00    +0.000 C 
ENDROOT
BRANCH   1   2
ATOM      2  N   UNL     1       6.984   7.211  18.223  0.00  0.00    +0.000 NA
ATOM      3  C   UNL     1       7.366   5.979  18.937  0.00  0.00    +0.000 C 
ATOM      4  C   UNL     1       7.597   4.950  17.848  0.00  0.00    +0.000 C 
ATOM      5  C   UNL     1       6.404   5.189  16.919  0.00  0.00    +0.000 C 
ATOM      6  C   UNL     1       6.174   6.718  17.061  0.00  0.00    +0.000 C 
BRANCH   5   7
ATOM      7  C   UNL     1       5.306   4.232  17.375  0.00  0.00    +0.000 A 
ATOM      8  C   UNL     1       4.094   4.116  16.805  0.00  0.00    +0.000 A 
ATOM      9  C   UNL     1       3.027   3.389  17.520  0.00  0.00    +0.000 A 
ATOM     10  O   UNL     1       1.867   3.443  17.130  0.00  0.00    +0.000 OA
ATOM     11  N   UNL     1       3.399   2.732  18.654  0.00  0.00    +0.000 N 
ATOM     12  C   UNL     1       4.633   2.817  19.231  0.00  0.00    +0.000 A 
ATOM     13  O   UNL     1       4.887   2.301  20.315  0.00  0.00    +0.000 OA
ATOM     14  N   UNL     1       5.566   3.554  18.542  0.00  0.00    +0.000 N 
ATOM     15  H   UNL     1       2.674   2.278  19.188  0.00  0.00    +0.000 HD
ATOM     16  H   UNL     1       6.460   3.648  19.014  0.00  0.00    +0.000 HD
ENDBRANCH   5   7
ENDBRANCH   1   2
BRANCH   1  18
ATOM     17  O   UNL     1       7.567  10.262  17.824  0.00  0.00    +0.000 OA
ATOM     18  C   UNL     1       8.332   9.383  18.225  0.00  0.00    +0.000 C 
ATOM     19  N   UNL     1       9.340   9.593  19.150  0.00  0.00    +0.000 N 
ATOM     20  H   UNL     1      10.115   8.934  19.080  0.00  0.00    +0.000 HD
BRANCH  19  21
ATOM     21  C   UNL     1       9.532  10.828  19.817  0.00  0.00    +0.000 A 
ATOM     22  C   UNL     1       8.984  11.006  21.098  0.00  0.00    +0.000 A 
ATOM     23  C   UNL     1       9.198  12.183  21.821  0.00  0.00    +0.000 A 
ATOM     24  C   UNL     1       9.964  13.203  21.273  0.00  0.00    +0.000 A 
ATOM     25  C   UNL     1      10.506  13.046  20.000  0.00  0.00    +0.000 A 
ATOM     26  C   UNL     1      10.301  11.861  19.256  0.00  0.00    +0.000 A 
BRANCH  26  27
ATOM     27  C   UNL     1      10.839  11.834  17.850  0.00  0.00    +0.000 C 
ATOM     28  F   UNL     1      12.177  12.080  17.749  0.00  0.00    +0.000 F 
ATOM     29  F   UNL     1      10.645  10.626  17.244  0.00  0.00    +0.000 F 
ATOM     30  F   UNL     1      10.240  12.751  17.042  0.00  0.00    +0.000 F 
ENDBRANCH  26  27
ENDBRANCH  19  21
ENDBRANCH   1  18
TORSDOF 5
ENDMDL
MODEL 6
REMARK VINA RESULT:      -8.1      7.618     10.580
REMARK  Name = 
REMARK  5 active torsions:
REMARK  status: ('A' for Active; 'I' for Inactive)
REMARK    1  A    between atoms: C_2  and  C_3
REMARK    2  A    between atoms: C_3  and  N_4
REMARK    3  A    between atoms: C_7  and  C_8
REMARK    4  A    between atoms: N_17  and  C_18
REMARK    5  A    between atoms: C_23  and  C_24
REMARK                            x       y       z     vdW  Elec       q    Type
REMARK                         _______ _______ _______ _____ _____    ______ ____
ROOT
ATOM      1  C   UNL     1       1.217   8.790  21.422  0.00  0.00    +0.000 C 
ENDROOT
BRANCH   1   2
ATOM      2  N   UNL     1      -0.201   9.247  21.373  0.00  0.00    +0.000 NA
ATOM      3  C   UNL     1      -0.372  10.403  20.475  0.00  0.00    +0.000 C 
ATOM      4  C   UNL     1       0.042  11.605  21.301  0.00  0.00    +0.000 C 
ATOM      5  C   UNL     1      -0.639  11.325  22.643  0.00  0.00    +0.000 C 
ATOM      6  C   UNL     1      -0.594   9.775  22.721  0.00  0.00    +0.000 C 
BRANCH   5   7
ATOM      7  C   UNL     1      -1.995  12.023  22.592  0.00  0.00    +0.000 A 
ATOM      8  C   UNL     1      -2.325  13.014  21.746  0.00  0.00    +0.000 A 
ATOM      9  C   UNL     1      -3.543  13.805  22.000  0.00  0.00    +0.000 A 
ATOM     10  O   UNL     1      -3.759  14.837  21.375  0.00  0.00    +0.000 OA
ATOM     11  N   UNL     1      -4.354  13.360  23.002  0.00  0.00    +0.000 N 
ATOM     12  C   UNL     1      -4.047  12.339  23.852  0.00  0.00    +0.000 A 
ATOM     13  O   UNL     1      -4.755  12.050  24.812  0.00  0.00    +0.000 OA
ATOM     14  N   UNL     1      -2.871  11.678  23.593  0.00  0.00    +0.000 N 
ATOM     15  H   UNL     1      -5.162  13.920  23.229  0.00  0.00    +0.000 HD
ATOM     16  H   UNL     1      -2.636  10.957  24.269  0.00  0.00    +0.000 HD
ENDBRANCH   5   7
ENDBRANCH   1   2
BRANCH   1  18
ATOM     17  O   UNL     1       1.620   8.427  19.085  0.00  0.00    +0.000 OA
ATOM     18  C   UNL     1       1.678   7.952  20.220  0.00  0.00    +0.000 C 
ATOM     19  N   UNL     1       2.161   6.688  20.510  0.00  0.00    +0.000 N 
ATOM     20  H   UNL     1       1.785   6.283  21.366  0.00  0.00    +0.000 HD
BRANCH  19  21
ATOM     21  C   UNL     1       2.743   5.841  19.534  0.00  0.00    +0.000 A 
ATOM     22  C   UNL     1       3.580   6.399  18.555  0.00  0.00    +0.000 A 
ATOM     23  C   UNL     1       4.226   5.597  17.610  0.00  0.00    +0.000 A 
ATOM     24  C   UNL     1       4.044   4.221  17.629  0.00  0.00    +0.000 A 
ATOM     25  C   UNL     1       3.209   3.652  18.588  0.00  0.00    +0.000 A 
ATOM     26  C   UNL     1       2.550   4.450  19.552  0.00  0.00    +0.000 A 
BRANCH  26  27
ATOM     27  C   UNL     1       1.587   3.750  20.476  0.00  0.00    +0.000 C 
ATOM     28  F   UNL     1       1.474   2.407  20.268  0.00  0.00    +0.000 F 
ATOM     29  F   UNL     1       1.936   3.887  21.788  0.00  0.00    +0.000 F 
ATOM     30  F   UNL     1       0.320   4.240  20.380  0.00  0.00    +0.000 F 
ENDBRANCH  26  27
ENDBRANCH  19  21
ENDBRANCH   1  18
TORSDOF 5
ENDMDL
MODEL 7
REMARK VINA RESULT:      -8.1      6.056      8.180
REMARK  Name = 
REMARK  5 active torsions:
REMARK  status: ('A' for Active; 'I' for Inactive)
REMARK    1  A    between atoms: C_2  and  C_3
REMARK    2  A    between atoms: C_3  and  N_4
REMARK    3  A    between atoms: C_7  and  C_8
REMARK    4  A    between atoms: N_17  and  C_18
REMARK    5  A    between atoms: C_23  and  C_24
REMARK                            x       y       z     vdW  Elec       q    Type
REMARK                         _______ _______ _______ _____ _____    ______ ____
ROOT
ATOM      1  C   UNL     1       8.404   8.770  17.478  0.00  0.00    +0.000 C 
ENDROOT
BRANCH   1   2
ATOM      2  N   UNL     1       8.230   9.901  18.433  0.00  0.00    +0.000 NA
ATOM      3  C   UNL     1       8.519  11.200  17.801  0.00  0.00    +0.000 C 
ATOM      4  C   UNL     1      10.029  11.329  17.842  0.00  0.00    +0.000 C 
ATOM      5  C   UNL     1      10.354  10.861  19.263  0.00  0.00    +0.000 C 
ATOM      6  C   UNL     1       9.259   9.791  19.519  0.00  0.00    +0.000 C 
BRANCH   5   7
ATOM      7  C   UNL     1      10.380  12.115  20.133  0.00  0.00    +0.000 A 
ATOM      8  C   UNL     1       9.678  12.285  21.267  0.00  0.00    +0.000 A 
ATOM      9  C   UNL     1       9.551  13.638  21.841  0.00  0.00    +0.000 A 
ATOM     10  O   UNL     1       8.755  13.858  22.746  0.00  0.00    +0.000 OA
ATOM     11  N   UNL     1      10.304  14.613  21.260  0.00  0.00    +0.000 N 
ATOM     12  C   UNL     1      11.043  14.451  20.125  0.00  0.00    +0.000 A 
ATOM     13  O   UNL     1      11.613  15.388  19.574  0.00  0.00    +0.000 OA
ATOM     14  N   UNL     1      11.076  13.177  19.610  0.00  0.00    +0.000 N 
ATOM     15  H   UNL     1      10.187  15.556  21.601  0.00  0.00    +0.000 HD
ATOM     16  H   UNL     1      11.588  13.090  18.737  0.00  0.00    +0.000 HD
ENDBRANCH   5   7
ENDBRANCH   1   2
BRANCH   1  18
ATOM     17  O   UNL     1       7.775   6.792  18.680  0.00  0.00    +0.000 OA
ATOM     18  C   UNL     1       7.514   7.546  17.742  0.00  0.00    +0.000 C 
ATOM     19  N   UNL     1       6.435   7.384  16.892  0.00  0.00    +0.000 N 
ATOM     20  H   UNL     1       6.564   7.796  15.969  0.00  0.00    +0.000 HD
BRANCH  19  21
ATOM     21  C   UNL     1       5.447   6.385  17.078  0.00  0.00    +0.000 A 
ATOM     22  C   UNL     1       4.286   6.697  17.804  0.00  0.00    +0.000 A 
ATOM     23  C   UNL     1       3.257   5.765  17.961  0.00  0.00    +0.000 A 
ATOM     24  C   UNL     1       3.374   4.502  17.396  0.00  0.00    +0.000 A 
ATOM     25  C   UNL     1       4.523   4.174  16.681  0.00  0.00    +0.000 A 
ATOM     26  C   UNL     1       5.573   5.106  16.510  0.00  0.00    +0.000 A 
BRANCH  26  27
ATOM     27  C   UNL     1       6.816   4.618  15.814  0.00  0.00    +0.000 C 
ATOM     28  F   UNL     1       7.326   5.483  14.891  0.00  0.00    +0.000 F 
ATOM     29  F   UNL     1       7.836   4.372  16.686  0.00  0.00    +0.000 F 
ATOM     30  F   UNL     1       6.615   3.450  15.144  0.00  0.00    +0.000 F 
ENDBRANCH  26  27
ENDBRANCH  19  21
ENDBRANCH   1  18
TORSDOF 5
ENDMDL
MODEL 8
REMARK VINA RESULT:      -8.0      6.019      8.284
REMARK  Name = 
REMARK  5 active torsions:
REMARK  status: ('A' for Active; 'I' for Inactive)
REMARK    1  A    between atoms: C_2  and  C_3
REMARK    2  A    between atoms: C_3  and  N_4
REMARK    3  A    between atoms: C_7  and  C_8
REMARK    4  A    between atoms: N_17  and  C_18
REMARK    5  A    between atoms: C_23  and  C_24
REMARK                            x       y       z     vdW  Elec       q    Type
REMARK                         _______ _______ _______ _____ _____    ______ ____
ROOT
ATOM      1  C   UNL     1       8.434   8.662  17.538  0.00  0.00    +0.000 C 
ENDROOT
BRANCH   1   2
ATOM      2  N   UNL     1       8.138   9.850  18.389  0.00  0.00    +0.000 NA
ATOM      3  C   UNL     1       8.403  11.112  17.675  0.00  0.00    +0.000 C 
ATOM      4  C   UNL     1       9.899  11.327  17.803  0.00  0.00    +0.000 C 
ATOM      5  C   UNL     1      10.150  10.987  19.274  0.00  0.00    +0.000 C 
ATOM      6  C   UNL     1       9.096   9.879  19.543  0.00  0.00    +0.000 C 
BRANCH   5   7
ATOM      7  C   UNL     1      10.052  12.302  20.043  0.00  0.00    +0.000 A 
ATOM      8  C   UNL     1      10.699  13.435  19.723  0.00  0.00    +0.000 A 
ATOM      9  C   UNL     1      10.764  14.532  20.709  0.00  0.00    +0.000 A 
ATOM     10  O   UNL     1      11.514  15.485  20.533  0.00  0.00    +0.000 OA
ATOM     11  N   UNL     1      10.008  14.379  21.832  0.00  0.00    +0.000 N 
ATOM     12  C   UNL     1       9.323  13.245  22.158  0.00  0.00    +0.000 A 
ATOM     13  O   UNL     1       8.751  13.112  23.236  0.00  0.00    +0.000 OA
ATOM     14  N   UNL     1       9.348  12.241  21.221  0.00  0.00    +0.000 N 
ATOM     15  H   UNL     1      10.084  15.090  22.543  0.00  0.00    +0.000 HD
ATOM     16  H   UNL     1       8.877  11.388  21.507  0.00  0.00    +0.000 HD
ENDBRANCH   5   7
ENDBRANCH   1   2
BRANCH   1  18
ATOM     17  O   UNL     1       7.783   6.670  18.707  0.00  0.00    +0.000 OA
ATOM     18  C   UNL     1       7.533   7.441  17.780  0.00  0.00    +0.000 C 
ATOM     19  N   UNL     1       6.455   7.303  16.923  0.00  0.00    +0.000 N 
ATOM     20  H   UNL     1       6.591   7.728  16.007  0.00  0.00    +0.000 HD
BRANCH  19  21
ATOM     21  C   UNL     1       5.458   6.310  17.090  0.00  0.00    +0.000 A 
ATOM     22  C   UNL     1       4.305   6.615  17.832  0.00  0.00    +0.000 A 
ATOM     23  C   UNL     1       3.267   5.690  17.973  0.00  0.00    +0.000 A 
ATOM     24  C   UNL     1       3.366   4.442  17.373  0.00  0.00    +0.000 A 
ATOM     25  C   UNL     1       4.506   4.120  16.641  0.00  0.00    +0.000 A 
ATOM     26  C   UNL     1       5.565   5.046  16.488  0.00  0.00    +0.000 A 
BRANCH  26  27
ATOM     27  C   UNL     1       6.797   4.563  15.769  0.00  0.00    +0.000 C 
ATOM     28  F   UNL     1       7.304   5.441  14.858  0.00  0.00    +0.000 F 
ATOM     29  F   UNL     1       7.824   4.294  16.626  0.00  0.00    +0.000 F 
ATOM     30  F   UNL     1       6.582   3.409  15.079  0.00  0.00    +0.000 F 
ENDBRANCH  26  27
ENDBRANCH  19  21
ENDBRANCH   1  18
TORSDOF 5
ENDMDL
MODEL 9
REMARK VINA RESULT:      -7.9      7.461     10.394
REMARK  Name = 
REMARK  5 active torsions:
REMARK  status: ('A' for Active; 'I' for Inactive)
REMARK    1  A    between atoms: C_2  and  C_3
REMARK    2  A    between atoms: C_3  and  N_4
REMARK    3  A    between atoms: C_7  and  C_8
REMARK    4  A    between atoms: N_17  and  C_18
REMARK    5  A    between atoms: C_23  and  C_24
REMARK                            x       y       z     vdW  Elec       q    Type
REMARK                         _______ _______ _______ _____ _____    ______ ____
ROOT
ATOM      1  C   UNL     1       1.326   8.926  21.323  0.00  0.00    +0.000 C 
ENDROOT
BRANCH   1   2
ATOM      2  N   UNL     1      -0.122   9.254  21.452  0.00  0.00    +0.000 NA
ATOM      3  C   UNL     1      -0.548  10.249  20.452  0.00  0.00    +0.000 C 
ATOM      4  C   UNL     1      -0.140  11.588  21.033  0.00  0.00    +0.000 C 
ATOM      5  C   UNL     1      -0.573  11.452  22.495  0.00  0.00    +0.000 C 
ATOM      6  C   UNL     1      -0.356   9.939  22.766  0.00  0.00    +0.000 C 
BRANCH   5   7
ATOM      7  C   UNL     1      -1.986  12.022  22.579  0.00  0.00    +0.000 A 
ATOM      8  C   UNL     1      -2.741  12.061  23.691  0.00  0.00    +0.000 A 
ATOM      9  C   UNL     1      -4.183  12.348  23.574  0.00  0.00    +0.000 A 
ATOM     10  O   UNL     1      -4.930  12.187  24.532  0.00  0.00    +0.000 OA
ATOM     11  N   UNL     1      -4.627  12.724  22.341  0.00  0.00    +0.000 N 
ATOM     12  C   UNL     1      -3.867  12.715  21.208  0.00  0.00    +0.000 A 
ATOM     13  O   UNL     1      -4.340  12.950  20.100  0.00  0.00    +0.000 OA
ATOM     14  N   UNL     1      -2.544  12.386  21.377  0.00  0.00    +0.000 N 
ATOM     15  H   UNL     1      -5.619  12.868  22.228  0.00  0.00    +0.000 HD
ATOM     16  H   UNL     1      -2.010  12.335  20.515  0.00  0.00    +0.000 HD
ENDBRANCH   5   7
ENDBRANCH   1   2
BRANCH   1  18
ATOM     17  O   UNL     1       1.481   8.433  18.981  0.00  0.00    +0.000 OA
ATOM     18  C   UNL     1       1.693   8.035  20.127  0.00  0.00    +0.000 C 
ATOM     19  N   UNL     1       2.276   6.817  20.431  0.00  0.00    +0.000 N 
ATOM     20  H   UNL     1       2.024   6.451  21.348  0.00  0.00    +0.000 HD
BRANCH  19  21
ATOM     21  C   UNL     1       2.790   5.939  19.446  0.00  0.00    +0.000 A 
ATOM     22  C   UNL     1       3.584   6.460  18.411  0.00  0.00    +0.000 A 
ATOM     23  C   UNL     1       4.164   5.625  17.452  0.00  0.00    +0.000 A 
ATOM     24  C   UNL     1       3.958   4.254  17.511  0.00  0.00    +0.000 A 
ATOM     25  C   UNL     1       3.165   3.722  18.525  0.00  0.00    +0.000 A 
ATOM     26  C   UNL     1       2.573   4.552  19.505  0.00  0.00    +0.000 A 
BRANCH  26  27
ATOM     27  C   UNL     1       1.648   3.892  20.494  0.00  0.00    +0.000 C 
ATOM     28  F   UNL     1       2.049   3.983  21.794  0.00  0.00    +0.000 F 
ATOM     29  F   UNL     1       0.391   4.422  20.462  0.00  0.00    +0.000 F 
ATOM     30  F   UNL     1       1.492   2.560  20.255  0.00  0.00    +0.000 F 
ENDBRANCH  26  27
ENDBRANCH  19  21
ENDBRANCH   1  18
TORSDOF 5
ENDMDL
