MODEL 1
REMARK VINA RESULT:      -8.9      0.000      0.000
REMARK  Name = 
REMARK  7 active torsions:
REMARK  status: ('A' for Active; 'I' for Inactive)
REMARK    1  A    between atoms: C_2  and  C_3
REMARK    2  A    between atoms: C_3  and  C_4
REMARK    3  A    between atoms: C_4  and  C_5
REMARK    4  A    between atoms: C_4  and  C_11
REMARK    5  A    between atoms: N_17  and  C_18
REMARK    6  A    between atoms: C_21  and  O_22
REMARK    7  A    between atoms: O_22  and  C_23
REMARK                            x       y       z     vdW  Elec       q    Type
REMARK                         _______ _______ _______ _____ _____    ______ ____
ROOT
ATOM      1  O   UNL     1       1.754   9.830  17.876  0.00  0.00    +0.000 OA
ATOM      2  C   UNL     1       1.825   8.730  18.425  0.00  0.00    +0.000 C 
ATOM      3  N   UNL     1       1.387   8.427  19.701  0.00  0.00    +0.000 N 
ATOM      4  H   UNL     1       1.685   7.549  20.105  0.00  0.00    +0.000 HD
ENDROOT
BRANCH   3   5
ATOM      5  C   UNL     1       0.736   9.331  20.574  0.00  0.00    +0.000 A 
ATOM      6  C   UNL     1       0.701  10.708  20.350  0.00  0.00    +0.000 A 
ATOM      7  C   UNL     1       0.127  11.575  21.282  0.00  0.00    +0.000 A 
ATOM      8  C   UNL     1      -0.478  11.069  22.430  0.00  0.00    +0.000 A 
ATOM      9  C   UNL     1      -0.473   9.692  22.654  0.00  0.00    +0.000 A 
ATOM     10  C   UNL     1       0.121   8.824  21.724  0.00  0.00    +0.000 A 
BRANCH   8  11
ATOM     11  O   UNL     1      -1.018  11.853  23.424  0.00  0.00    +0.000 OA
BRANCH  11  12
ATOM     12  C   UNL     1      -2.076  12.694  23.107  0.00  0.00    +0.000 A 
ATOM     13  N   UNL     1      -1.850  14.010  22.930  0.00  0.00    +0.000 NA
ATOM     14  C   UNL     1      -2.922  14.764  22.635  0.00  0.00    +0.000 A 
ATOM     15  C   UNL     1      -4.186  14.251  22.478  0.00  0.00    +0.000 A 
ATOM     16  C   UNL     1      -4.300  12.891  22.643  0.00  0.00    +0.000 A 
ATOM     17  N   UNL     1      -3.266  12.087  22.955  0.00  0.00    +0.000 NA
ENDBRANCH  11  12
ENDBRANCH   8  11
ENDBRANCH   3   5
BRANCH   2  18
ATOM     18  C   UNL     1       2.545   7.608  17.712  0.00  0.00    +0.000 C 
BRANCH  18  19
ATOM     19  C   UNL     1       3.242   6.588  18.629  0.00  0.00    +0.000 C 
BRANCH  19  20
ATOM     20  C   UNL     1       2.371   5.386  18.983  0.00  0.00    +0.000 A 
ATOM     21  C   UNL     1       1.942   4.478  18.001  0.00  0.00    +0.000 A 
ATOM     22  C   UNL     1       1.203   3.346  18.347  0.00  0.00    +0.000 A 
ATOM     23  C   UNL     1       0.865   3.112  19.676  0.00  0.00    +0.000 A 
ATOM     24  C   UNL     1       1.264   4.013  20.662  0.00  0.00    +0.000 A 
ATOM     25  C   UNL     1       2.013   5.141  20.320  0.00  0.00    +0.000 A 
ENDBRANCH  19  20
BRANCH  19  26
ATOM     26  C   UNL     1       4.591   6.127  18.060  0.00  0.00    +0.000 A 
ATOM     27  C   UNL     1       5.474   5.398  18.873  0.00  0.00    +0.000 A 
ATOM     28  C   UNL     1       6.663   4.881  18.352  0.00  0.00    +0.000 A 
ATOM     29  C   UNL     1       6.989   5.079  17.012  0.00  0.00    +0.000 A 
ATOM     30  C   UNL     1       6.131   5.805  16.193  0.00  0.00    +0.000 A 
ATOM     31  C   UNL     1       4.945   6.324  16.712  0.00  0.00    +0.000 A 
ENDBRANCH  19  26
ENDBRANCH  18  19
ENDBRANCH   2  18
TORSDOF 7
ENDMDL
MODEL 2
REMARK VINA RESULT:      -8.9      0.456      1.549
REMARK  Name = 
REMARK  7 active torsions:
REMARK  status: ('A' for Active; 'I' for Inactive)
REMARK    1  A    between atoms: C_2  and  C_3
REMARK    2  A    between atoms: C_3  and  C_4
REMARK    3  A    between atoms: C_4  and  C_5
REMARK    4  A    between atoms: C_4  and  C_11
REMARK    5  A    between atoms: N_17  and  C_18
REMARK    6  A    between atoms: C_21  and  O_22
REMARK    7  A    between atoms: O_22  and  C_23
REMARK                            x       y       z     vdW  Elec       q    Type
REMARK                         _______ _______ _______ _____ _____    ______ ____
ROOT
ATOM      1  O   UNL     1       0.886   9.034  17.758  0.00  0.00    +0.000 OA
ATOM      2  C   UNL     1       1.659   8.371  18.450  0.00  0.00    +0.000 C 
ATOM      3  N   UNL     1       1.771   8.428  19.828  0.00  0.00    +0.000 N 
ATOM      4  H   UNL     1       2.576   7.987  20.253  0.00  0.00    +0.000 HD
ENDROOT
BRANCH   3   5
ATOM      5  C   UNL     1       0.975   9.232  20.676  0.00  0.00    +0.000 A 
ATOM      6  C   UNL     1       0.901  10.621  20.554  0.00  0.00    +0.000 A 
ATOM      7  C   UNL     1       0.176  11.387  21.469  0.00  0.00    +0.000 A 
ATOM      8  C   UNL     1      -0.541  10.767  22.489  0.00  0.00    +0.000 A 
ATOM      9  C   UNL     1      -0.497   9.377  22.608  0.00  0.00    +0.000 A 
ATOM     10  C   UNL     1       0.248   8.611  21.698  0.00  0.00    +0.000 A 
BRANCH   8  11
ATOM     11  O   UNL     1      -1.237  11.446  23.464  0.00  0.00    +0.000 OA
BRANCH  11  12
ATOM     12  C   UNL     1      -1.972  12.565  23.098  0.00  0.00    +0.000 A 
ATOM     13  N   UNL     1      -3.103  12.413  22.382  0.00  0.00    +0.000 NA
ATOM     14  C   UNL     1      -3.757  13.540  22.054  0.00  0.00    +0.000 A 
ATOM     15  C   UNL     1      -3.346  14.792  22.442  0.00  0.00    +0.000 A 
ATOM     16  C   UNL     1      -2.201  14.831  23.202  0.00  0.00    +0.000 A 
ATOM     17  N   UNL     1      -1.495  13.739  23.547  0.00  0.00    +0.000 NA
ENDBRANCH  11  12
ENDBRANCH   8  11
ENDBRANCH   3   5
BRANCH   2  18
ATOM     18  C   UNL     1       2.665   7.476  17.763  0.00  0.00    +0.000 C 
BRANCH  18  19
ATOM     19  C   UNL     1       3.347   6.437  18.669  0.00  0.00    +0.000 C 
BRANCH  19  20
ATOM     20  C   UNL     1       2.461   5.240  19.004  0.00  0.00    +0.000 A 
ATOM     21  C   UNL     1       1.989   5.021  20.309  0.00  0.00    +0.000 A 
ATOM     22  C   UNL     1       1.125   3.961  20.589  0.00  0.00    +0.000 A 
ATOM     23  C   UNL     1       0.732   3.094  19.574  0.00  0.00    +0.000 A 
ATOM     24  C   UNL     1       1.206   3.284  18.277  0.00  0.00    +0.000 A 
ATOM     25  C   UNL     1       2.063   4.350  17.993  0.00  0.00    +0.000 A 
ENDBRANCH  19  20
BRANCH  19  26
ATOM     26  C   UNL     1       4.693   5.968  18.100  0.00  0.00    +0.000 A 
ATOM     27  C   UNL     1       4.983   6.178  16.742  0.00  0.00    +0.000 A 
ATOM     28  C   UNL     1       6.238   5.851  16.221  0.00  0.00    +0.000 A 
ATOM     29  C   UNL     1       7.224   5.315  17.045  0.00  0.00    +0.000 A 
ATOM     30  C   UNL     1       6.954   5.093  18.391  0.00  0.00    +0.000 A 
ATOM     31  C   UNL     1       5.701   5.416  18.912  0.00  0.00    +0.000 A 
ENDBRANCH  19  26
ENDBRANCH  18  19
ENDBRANCH   2  18
TORSDOF 7
ENDMDL
MODEL 3
REMARK VINA RESULT:      -8.9      1.701      2.083
REMARK  Name = 
REMARK  7 active torsions:
REMARK  status: ('A' for Active; 'I' for Inactive)
REMARK    1  A    between atoms: C_2  and  C_3
REMARK    2  A    between atoms: C_3  and  C_4
REMARK    3  A    between atoms: C_4  and  C_5
REMARK    4  A    between atoms: C_4  and  C_11
REMARK    5  A    between atoms: N_17  and  C_18
REMARK    6  A    between atoms: C_21  and  O_22
REMARK    7  A    between atoms: O_22  and  C_23
REMARK                            x       y       z     vdW  Elec       q    Type
REMARK                         _______ _______ _______ _____ _____    ______ ____
ROOT
ATOM      1  O   UNL     1       1.844   8.227  19.809  0.00  0.00    +0.000 OA
ATOM      2  C   UNL     1       1.997   8.372  18.596  0.00  0.00    +0.000 C 
ATOM      3  N   UNL     1       1.471   9.394  17.826  0.00  0.00    +0.000 N 
ATOM      4  H   UNL     1       1.500   9.289  16.821  0.00  0.00    +0.000 HD
ENDROOT
BRANCH   3   5
ATOM      5  C   UNL     1       0.704  10.474  18.323  0.00  0.00    +0.000 A 
ATOM      6  C   UNL     1       1.277  11.646  18.820  0.00  0.00    +0.000 A 
ATOM      7  C   UNL     1       0.488  12.650  19.385  0.00  0.00    +0.000 A 
ATOM      8  C   UNL     1      -0.899  12.524  19.406  0.00  0.00    +0.000 A 
ATOM      9  C   UNL     1      -1.487  11.369  18.889  0.00  0.00    +0.000 A 
ATOM     10  C   UNL     1      -0.690  10.352  18.338  0.00  0.00    +0.000 A 
BRANCH   8  11
ATOM     11  O   UNL     1      -1.746  13.437  19.991  0.00  0.00    +0.000 OA
BRANCH  11  12
ATOM     12  C   UNL     1      -2.348  13.108  21.198  0.00  0.00    +0.000 A 
ATOM     13  N   UNL     1      -1.581  12.827  22.269  0.00  0.00    +0.000 NA
ATOM     14  C   UNL     1      -2.231  12.506  23.400  0.00  0.00    +0.000 A 
ATOM     15  C   UNL     1      -3.600  12.493  23.506  0.00  0.00    +0.000 A 
ATOM     16  C   UNL     1      -4.288  12.833  22.364  0.00  0.00    +0.000 A 
ATOM     17  N   UNL     1      -3.692  13.146  21.199  0.00  0.00    +0.000 NA
ENDBRANCH  11  12
ENDBRANCH   8  11
ENDBRANCH   3   5
BRANCH   2  18
ATOM     18  C   UNL     1       2.733   7.302  17.823  0.00  0.00    +0.000 C 
BRANCH  18  19
ATOM     19  C   UNL     1       3.413   6.222  18.681  0.00  0.00    +0.000 C 
BRANCH  19  20
ATOM     20  C   UNL     1       2.492   5.063  19.051  0.00  0.00    +0.000 A 
ATOM     21  C   UNL     1       1.943   4.222  18.069  0.00  0.00    +0.000 A 
ATOM     22  C   UNL     1       1.156   3.125  18.425  0.00  0.00    +0.000 A 
ATOM     23  C   UNL     1       0.891   2.861  19.765  0.00  0.00    +0.000 A 
ATOM     24  C   UNL     1       1.410   3.697  20.753  0.00  0.00    +0.000 A 
ATOM     25  C   UNL     1       2.206   4.790  20.399  0.00  0.00    +0.000 A 
ENDBRANCH  19  20
BRANCH  19  26
ATOM     26  C   UNL     1       4.704   5.699  18.036  0.00  0.00    +0.000 A 
ATOM     27  C   UNL     1       4.888   5.827  16.649  0.00  0.00    +0.000 A 
ATOM     28  C   UNL     1       6.093   5.450  16.051  0.00  0.00    +0.000 A 
ATOM     29  C   UNL     1       7.135   4.945  16.824  0.00  0.00    +0.000 A 
ATOM     30  C   UNL     1       6.970   4.803  18.198  0.00  0.00    +0.000 A 
ATOM     31  C   UNL     1       5.766   5.176  18.797  0.00  0.00    +0.000 A 
ENDBRANCH  19  26
ENDBRANCH  18  19
ENDBRANCH   2  18
TORSDOF 7
ENDMDL
MODEL 4
REMARK VINA RESULT:      -8.9      1.744      2.361
REMARK  Name = 
REMARK  7 active torsions:
REMARK  status: ('A' for Active; 'I' for Inactive)
REMARK    1  A    between atoms: C_2  and  C_3
REMARK    2  A    between atoms: C_3  and  C_4
REMARK    3  A    between atoms: C_4  and  C_5
REMARK    4  A    between atoms: C_4  and  C_11
REMARK    5  A    between atoms: N_17  and  C_18
REMARK    6  A    between atoms: C_21  and  O_22
REMARK    7  A    between atoms: O_22  and  C_23
REMARK                            x       y       z     vdW  Elec       q    Type
REMARK                         _______ _______ _______ _____ _____    ______ ____
ROOT
ATOM      1  O   UNL     1       1.900   8.068  19.751  0.00  0.00    +0.000 OA
ATOM      2  C   UNL     1       2.138   8.243  18.556  0.00  0.00    +0.000 C 
ATOM      3  N   UNL     1       1.712   9.313  17.790  0.00  0.00    +0.000 N 
ATOM      4  H   UNL     1       1.800   9.237  16.785  0.00  0.00    +0.000 HD
ENDROOT
BRANCH   3   5
ATOM      5  C   UNL     1       0.965  10.414  18.273  0.00  0.00    +0.000 A 
ATOM      6  C   UNL     1       1.556  11.616  18.667  0.00  0.00    +0.000 A 
ATOM      7  C   UNL     1       0.794  12.644  19.224  0.00  0.00    +0.000 A 
ATOM      8  C   UNL     1      -0.587  12.509  19.341  0.00  0.00    +0.000 A 
ATOM      9  C   UNL     1      -1.194  11.322  18.927  0.00  0.00    +0.000 A 
ATOM     10  C   UNL     1      -0.423  10.283  18.384  0.00  0.00    +0.000 A 
BRANCH   8  11
ATOM     11  O   UNL     1      -1.406  13.448  19.926  0.00  0.00    +0.000 OA
BRANCH  11  12
ATOM     12  C   UNL     1      -2.100  13.099  21.077  0.00  0.00    +0.000 A 
ATOM     13  N   UNL     1      -3.446  13.058  21.055  0.00  0.00    +0.000 NA
ATOM     14  C   UNL     1      -4.051  12.723  22.208  0.00  0.00    +0.000 A 
ATOM     15  C   UNL     1      -3.366  12.397  23.353  0.00  0.00    +0.000 A 
ATOM     16  C   UNL     1      -1.995  12.432  23.255  0.00  0.00    +0.000 A 
ATOM     17  N   UNL     1      -1.334  12.776  22.134  0.00  0.00    +0.000 NA
ENDBRANCH  11  12
ENDBRANCH   8  11
ENDBRANCH   3   5
BRANCH   2  18
ATOM     18  C   UNL     1       2.871   7.163  17.794  0.00  0.00    +0.000 C 
BRANCH  18  19
ATOM     19  C   UNL     1       3.578   6.110  18.666  0.00  0.00    +0.000 C 
BRANCH  19  20
ATOM     20  C   UNL     1       2.661   4.980  19.126  0.00  0.00    +0.000 A 
ATOM     21  C   UNL     1       2.433   4.731  20.489  0.00  0.00    +0.000 A 
ATOM     22  C   UNL     1       1.541   3.738  20.896  0.00  0.00    +0.000 A 
ATOM     23  C   UNL     1       0.874   2.967  19.949  0.00  0.00    +0.000 A 
ATOM     24  C   UNL     1       1.103   3.186  18.591  0.00  0.00    +0.000 A 
ATOM     25  C   UNL     1       1.989   4.186  18.181  0.00  0.00    +0.000 A 
ENDBRANCH  19  20
BRANCH  19  26
ATOM     26  C   UNL     1       4.831   5.543  17.984  0.00  0.00    +0.000 A 
ATOM     27  C   UNL     1       4.869   5.429  16.585  0.00  0.00    +0.000 A 
ATOM     28  C   UNL     1       6.032   5.010  15.934  0.00  0.00    +0.000 A 
ATOM     29  C   UNL     1       7.177   4.703  16.665  0.00  0.00    +0.000 A 
ATOM     30  C   UNL     1       7.157   4.802  18.052  0.00  0.00    +0.000 A 
ATOM     31  C   UNL     1       5.996   5.217  18.705  0.00  0.00    +0.000 A 
ENDBRANCH  19  26
ENDBRANCH  18  19
ENDBRANCH   2  18
TORSDOF 7
ENDMDL
MODEL 5
REMARK VINA RESULT:      -8.9      0.440      1.295
REMARK  Name = 
REMARK  7 active torsions:
REMARK  status: ('A' for Active; 'I' for Inactive)
REMARK    1  A    between atoms: C_2  and  C_3
REMARK    2  A    between atoms: C_3  and  C_4
REMARK    3  A    between atoms: C_4  and  C_5
REMARK    4  A    between atoms: C_4  and  C_11
REMARK    5  A    between atoms: N_17  and  C_18
REMARK    6  A    between atoms: C_21  and  O_22
REMARK    7  A    between atoms: O_22  and  C_23
REMARK                            x       y       z     vdW  Elec       q    Type
REMARK                         _______ _______ _______ _____ _____    ______ ____
ROOT
ATOM      1  O   UNL     1       2.352   9.715  18.108  0.00  0.00    +0.000 OA
ATOM      2  C   UNL     1       2.115   8.562  18.468  0.00  0.00    +0.000 C 
ATOM      3  N   UNL     1       1.394   8.191  19.589  0.00  0.00    +0.000 N 
ATOM      4  H   UNL     1       1.444   7.224  19.882  0.00  0.00    +0.000 HD
ENDROOT
BRANCH   3   5
ATOM      5  C   UNL     1       0.766   9.087  20.486  0.00  0.00    +0.000 A 
ATOM      6  C   UNL     1       0.001  10.174  20.059  0.00  0.00    +0.000 A 
ATOM      7  C   UNL     1      -0.526  11.087  20.974  0.00  0.00    +0.000 A 
ATOM      8  C   UNL     1      -0.345  10.893  22.341  0.00  0.00    +0.000 A 
ATOM      9  C   UNL     1       0.396   9.796  22.783  0.00  0.00    +0.000 A 
ATOM     10  C   UNL     1       0.940   8.890  21.860  0.00  0.00    +0.000 A 
BRANCH   8  11
ATOM     11  O   UNL     1      -0.782  11.771  23.308  0.00  0.00    +0.000 OA
BRANCH  11  12
ATOM     12  C   UNL     1      -1.923  12.520  23.058  0.00  0.00    +0.000 A 
ATOM     13  N   UNL     1      -3.137  11.973  23.263  0.00  0.00    +0.000 NA
ATOM     14  C   UNL     1      -4.196  12.753  22.991  0.00  0.00    +0.000 A 
ATOM     15  C   UNL     1      -4.086  14.053  22.560  0.00  0.00    +0.000 A 
ATOM     16  C   UNL     1      -2.802  14.525  22.421  0.00  0.00    +0.000 A 
ATOM     17  N   UNL     1      -1.704  13.787  22.663  0.00  0.00    +0.000 NA
ENDBRANCH  11  12
ENDBRANCH   8  11
ENDBRANCH   3   5
BRANCH   2  18
ATOM     18  C   UNL     1       2.738   7.418  17.701  0.00  0.00    +0.000 C 
BRANCH  18  19
ATOM     19  C   UNL     1       3.421   6.344  18.565  0.00  0.00    +0.000 C 
BRANCH  19  20
ATOM     20  C   UNL     1       2.494   5.199  18.966  0.00  0.00    +0.000 A 
ATOM     21  C   UNL     1       1.951   4.327  18.008  0.00  0.00    +0.000 A 
ATOM     22  C   UNL     1       1.159   3.245  18.394  0.00  0.00    +0.000 A 
ATOM     23  C   UNL     1       0.883   3.026  19.740  0.00  0.00    +0.000 A 
ATOM     24  C   UNL     1       1.397   3.893  20.704  0.00  0.00    +0.000 A 
ATOM     25  C   UNL     1       2.198   4.971  20.320  0.00  0.00    +0.000 A 
ENDBRANCH  19  20
BRANCH  19  26
ATOM     26  C   UNL     1       4.697   5.798  17.907  0.00  0.00    +0.000 A 
ATOM     27  C   UNL     1       4.895   5.973  16.528  0.00  0.00    +0.000 A 
ATOM     28  C   UNL     1       6.090   5.574  15.923  0.00  0.00    +0.000 A 
ATOM     29  C   UNL     1       7.107   5.001  16.682  0.00  0.00    +0.000 A 
ATOM     30  C   UNL     1       6.927   4.813  18.048  0.00  0.00    +0.000 A 
ATOM     31  C   UNL     1       5.733   5.207  18.654  0.00  0.00    +0.000 A 
ENDBRANCH  19  26
ENDBRANCH  18  19
ENDBRANCH   2  18
TORSDOF 7
ENDMDL
MODEL 6
REMARK VINA RESULT:      -8.8      1.768      2.166
REMARK  Name = 
REMARK  7 active torsions:
REMARK  status: ('A' for Active; 'I' for Inactive)
REMARK    1  A    between atoms: C_2  and  C_3
REMARK    2  A    between atoms: C_3  and  C_4
REMARK    3  A    between atoms: C_4  and  C_5
REMARK    4  A    between atoms: C_4  and  C_11
REMARK    5  A    between atoms: N_17  and  C_18
REMARK    6  A    between atoms: C_21  and  O_22
REMARK    7  A    between atoms: O_22  and  C_23
REMARK                            x       y       z     vdW  Elec       q    Type
REMARK                         _______ _______ _______ _____ _____    ______ ____
ROOT
ATOM      1  O   UNL     1       1.880   8.114  19.873  0.00  0.00    +0.000 OA
ATOM      2  C   UNL     1       1.992   8.317  18.664  0.00  0.00    +0.000 C 
ATOM      3  N   UNL     1       1.356   9.311  17.943  0.00  0.00    +0.000 N 
ATOM      4  H   UNL     1       1.372   9.245  16.934  0.00  0.00    +0.000 HD
ENDROOT
BRANCH   3   5
ATOM      5  C   UNL     1       0.502  10.296  18.494  0.00  0.00    +0.000 A 
ATOM      6  C   UNL     1      -0.890  10.225  18.410  0.00  0.00    +0.000 A 
ATOM      7  C   UNL     1      -1.694  11.263  18.887  0.00  0.00    +0.000 A 
ATOM      8  C   UNL     1      -1.117  12.366  19.511  0.00  0.00    +0.000 A 
ATOM      9  C   UNL     1       0.272  12.438  19.624  0.00  0.00    +0.000 A 
ATOM     10  C   UNL     1       1.079  11.402  19.128  0.00  0.00    +0.000 A 
BRANCH   8  11
ATOM     11  O   UNL     1      -1.829  13.456  19.959  0.00  0.00    +0.000 OA
BRANCH  11  12
ATOM     12  C   UNL     1      -2.803  13.260  20.928  0.00  0.00    +0.000 A 
ATOM     13  N   UNL     1      -2.451  12.785  22.139  0.00  0.00    +0.000 NA
ATOM     14  C   UNL     1      -3.448  12.611  23.024  0.00  0.00    +0.000 A 
ATOM     15  C   UNL     1      -4.758  12.924  22.756  0.00  0.00    +0.000 A 
ATOM     16  C   UNL     1      -5.002  13.438  21.504  0.00  0.00    +0.000 A 
ATOM     17  N   UNL     1      -4.049  13.619  20.572  0.00  0.00    +0.000 NA
ENDBRANCH  11  12
ENDBRANCH   8  11
ENDBRANCH   3   5
BRANCH   2  18
ATOM     18  C   UNL     1       2.807   7.349  17.837  0.00  0.00    +0.000 C 
BRANCH  18  19
ATOM     19  C   UNL     1       3.491   6.222  18.630  0.00  0.00    +0.000 C 
BRANCH  19  20
ATOM     20  C   UNL     1       2.552   5.078  19.003  0.00  0.00    +0.000 A 
ATOM     21  C   UNL     1       1.957   4.270  18.020  0.00  0.00    +0.000 A 
ATOM     22  C   UNL     1       1.154   3.186  18.376  0.00  0.00    +0.000 A 
ATOM     23  C   UNL     1       0.919   2.901  19.718  0.00  0.00    +0.000 A 
ATOM     24  C   UNL     1       1.485   3.704  20.706  0.00  0.00    +0.000 A 
ATOM     25  C   UNL     1       2.297   4.784  20.353  0.00  0.00    +0.000 A 
ENDBRANCH  19  20
BRANCH  19  26
ATOM     26  C   UNL     1       4.737   5.684  17.913  0.00  0.00    +0.000 A 
ATOM     27  C   UNL     1       4.856   5.836  16.522  0.00  0.00    +0.000 A 
ATOM     28  C   UNL     1       6.023   5.446  15.858  0.00  0.00    +0.000 A 
ATOM     29  C   UNL     1       7.089   4.903  16.570  0.00  0.00    +0.000 A 
ATOM     30  C   UNL     1       6.988   4.737  17.947  0.00  0.00    +0.000 A 
ATOM     31  C   UNL     1       5.823   5.124  18.611  0.00  0.00    +0.000 A 
ENDBRANCH  19  26
ENDBRANCH  18  19
ENDBRANCH   2  18
TORSDOF 7
ENDMDL
MODEL 7
REMARK VINA RESULT:      -8.8      1.765      2.030
REMARK  Name = 
REMARK  7 active torsions:
REMARK  status: ('A' for Active; 'I' for Inactive)
REMARK    1  A    between atoms: C_2  and  C_3
REMARK    2  A    between atoms: C_3  and  C_4
REMARK    3  A    between atoms: C_4  and  C_5
REMARK    4  A    between atoms: C_4  and  C_11
REMARK    5  A    between atoms: N_17  and  C_18
REMARK    6  A    between atoms: C_21  and  O_22
REMARK    7  A    between atoms: O_22  and  C_23
REMARK                            x       y       z     vdW  Elec       q    Type
REMARK                         _______ _______ _______ _____ _____    ______ ____
ROOT
ATOM      1  O   UNL     1       1.758   8.278  19.916  0.00  0.00    +0.000 OA
ATOM      2  C   UNL     1       1.864   8.490  18.709  0.00  0.00    +0.000 C 
ATOM      3  N   UNL     1       1.221   9.488  17.998  0.00  0.00    +0.000 N 
ATOM      4  H   UNL     1       1.233   9.430  16.989  0.00  0.00    +0.000 HD
ENDROOT
BRANCH   3   5
ATOM      5  C   UNL     1       0.366  10.465  18.561  0.00  0.00    +0.000 A 
ATOM      6  C   UNL     1      -1.026  10.360  18.534  0.00  0.00    +0.000 A 
ATOM      7  C   UNL     1      -1.835  11.390  19.019  0.00  0.00    +0.000 A 
ATOM      8  C   UNL     1      -1.261  12.520  19.596  0.00  0.00    +0.000 A 
ATOM      9  C   UNL     1       0.130  12.627  19.652  0.00  0.00    +0.000 A 
ATOM     10  C   UNL     1       0.941  11.599  19.147  0.00  0.00    +0.000 A 
BRANCH   8  11
ATOM     11  O   UNL     1      -1.980  13.603  20.048  0.00  0.00    +0.000 OA
BRANCH  11  12
ATOM     12  C   UNL     1      -3.024  13.384  20.936  0.00  0.00    +0.000 A 
ATOM     13  N   UNL     1      -4.296  13.539  20.520  0.00  0.00    +0.000 NA
ATOM     14  C   UNL     1      -5.254  13.320  21.436  0.00  0.00    +0.000 A 
ATOM     15  C   UNL     1      -4.990  12.921  22.724  0.00  0.00    +0.000 A 
ATOM     16  C   UNL     1      -3.660  12.755  23.033  0.00  0.00    +0.000 A 
ATOM     17  N   UNL     1      -2.657  12.975  22.164  0.00  0.00    +0.000 NA
ENDBRANCH  11  12
ENDBRANCH   8  11
ENDBRANCH   3   5
BRANCH   2  18
ATOM     18  C   UNL     1       2.679   7.532  17.870  0.00  0.00    +0.000 C 
BRANCH  18  19
ATOM     19  C   UNL     1       3.374   6.404  18.652  0.00  0.00    +0.000 C 
BRANCH  19  20
ATOM     20  C   UNL     1       2.460   5.224  18.969  0.00  0.00    +0.000 A 
ATOM     21  C   UNL     1       1.994   4.366  17.959  0.00  0.00    +0.000 A 
ATOM     22  C   UNL     1       1.214   3.252  18.270  0.00  0.00    +0.000 A 
ATOM     23  C   UNL     1       0.872   2.986  19.592  0.00  0.00    +0.000 A 
ATOM     24  C   UNL     1       1.307   3.838  20.606  0.00  0.00    +0.000 A 
ATOM     25  C   UNL     1       2.097   4.949  20.298  0.00  0.00    +0.000 A 
ENDBRANCH  19  20
BRANCH  19  26
ATOM     26  C   UNL     1       4.654   5.922  17.955  0.00  0.00    +0.000 A 
ATOM     27  C   UNL     1       5.616   5.207  18.687  0.00  0.00    +0.000 A 
ATOM     28  C   UNL     1       6.742   4.671  18.055  0.00  0.00    +0.000 A 
ATOM     29  C   UNL     1       6.924   4.835  16.684  0.00  0.00    +0.000 A 
ATOM     30  C   UNL     1       5.986   5.546  15.943  0.00  0.00    +0.000 A 
ATOM     31  C   UNL     1       4.863   6.084  16.572  0.00  0.00    +0.000 A 
ENDBRANCH  19  26
ENDBRANCH  18  19
ENDBRANCH   2  18
TORSDOF 7
ENDMDL
MODEL 8
REMARK VINA RESULT:      -8.8      1.709      1.901
REMARK  Name = 
REMARK  7 active torsions:
REMARK  status: ('A' for Active; 'I' for Inactive)
REMARK    1  A    between atoms: C_2  and  C_3
REMARK    2  A    between atoms: C_3  and  C_4
REMARK    3  A    between atoms: C_4  and  C_5
REMARK    4  A    between atoms: C_4  and  C_11
REMARK    5  A    between atoms: N_17  and  C_18
REMARK    6  A    between atoms: C_21  and  O_22
REMARK    7  A    between atoms: O_22  and  C_23
REMARK                            x       y       z     vdW  Elec       q    Type
REMARK                         _______ _______ _______ _____ _____    ______ ____
ROOT
ATOM      1  O   UNL     1       1.683   8.531  19.778  0.00  0.00    +0.000 OA
ATOM      2  C   UNL     1       1.733   8.633  18.552  0.00  0.00    +0.000 C 
ATOM      3  N   UNL     1       0.984   9.500  17.776  0.00  0.00    +0.000 N 
ATOM      4  H   UNL     1       0.970   9.346  16.777  0.00  0.00    +0.000 HD
ENDROOT
BRANCH   3   5
ATOM      5  C   UNL     1       0.064  10.452  18.277  0.00  0.00    +0.000 A 
ATOM      6  C   UNL     1       0.459  11.582  18.996  0.00  0.00    +0.000 A 
ATOM      7  C   UNL     1      -0.485  12.448  19.551  0.00  0.00    +0.000 A 
ATOM      8  C   UNL     1      -1.845  12.229  19.344  0.00  0.00    +0.000 A 
ATOM      9  C   UNL     1      -2.253  11.118  18.605  0.00  0.00    +0.000 A 
ATOM     10  C   UNL     1      -1.302  10.238  18.063  0.00  0.00    +0.000 A 
BRANCH   8  11
ATOM     11  O   UNL     1      -2.842  12.999  19.898  0.00  0.00    +0.000 OA
BRANCH  11  12
ATOM     12  C   UNL     1      -2.755  13.330  21.244  0.00  0.00    +0.000 A 
ATOM     13  N   UNL     1      -2.521  14.608  21.601  0.00  0.00    +0.000 NA
ATOM     14  C   UNL     1      -2.440  14.852  22.920  0.00  0.00    +0.000 A 
ATOM     15  C   UNL     1      -2.618  13.886  23.880  0.00  0.00    +0.000 A 
ATOM     16  C   UNL     1      -2.890  12.623  23.407  0.00  0.00    +0.000 A 
ATOM     17  N   UNL     1      -2.967  12.315  22.100  0.00  0.00    +0.000 NA
ENDBRANCH  11  12
ENDBRANCH   8  11
ENDBRANCH   3   5
BRANCH   2  18
ATOM     18  C   UNL     1       2.603   7.671  17.776  0.00  0.00    +0.000 C 
BRANCH  18  19
ATOM     19  C   UNL     1       3.296   6.587  18.620  0.00  0.00    +0.000 C 
BRANCH  19  20
ATOM     20  C   UNL     1       2.398   5.397  18.947  0.00  0.00    +0.000 A 
ATOM     21  C   UNL     1       1.975   4.503  17.949  0.00  0.00    +0.000 A 
ATOM     22  C   UNL     1       1.210   3.381  18.271  0.00  0.00    +0.000 A 
ATOM     23  C   UNL     1       0.841   3.143  19.592  0.00  0.00    +0.000 A 
ATOM     24  C   UNL     1       1.234   4.030  20.593  0.00  0.00    +0.000 A 
ATOM     25  C   UNL     1       2.009   5.149  20.274  0.00  0.00    +0.000 A 
ENDBRANCH  19  20
BRANCH  19  26
ATOM     26  C   UNL     1       4.610   6.112  17.984  0.00  0.00    +0.000 A 
ATOM     27  C   UNL     1       5.535   5.393  18.758  0.00  0.00    +0.000 A 
ATOM     28  C   UNL     1       6.692   4.864  18.179  0.00  0.00    +0.000 A 
ATOM     29  C   UNL     1       6.942   5.039  16.821  0.00  0.00    +0.000 A 
ATOM     30  C   UNL     1       6.042   5.754  16.039  0.00  0.00    +0.000 A 
ATOM     31  C   UNL     1       4.888   6.286  16.615  0.00  0.00    +0.000 A 
ENDBRANCH  19  26
ENDBRANCH  18  19
ENDBRANCH   2  18
TORSDOF 7
ENDMDL
MODEL 9
REMARK VINA RESULT:      -8.7      1.744      2.160
REMARK  Name = 
REMARK  7 active torsions:
REMARK  status: ('A' for Active; 'I' for Inactive)
REMARK    1  A    between atoms: C_2  and  C_3
REMARK    2  A    between atoms: C_3  and  C_4
REMARK    3  A    between atoms: C_4  and  C_5
REMARK    4  A    between atoms: C_4  and  C_11
REMARK    5  A    between atoms: N_17  and  C_18
REMARK    6  A    between atoms: C_21  and  O_22
REMARK    7  A    between atoms: O_22  and  C_23
REMARK                            x       y       z     vdW  Elec       q    Type
REMARK                         _______ _______ _______ _____ _____    ______ ____
ROOT
ATOM      1  O   UNL     1       1.756   8.160  19.936  0.00  0.00    +0.000 OA
ATOM      2  C   UNL     1       1.900   8.407  18.739  0.00  0.00    +0.000 C 
ATOM      3  N   UNL     1       1.307   9.448  18.046  0.00  0.00    +0.000 N 
ATOM      4  H   UNL     1       1.343   9.421  17.035  0.00  0.00    +0.000 HD
ENDROOT
BRANCH   3   5
ATOM      5  C   UNL     1       0.469  10.433  18.619  0.00  0.00    +0.000 A 
ATOM      6  C   UNL     1      -0.917  10.286  18.716  0.00  0.00    +0.000 A 
ATOM      7  C   UNL     1      -1.717  11.321  19.205  0.00  0.00    +0.000 A 
ATOM      8  C   UNL     1      -1.136  12.501  19.662  0.00  0.00    +0.000 A 
ATOM      9  C   UNL     1       0.250  12.651  19.594  0.00  0.00    +0.000 A 
ATOM     10  C   UNL     1       1.051  11.617  19.085  0.00  0.00    +0.000 A 
BRANCH   8  11
ATOM     11  O   UNL     1      -1.852  13.589  20.107  0.00  0.00    +0.000 OA
BRANCH  11  12
ATOM     12  C   UNL     1      -2.897  13.378  20.997  0.00  0.00    +0.000 A 
ATOM     13  N   UNL     1      -2.633  12.927  22.238  0.00  0.00    +0.000 NA
ATOM     14  C   UNL     1      -3.693  12.736  23.041  0.00  0.00    +0.000 A 
ATOM     15  C   UNL     1      -4.985  13.011  22.664  0.00  0.00    +0.000 A 
ATOM     16  C   UNL     1      -5.139  13.504  21.390  0.00  0.00    +0.000 A 
ATOM     17  N   UNL     1      -4.118  13.700  20.536  0.00  0.00    +0.000 NA
ENDBRANCH  11  12
ENDBRANCH   8  11
ENDBRANCH   3   5
BRANCH   2  18
ATOM     18  C   UNL     1       2.706   7.451  17.890  0.00  0.00    +0.000 C 
BRANCH  18  19
ATOM     19  C   UNL     1       3.463   6.361  18.668  0.00  0.00    +0.000 C 
BRANCH  19  20
ATOM     20  C   UNL     1       2.599   5.158  19.035  0.00  0.00    +0.000 A 
ATOM     21  C   UNL     1       2.321   4.837  20.374  0.00  0.00    +0.000 A 
ATOM     22  C   UNL     1       1.475   3.774  20.694  0.00  0.00    +0.000 A 
ATOM     23  C   UNL     1       0.908   3.004  19.684  0.00  0.00    +0.000 A 
ATOM     24  C   UNL     1       1.189   3.294  18.350  0.00  0.00    +0.000 A 
ATOM     25  C   UNL     1       2.028   4.364  18.027  0.00  0.00    +0.000 A 
ENDBRANCH  19  20
BRANCH  19  26
ATOM     26  C   UNL     1       4.736   5.909  17.939  0.00  0.00    +0.000 A 
ATOM     27  C   UNL     1       5.746   5.243  18.653  0.00  0.00    +0.000 A 
ATOM     28  C   UNL     1       6.868   4.734  17.995  0.00  0.00    +0.000 A 
ATOM     29  C   UNL     1       7.000   4.875  16.616  0.00  0.00    +0.000 A 
ATOM     30  C   UNL     1       6.015   5.537  15.892  0.00  0.00    +0.000 A 
ATOM     31  C   UNL     1       4.894   6.049  16.547  0.00  0.00    +0.000 A 
ENDBRANCH  19  26
ENDBRANCH  18  19
ENDBRANCH   2  18
TORSDOF 7
ENDMDL
