MODEL 1
REMARK VINA RESULT:      -9.2      0.000      0.000
REMARK  Name = 
REMARK  8 active torsions:
REMARK  status: ('A' for Active; 'I' for Inactive)
REMARK    1  A    between atoms: C_1  and  N_2
REMARK    2  A    between atoms: C_3  and  C_5
REMARK    3  A    between atoms: N_11  and  C_12
REMARK    4  A    between atoms: C_16  and  C_17
REMARK    5  A    between atoms: C_17  and  C_18
REMARK    6  A    between atoms: C_17  and  S_19
REMARK    7  A    between atoms: S_19  and  C_20
REMARK    8  A    between atoms: N_24  and  C_25
REMARK                            x       y       z     vdW  Elec       q    Type
REMARK                         _______ _______ _______ _____ _____    ______ ____
ROOT
ATOM      1  C   UNL     1      -2.551  11.281  18.438  0.00  0.00    +0.000 A 
ATOM      2  C   UNL     1      -3.076  12.233  19.310  0.00  0.00    +0.000 A 
ATOM      3  C   UNL     1      -2.497  12.398  20.568  0.00  0.00    +0.000 A 
ATOM      4  C   UNL     1      -1.375  11.634  20.938  0.00  0.00    +0.000 A 
ATOM      5  C   UNL     1      -0.817  10.699  20.074  0.00  0.00    +0.000 A 
ATOM      6  C   UNL     1      -1.465  10.494  18.845  0.00  0.00    +0.000 A 
ATOM      7  N   UNL     1       0.347   9.982  20.474  0.00  0.00    +0.000 N 
ATOM      8  N   UNL     1       0.863  10.106  21.741  0.00  0.00    +0.000 NA
ATOM      9  N   UNL     1       0.393  10.924  22.555  0.00  0.00    +0.000 NA
ATOM     10  C   UNL     1      -0.764  11.775  22.287  0.00  0.00    +0.000 C 
ENDROOT
BRANCH   7  11
ATOM     11  C   UNL     1       1.161   9.150  19.636  0.00  0.00    +0.000 A 
ATOM     12  C   UNL     1       1.530   9.537  18.337  0.00  0.00    +0.000 A 
ATOM     13  C   UNL     1       2.291   8.703  17.516  0.00  0.00    +0.000 A 
ATOM     14  C   UNL     1       2.752   7.478  17.994  0.00  0.00    +0.000 A 
ATOM     15  C   UNL     1       2.454   7.063  19.302  0.00  0.00    +0.000 A 
ATOM     16  C   UNL     1       1.658   7.911  20.102  0.00  0.00    +0.000 A 
BRANCH  15  17
ATOM     17  C   UNL     1       3.025   5.749  19.836  0.00  0.00    +0.000 C 
ATOM     18  C   UNL     1       1.992   5.044  20.722  0.00  0.00    +0.000 C 
BRANCH  17  19
ATOM     19  S   UNL     1       3.584   4.663  18.459  0.00  0.00    +0.000 S 
BRANCH  19  20
ATOM     20  C   UNL     1       5.304   4.820  18.550  0.00  0.00    +0.000 A 
ATOM     21  N   UNL     1       6.017   5.111  19.615  0.00  0.00    +0.000 NA
ATOM     22  N   UNL     1       7.348   5.089  19.250  0.00  0.00    +0.000 NA
ATOM     23  C   UNL     1       7.406   4.793  17.974  0.00  0.00    +0.000 A 
ATOM     24  N   UNL     1       6.139   4.634  17.486  0.00  0.00    +0.000 N 
ATOM     25  C   UNL     1       5.805   4.313  16.123  0.00  0.00    +0.000 C 
ENDBRANCH  19  20
ENDBRANCH  17  19
ENDBRANCH  15  17
ENDBRANCH   7  11
BRANCH   1  28
ATOM     26  C   UNL     1      -2.748  10.133  14.840  0.00  0.00    +0.000 C 
ATOM     27  N   UNL     1      -2.263  10.463  16.157  0.00  0.00    +0.000 N 
ATOM     28  C   UNL     1      -3.110  11.042  17.079  0.00  0.00    +0.000 C 
ATOM     29  O   UNL     1      -4.280  11.312  16.837  0.00  0.00    +0.000 OA
ATOM     30  H   UNL     1      -1.392  10.053  16.466  0.00  0.00    +0.000 HD
ENDBRANCH   1  28
TORSDOF 5
ENDMDL
MODEL 2
REMARK VINA RESULT:      -8.8      1.465      1.674
REMARK  Name = 
REMARK  8 active torsions:
REMARK  status: ('A' for Active; 'I' for Inactive)
REMARK    1  A    between atoms: C_1  and  N_2
REMARK    2  A    between atoms: C_3  and  C_5
REMARK    3  A    between atoms: N_11  and  C_12
REMARK    4  A    between atoms: C_16  and  C_17
REMARK    5  A    between atoms: C_17  and  C_18
REMARK    6  A    between atoms: C_17  and  S_19
REMARK    7  A    between atoms: S_19  and  C_20
REMARK    8  A    between atoms: N_24  and  C_25
REMARK                            x       y       z     vdW  Elec       q    Type
REMARK                         _______ _______ _______ _____ _____    ______ ____
ROOT
ATOM      1  C   UNL     1      -2.685  11.472  18.491  0.00  0.00    +0.000 A 
ATOM      2  C   UNL     1      -3.246  12.371  19.396  0.00  0.00    +0.000 A 
ATOM      3  C   UNL     1      -2.688  12.496  20.668  0.00  0.00    +0.000 A 
ATOM      4  C   UNL     1      -1.549  11.748  21.019  0.00  0.00    +0.000 A 
ATOM      5  C   UNL     1      -0.955  10.868  20.122  0.00  0.00    +0.000 A 
ATOM      6  C   UNL     1      -1.581  10.699  18.877  0.00  0.00    +0.000 A 
ATOM      7  N   UNL     1       0.224  10.167  20.505  0.00  0.00    +0.000 N 
ATOM      8  N   UNL     1       0.722  10.250  21.784  0.00  0.00    +0.000 NA
ATOM      9  N   UNL     1       0.219  11.018  22.626  0.00  0.00    +0.000 NA
ATOM     10  C   UNL     1      -0.958  11.848  22.381  0.00  0.00    +0.000 C 
ENDROOT
BRANCH   7  11
ATOM     11  C   UNL     1       1.071   9.395  19.643  0.00  0.00    +0.000 A 
ATOM     12  C   UNL     1       1.451   9.852  18.370  0.00  0.00    +0.000 A 
ATOM     13  C   UNL     1       2.244   9.076  17.524  0.00  0.00    +0.000 A 
ATOM     14  C   UNL     1       2.728   7.841  17.951  0.00  0.00    +0.000 A 
ATOM     15  C   UNL     1       2.421   7.358  19.233  0.00  0.00    +0.000 A 
ATOM     16  C   UNL     1       1.592   8.148  20.059  0.00  0.00    +0.000 A 
BRANCH  15  17
ATOM     17  C   UNL     1       3.016   6.034  19.714  0.00  0.00    +0.000 C 
ATOM     18  C   UNL     1       1.903   5.100  20.203  0.00  0.00    +0.000 C 
BRANCH  17  19
ATOM     19  S   UNL     1       4.025   5.244  18.393  0.00  0.00    +0.000 S 
BRANCH  19  20
ATOM     20  C   UNL     1       4.221   3.636  19.001  0.00  0.00    +0.000 A 
ATOM     21  N   UNL     1       5.078   3.234  19.912  0.00  0.00    +0.000 NA
ATOM     22  N   UNL     1       4.862   1.888  20.129  0.00  0.00    +0.000 NA
ATOM     23  C   UNL     1       3.887   1.509  19.338  0.00  0.00    +0.000 A 
ATOM     24  N   UNL     1       3.465   2.574  18.593  0.00  0.00    +0.000 N 
ATOM     25  C   UNL     1       2.416   2.541  17.608  0.00  0.00    +0.000 C 
ENDBRANCH  19  20
ENDBRANCH  17  19
ENDBRANCH  15  17
ENDBRANCH   7  11
BRANCH   1  28
ATOM     26  C   UNL     1      -2.859  10.355  14.882  0.00  0.00    +0.000 C 
ATOM     27  N   UNL     1      -2.389  10.646  16.214  0.00  0.00    +0.000 N 
ATOM     28  C   UNL     1      -3.221  11.277  17.116  0.00  0.00    +0.000 C 
ATOM     29  O   UNL     1      -4.363  11.627  16.843  0.00  0.00    +0.000 OA
ATOM     30  H   UNL     1      -1.558  10.176  16.544  0.00  0.00    +0.000 HD
ENDBRANCH   1  28
TORSDOF 5
ENDMDL
MODEL 3
REMARK VINA RESULT:      -8.6      1.840      2.292
REMARK  Name = 
REMARK  8 active torsions:
REMARK  status: ('A' for Active; 'I' for Inactive)
REMARK    1  A    between atoms: C_1  and  N_2
REMARK    2  A    between atoms: C_3  and  C_5
REMARK    3  A    between atoms: N_11  and  C_12
REMARK    4  A    between atoms: C_16  and  C_17
REMARK    5  A    between atoms: C_17  and  C_18
REMARK    6  A    between atoms: C_17  and  S_19
REMARK    7  A    between atoms: S_19  and  C_20
REMARK    8  A    between atoms: N_24  and  C_25
REMARK                            x       y       z     vdW  Elec       q    Type
REMARK                         _______ _______ _______ _____ _____    ______ ____
ROOT
ATOM      1  C   UNL     1      -2.814  11.514  18.501  0.00  0.00    +0.000 A 
ATOM      2  C   UNL     1      -3.383  12.448  19.365  0.00  0.00    +0.000 A 
ATOM      3  C   UNL     1      -2.824  12.635  20.629  0.00  0.00    +0.000 A 
ATOM      4  C   UNL     1      -1.678  11.914  21.012  0.00  0.00    +0.000 A 
ATOM      5  C   UNL     1      -1.077  10.999  20.156  0.00  0.00    +0.000 A 
ATOM      6  C   UNL     1      -1.704  10.768  18.920  0.00  0.00    +0.000 A 
ATOM      7  N   UNL     1       0.108  10.327  20.568  0.00  0.00    +0.000 N 
ATOM      8  N   UNL     1       0.607  10.471  21.841  0.00  0.00    +0.000 NA
ATOM      9  N   UNL     1       0.098  11.273  22.648  0.00  0.00    +0.000 NA
ATOM     10  C   UNL     1      -1.086  12.080  22.367  0.00  0.00    +0.000 C 
ENDROOT
BRANCH   7  11
ATOM     11  C   UNL     1       0.961   9.524  19.740  0.00  0.00    +0.000 A 
ATOM     12  C   UNL     1       1.360   9.940  18.459  0.00  0.00    +0.000 A 
ATOM     13  C   UNL     1       2.159   9.134  17.646  0.00  0.00    +0.000 A 
ATOM     14  C   UNL     1       2.629   7.909  18.117  0.00  0.00    +0.000 A 
ATOM     15  C   UNL     1       2.303   7.468  19.410  0.00  0.00    +0.000 A 
ATOM     16  C   UNL     1       1.469   8.287  20.201  0.00  0.00    +0.000 A 
BRANCH  15  17
ATOM     17  C   UNL     1       2.884   6.156  19.938  0.00  0.00    +0.000 C 
ATOM     18  C   UNL     1       1.772   5.288  20.539  0.00  0.00    +0.000 C 
BRANCH  17  19
ATOM     19  S   UNL     1       3.799   5.258  18.616  0.00  0.00    +0.000 S 
BRANCH  19  20
ATOM     20  C   UNL     1       2.876   3.802  18.465  0.00  0.00    +0.000 A 
ATOM     21  N   UNL     1       1.801   3.619  17.733  0.00  0.00    +0.000 NA
ATOM     22  N   UNL     1       1.416   2.301  17.869  0.00  0.00    +0.000 NA
ATOM     23  C   UNL     1       2.263   1.723  18.687  0.00  0.00    +0.000 A 
ATOM     24  N   UNL     1       3.190   2.636  19.103  0.00  0.00    +0.000 N 
ATOM     25  C   UNL     1       4.273   2.371  20.014  0.00  0.00    +0.000 C 
ENDBRANCH  19  20
ENDBRANCH  17  19
ENDBRANCH  15  17
ENDBRANCH   7  11
BRANCH   1  28
ATOM     26  C   UNL     1      -2.929  10.361  14.901  0.00  0.00    +0.000 C 
ATOM     27  N   UNL     1      -2.470  10.710  16.223  0.00  0.00    +0.000 N 
ATOM     28  C   UNL     1      -3.350  11.252  17.137  0.00  0.00    +0.000 C 
ATOM     29  O   UNL     1      -4.528  11.473  16.884  0.00  0.00    +0.000 OA
ATOM     30  H   UNL     1      -1.586  10.337  16.540  0.00  0.00    +0.000 HD
ENDBRANCH   1  28
TORSDOF 5
ENDMDL
MODEL 4
REMARK VINA RESULT:      -8.3      2.640      3.142
REMARK  Name = 
REMARK  8 active torsions:
REMARK  status: ('A' for Active; 'I' for Inactive)
REMARK    1  A    between atoms: C_1  and  N_2
REMARK    2  A    between atoms: C_3  and  C_5
REMARK    3  A    between atoms: N_11  and  C_12
REMARK    4  A    between atoms: C_16  and  C_17
REMARK    5  A    between atoms: C_17  and  C_18
REMARK    6  A    between atoms: C_17  and  S_19
REMARK    7  A    between atoms: S_19  and  C_20
REMARK    8  A    between atoms: N_24  and  C_25
REMARK                            x       y       z     vdW  Elec       q    Type
REMARK                         _______ _______ _______ _____ _____    ______ ____
ROOT
ATOM      1  C   UNL     1       1.290  13.115  19.816  0.00  0.00    +0.000 A 
ATOM      2  C   UNL     1       0.672  13.761  20.885  0.00  0.00    +0.000 A 
ATOM      3  C   UNL     1      -0.001  13.003  21.842  0.00  0.00    +0.000 A 
ATOM      4  C   UNL     1      -0.026  11.599  21.746  0.00  0.00    +0.000 A 
ATOM      5  C   UNL     1       0.607  10.932  20.704  0.00  0.00    +0.000 A 
ATOM      6  C   UNL     1       1.210  11.720  19.710  0.00  0.00    +0.000 A 
ATOM      7  N   UNL     1       0.595   9.509  20.674  0.00  0.00    +0.000 N 
ATOM      8  N   UNL     1      -0.130   8.779  21.586  0.00  0.00    +0.000 NA
ATOM      9  N   UNL     1      -0.722   9.332  22.533  0.00  0.00    +0.000 NA
ATOM     10  C   UNL     1      -0.765  10.777  22.742  0.00  0.00    +0.000 C 
ENDROOT
BRANCH   7  11
ATOM     11  C   UNL     1       1.367   8.671  19.802  0.00  0.00    +0.000 A 
ATOM     12  C   UNL     1       1.648   9.038  18.474  0.00  0.00    +0.000 A 
ATOM     13  C   UNL     1       2.367   8.199  17.623  0.00  0.00    +0.000 A 
ATOM     14  C   UNL     1       2.876   6.990  18.093  0.00  0.00    +0.000 A 
ATOM     15  C   UNL     1       2.668   6.597  19.425  0.00  0.00    +0.000 A 
ATOM     16  C   UNL     1       1.912   7.449  20.259  0.00  0.00    +0.000 A 
BRANCH  15  17
ATOM     17  C   UNL     1       3.292   5.302  19.946  0.00  0.00    +0.000 C 
ATOM     18  C   UNL     1       2.288   4.546  20.824  0.00  0.00    +0.000 C 
BRANCH  17  19
ATOM     19  S   UNL     1       3.895   4.254  18.558  0.00  0.00    +0.000 S 
BRANCH  19  20
ATOM     20  C   UNL     1       5.586   4.619  18.538  0.00  0.00    +0.000 A 
ATOM     21  N   UNL     1       6.316   5.043  19.544  0.00  0.00    +0.000 NA
ATOM     22  N   UNL     1       7.617   5.163  19.100  0.00  0.00    +0.000 NA
ATOM     23  C   UNL     1       7.639   4.818  17.835  0.00  0.00    +0.000 A 
ATOM     24  N   UNL     1       6.376   4.486  17.432  0.00  0.00    +0.000 N 
ATOM     25  C   UNL     1       6.008   4.065  16.106  0.00  0.00    +0.000 C 
ENDBRANCH  19  20
ENDBRANCH  17  19
ENDBRANCH  15  17
ENDBRANCH   7  11
BRANCH   1  28
ATOM     26  C   UNL     1       2.888  15.993  17.953  0.00  0.00    +0.000 C 
ATOM     27  N   UNL     1       2.129  15.217  18.903  0.00  0.00    +0.000 N 
ATOM     28  C   UNL     1       2.027  13.850  18.751  0.00  0.00    +0.000 C 
ATOM     29  O   UNL     1       2.547  13.237  17.826  0.00  0.00    +0.000 OA
ATOM     30  H   UNL     1       1.887  15.641  19.787  0.00  0.00    +0.000 HD
ENDBRANCH   1  28
TORSDOF 5
ENDMDL
MODEL 5
REMARK VINA RESULT:      -8.2      1.558      1.882
REMARK  Name = 
REMARK  8 active torsions:
REMARK  status: ('A' for Active; 'I' for Inactive)
REMARK    1  A    between atoms: C_1  and  N_2
REMARK    2  A    between atoms: C_3  and  C_5
REMARK    3  A    between atoms: N_11  and  C_12
REMARK    4  A    between atoms: C_16  and  C_17
REMARK    5  A    between atoms: C_17  and  C_18
REMARK    6  A    between atoms: C_17  and  S_19
REMARK    7  A    between atoms: S_19  and  C_20
REMARK    8  A    between atoms: N_24  and  C_25
REMARK                            x       y       z     vdW  Elec       q    Type
REMARK                         _______ _______ _______ _____ _____    ______ ____
ROOT
ATOM      1  C   UNL     1      -3.124  11.667  18.509  0.00  0.00    +0.000 A 
ATOM      2  C   UNL     1      -3.758  12.538  19.393  0.00  0.00    +0.000 A 
ATOM      3  C   UNL     1      -3.205  12.751  20.655  0.00  0.00    +0.000 A 
ATOM      4  C   UNL     1      -2.000  12.120  21.017  0.00  0.00    +0.000 A 
ATOM      5  C   UNL     1      -1.335  11.270  20.141  0.00  0.00    +0.000 A 
ATOM      6  C   UNL     1      -1.953  11.008  18.907  0.00  0.00    +0.000 A 
ATOM      7  N   UNL     1      -0.095  10.690  20.533  0.00  0.00    +0.000 N 
ATOM      8  N   UNL     1       0.402  10.856  21.804  0.00  0.00    +0.000 NA
ATOM      9  N   UNL     1      -0.163  11.602  22.628  0.00  0.00    +0.000 NA
ATOM     10  C   UNL     1      -1.411  12.314  22.369  0.00  0.00    +0.000 C 
ENDROOT
BRANCH   7  11
ATOM     11  C   UNL     1       0.812   9.972  19.686  0.00  0.00    +0.000 A 
ATOM     12  C   UNL     1       1.378  10.555  18.539  0.00  0.00    +0.000 A 
ATOM     13  C   UNL     1       2.230   9.835  17.701  0.00  0.00    +0.000 A 
ATOM     14  C   UNL     1       2.586   8.525  18.018  0.00  0.00    +0.000 A 
ATOM     15  C   UNL     1       2.089   7.911  19.179  0.00  0.00    +0.000 A 
ATOM     16  C   UNL     1       1.205   8.649  19.995  0.00  0.00    +0.000 A 
BRANCH  15  17
ATOM     17  C   UNL     1       2.543   6.499  19.550  0.00  0.00    +0.000 C 
ATOM     18  C   UNL     1       1.636   5.920  20.642  0.00  0.00    +0.000 C 
BRANCH  17  19
ATOM     19  S   UNL     1       2.592   5.408  18.068  0.00  0.00    +0.000 S 
BRANCH  19  20
ATOM     20  C   UNL     1       3.113   3.903  18.744  0.00  0.00    +0.000 A 
ATOM     21  N   UNL     1       2.380   2.833  18.953  0.00  0.00    +0.000 NA
ATOM     22  N   UNL     1       3.204   1.851  19.462  0.00  0.00    +0.000 NA
ATOM     23  C   UNL     1       4.411   2.353  19.556  0.00  0.00    +0.000 A 
ATOM     24  N   UNL     1       4.398   3.652  19.132  0.00  0.00    +0.000 N 
ATOM     25  C   UNL     1       5.538   4.531  19.098  0.00  0.00    +0.000 C 
ENDBRANCH  19  20
ENDBRANCH  17  19
ENDBRANCH  15  17
ENDBRANCH   7  11
BRANCH   1  28
ATOM     26  C   UNL     1      -3.249  10.364  14.961  0.00  0.00    +0.000 C 
ATOM     27  N   UNL     1      -2.793  10.738  16.276  0.00  0.00    +0.000 N 
ATOM     28  C   UNL     1      -3.649  11.383  17.145  0.00  0.00    +0.000 C 
ATOM     29  O   UNL     1      -4.803  11.675  16.855  0.00  0.00    +0.000 OA
ATOM     30  H   UNL     1      -1.945  10.318  16.630  0.00  0.00    +0.000 HD
ENDBRANCH   1  28
TORSDOF 5
ENDMDL
MODEL 6
REMARK VINA RESULT:      -8.0      3.452      8.769
REMARK  Name = 
REMARK  8 active torsions:
REMARK  status: ('A' for Active; 'I' for Inactive)
REMARK    1  A    between atoms: C_1  and  N_2
REMARK    2  A    between atoms: C_3  and  C_5
REMARK    3  A    between atoms: N_11  and  C_12
REMARK    4  A    between atoms: C_16  and  C_17
REMARK    5  A    between atoms: C_17  and  C_18
REMARK    6  A    between atoms: C_17  and  S_19
REMARK    7  A    between atoms: S_19  and  C_20
REMARK    8  A    between atoms: N_24  and  C_25
REMARK                            x       y       z     vdW  Elec       q    Type
REMARK                         _______ _______ _______ _____ _____    ______ ____
ROOT
ATOM      1  C   UNL     1       4.744   4.914  16.929  0.00  0.00    +0.000 A 
ATOM      2  C   UNL     1       4.801   3.570  17.291  0.00  0.00    +0.000 A 
ATOM      3  C   UNL     1       4.114   3.140  18.426  0.00  0.00    +0.000 A 
ATOM      4  C   UNL     1       3.344   4.049  19.176  0.00  0.00    +0.000 A 
ATOM      5  C   UNL     1       3.250   5.389  18.816  0.00  0.00    +0.000 A 
ATOM      6  C   UNL     1       4.014   5.814  17.717  0.00  0.00    +0.000 A 
ATOM      7  N   UNL     1       2.422   6.262  19.577  0.00  0.00    +0.000 N 
ATOM      8  N   UNL     1       1.806   5.839  20.731  0.00  0.00    +0.000 NA
ATOM      9  N   UNL     1       1.869   4.650  21.100  0.00  0.00    +0.000 NA
ATOM     10  C   UNL     1       2.629   3.614  20.406  0.00  0.00    +0.000 C 
ENDROOT
BRANCH   7  11
ATOM     11  C   UNL     1       2.050   7.601  19.225  0.00  0.00    +0.000 A 
ATOM     12  C   UNL     1       2.530   8.225  18.061  0.00  0.00    +0.000 A 
ATOM     13  C   UNL     1       2.193   9.542  17.747  0.00  0.00    +0.000 A 
ATOM     14  C   UNL     1       1.317  10.256  18.563  0.00  0.00    +0.000 A 
ATOM     15  C   UNL     1       0.768   9.665  19.712  0.00  0.00    +0.000 A 
ATOM     16  C   UNL     1       1.148   8.341  20.024  0.00  0.00    +0.000 A 
BRANCH  15  17
ATOM     17  C   UNL     1      -0.245  10.436  20.558  0.00  0.00    +0.000 C 
ATOM     18  C   UNL     1       0.217  10.489  22.020  0.00  0.00    +0.000 C 
BRANCH  17  19
ATOM     19  S   UNL     1      -0.526  12.124  19.880  0.00  0.00    +0.000 S 
BRANCH  19  20
ATOM     20  C   UNL     1      -2.008  11.922  19.010  0.00  0.00    +0.000 A 
ATOM     21  N   UNL     1      -2.154  11.448  17.794  0.00  0.00    +0.000 NA
ATOM     22  N   UNL     1      -3.504  11.418  17.512  0.00  0.00    +0.000 NA
ATOM     23  C   UNL     1      -4.140  11.882  18.560  0.00  0.00    +0.000 A 
ATOM     24  N   UNL     1      -3.235  12.231  19.524  0.00  0.00    +0.000 N 
ATOM     25  C   UNL     1      -3.560  12.786  20.811  0.00  0.00    +0.000 C 
ENDBRANCH  19  20
ENDBRANCH  17  19
ENDBRANCH  15  17
ENDBRANCH   7  11
BRANCH   1  28
ATOM     26  C   UNL     1       7.002   5.026  13.897  0.00  0.00    +0.000 C 
ATOM     27  N   UNL     1       6.332   4.604  15.101  0.00  0.00    +0.000 N 
ATOM     28  C   UNL     1       5.449   5.455  15.734  0.00  0.00    +0.000 C 
ATOM     29  O   UNL     1       5.201   6.584  15.330  0.00  0.00    +0.000 OA
ATOM     30  H   UNL     1       6.330   3.620  15.332  0.00  0.00    +0.000 HD
ENDBRANCH   1  28
TORSDOF 5
ENDMDL
MODEL 7
REMARK VINA RESULT:      -7.9      4.086      8.806
REMARK  Name = 
REMARK  8 active torsions:
REMARK  status: ('A' for Active; 'I' for Inactive)
REMARK    1  A    between atoms: C_1  and  N_2
REMARK    2  A    between atoms: C_3  and  C_5
REMARK    3  A    between atoms: N_11  and  C_12
REMARK    4  A    between atoms: C_16  and  C_17
REMARK    5  A    between atoms: C_17  and  C_18
REMARK    6  A    between atoms: C_17  and  S_19
REMARK    7  A    between atoms: S_19  and  C_20
REMARK    8  A    between atoms: N_24  and  C_25
REMARK                            x       y       z     vdW  Elec       q    Type
REMARK                         _______ _______ _______ _____ _____    ______ ____
ROOT
ATOM      1  C   UNL     1       6.333   5.905  17.592  0.00  0.00    +0.000 A 
ATOM      2  C   UNL     1       6.562   4.909  16.645  0.00  0.00    +0.000 A 
ATOM      3  C   UNL     1       5.528   4.033  16.313  0.00  0.00    +0.000 A 
ATOM      4  C   UNL     1       4.259   4.177  16.904  0.00  0.00    +0.000 A 
ATOM      5  C   UNL     1       4.000   5.181  17.830  0.00  0.00    +0.000 A 
ATOM      6  C   UNL     1       5.077   6.001  18.207  0.00  0.00    +0.000 A 
ATOM      7  N   UNL     1       2.689   5.318  18.367  0.00  0.00    +0.000 N 
ATOM      8  N   UNL     1       1.700   4.406  18.082  0.00  0.00    +0.000 NA
ATOM      9  N   UNL     1       1.887   3.483  17.265  0.00  0.00    +0.000 NA
ATOM     10  C   UNL     1       3.155   3.233  16.584  0.00  0.00    +0.000 C 
ENDROOT
BRANCH   7  11
ATOM     11  C   UNL     1       2.204   6.412  19.157  0.00  0.00    +0.000 A 
ATOM     12  C   UNL     1       2.029   6.305  20.547  0.00  0.00    +0.000 A 
ATOM     13  C   UNL     1       1.521   7.363  21.302  0.00  0.00    +0.000 A 
ATOM     14  C   UNL     1       1.225   8.582  20.693  0.00  0.00    +0.000 A 
ATOM     15  C   UNL     1       1.429   8.760  19.315  0.00  0.00    +0.000 A 
ATOM     16  C   UNL     1       1.916   7.665  18.569  0.00  0.00    +0.000 A 
BRANCH  15  17
ATOM     17  C   UNL     1       1.167  10.123  18.675  0.00  0.00    +0.000 C 
ATOM     18  C   UNL     1      -0.055  10.049  17.752  0.00  0.00    +0.000 C 
BRANCH  17  19
ATOM     19  S   UNL     1       0.965  11.429  19.956  0.00  0.00    +0.000 S 
BRANCH  19  20
ATOM     20  C   UNL     1       1.977  12.693  19.347  0.00  0.00    +0.000 A 
ATOM     21  N   UNL     1       2.618  12.710  18.200  0.00  0.00    +0.000 NA
ATOM     22  N   UNL     1       3.266  13.924  18.097  0.00  0.00    +0.000 NA
ATOM     23  C   UNL     1       3.009  14.606  19.187  0.00  0.00    +0.000 A 
ATOM     24  N   UNL     1       2.216  13.861  20.014  0.00  0.00    +0.000 N 
ATOM     25  C   UNL     1       1.734  14.275  21.306  0.00  0.00    +0.000 C 
ENDBRANCH  19  20
ENDBRANCH  17  19
ENDBRANCH  15  17
ENDBRANCH   7  11
BRANCH   1  28
ATOM     26  C   UNL     1       8.278   9.142  17.793  0.00  0.00    +0.000 C 
ATOM     27  N   UNL     1       7.342   8.119  17.399  0.00  0.00    +0.000 N 
ATOM     28  C   UNL     1       7.381   6.879  18.003  0.00  0.00    +0.000 C 
ATOM     29  O   UNL     1       8.194   6.581  18.870  0.00  0.00    +0.000 OA
ATOM     30  H   UNL     1       6.526   8.391  16.869  0.00  0.00    +0.000 HD
ENDBRANCH   1  28
TORSDOF 5
ENDMDL
MODEL 8
REMARK VINA RESULT:      -7.8      3.553      8.865
REMARK  Name = 
REMARK  8 active torsions:
REMARK  status: ('A' for Active; 'I' for Inactive)
REMARK    1  A    between atoms: C_1  and  N_2
REMARK    2  A    between atoms: C_3  and  C_5
REMARK    3  A    between atoms: N_11  and  C_12
REMARK    4  A    between atoms: C_16  and  C_17
REMARK    5  A    between atoms: C_17  and  C_18
REMARK    6  A    between atoms: C_17  and  S_19
REMARK    7  A    between atoms: S_19  and  C_20
REMARK    8  A    between atoms: N_24  and  C_25
REMARK                            x       y       z     vdW  Elec       q    Type
REMARK                         _______ _______ _______ _____ _____    ______ ____
ROOT
ATOM      1  C   UNL     1       4.774   4.774  16.955  0.00  0.00    +0.000 A 
ATOM      2  C   UNL     1       4.850   3.415  17.254  0.00  0.00    +0.000 A 
ATOM      3  C   UNL     1       4.183   2.925  18.376  0.00  0.00    +0.000 A 
ATOM      4  C   UNL     1       3.412   3.789  19.176  0.00  0.00    +0.000 A 
ATOM      5  C   UNL     1       3.298   5.143  18.880  0.00  0.00    +0.000 A 
ATOM      6  C   UNL     1       4.043   5.628  17.793  0.00  0.00    +0.000 A 
ATOM      7  N   UNL     1       2.470   5.970  19.691  0.00  0.00    +0.000 N 
ATOM      8  N   UNL     1       1.874   5.487  20.832  0.00  0.00    +0.000 NA
ATOM      9  N   UNL     1       1.955   4.283  21.144  0.00  0.00    +0.000 NA
ATOM     10  C   UNL     1       2.718   3.289  20.394  0.00  0.00    +0.000 C 
ENDROOT
BRANCH   7  11
ATOM     11  C   UNL     1       2.079   7.320  19.406  0.00  0.00    +0.000 A 
ATOM     12  C   UNL     1       2.382   7.939  18.181  0.00  0.00    +0.000 A 
ATOM     13  C   UNL     1       2.030   9.265  17.928  0.00  0.00    +0.000 A 
ATOM     14  C   UNL     1       1.313   9.995  18.876  0.00  0.00    +0.000 A 
ATOM     15  C   UNL     1       0.941   9.409  20.096  0.00  0.00    +0.000 A 
ATOM     16  C   UNL     1       1.335   8.076  20.341  0.00  0.00    +0.000 A 
BRANCH  15  17
ATOM     17  C   UNL     1       0.095  10.199  21.095  0.00  0.00    +0.000 C 
ATOM     18  C   UNL     1       0.337   9.683  22.519  0.00  0.00    +0.000 C 
BRANCH  17  19
ATOM     19  S   UNL     1       0.433  12.004  20.968  0.00  0.00    +0.000 S 
BRANCH  19  20
ATOM     20  C   UNL     1      -0.934  12.686  21.780  0.00  0.00    +0.000 A 
ATOM     21  N   UNL     1      -0.975  13.150  23.009  0.00  0.00    +0.000 NA
ATOM     22  N   UNL     1      -2.245  13.639  23.233  0.00  0.00    +0.000 NA
ATOM     23  C   UNL     1      -2.943  13.450  22.139  0.00  0.00    +0.000 A 
ATOM     24  N   UNL     1      -2.163  12.834  21.202  0.00  0.00    +0.000 N 
ATOM     25  C   UNL     1      -2.587  12.458  19.879  0.00  0.00    +0.000 C 
ENDBRANCH  19  20
ENDBRANCH  17  19
ENDBRANCH  15  17
ENDBRANCH   7  11
BRANCH   1  28
ATOM     26  C   UNL     1       6.989   5.051  13.902  0.00  0.00    +0.000 C 
ATOM     27  N   UNL     1       6.340   4.566  15.094  0.00  0.00    +0.000 N 
ATOM     28  C   UNL     1       5.457   5.377  15.778  0.00  0.00    +0.000 C 
ATOM     29  O   UNL     1       5.193   6.522  15.431  0.00  0.00    +0.000 OA
ATOM     30  H   UNL     1       6.350   3.572  15.278  0.00  0.00    +0.000 HD
ENDBRANCH   1  28
TORSDOF 5
ENDMDL
MODEL 9
REMARK VINA RESULT:      -7.8      3.624      8.961
REMARK  Name = 
REMARK  8 active torsions:
REMARK  status: ('A' for Active; 'I' for Inactive)
REMARK    1  A    between atoms: C_1  and  N_2
REMARK    2  A    between atoms: C_3  and  C_5
REMARK    3  A    between atoms: N_11  and  C_12
REMARK    4  A    between atoms: C_16  and  C_17
REMARK    5  A    between atoms: C_17  and  C_18
REMARK    6  A    between atoms: C_17  and  S_19
REMARK    7  A    between atoms: S_19  and  C_20
REMARK    8  A    between atoms: N_24  and  C_25
REMARK                            x       y       z     vdW  Elec       q    Type
REMARK                         _______ _______ _______ _____ _____    ______ ____
ROOT
ATOM      1  C   UNL     1       4.759   4.778  16.935  0.00  0.00    +0.000 A 
ATOM      2  C   UNL     1       4.832   3.425  17.259  0.00  0.00    +0.000 A 
ATOM      3  C   UNL     1       4.163   2.958  18.390  0.00  0.00    +0.000 A 
ATOM      4  C   UNL     1       3.394   3.838  19.173  0.00  0.00    +0.000 A 
ATOM      5  C   UNL     1       3.284   5.186  18.852  0.00  0.00    +0.000 A 
ATOM      6  C   UNL     1       4.031   5.649  17.756  0.00  0.00    +0.000 A 
ATOM      7  N   UNL     1       2.458   6.030  19.647  0.00  0.00    +0.000 N 
ATOM      8  N   UNL     1       1.860   5.570  20.796  0.00  0.00    +0.000 NA
ATOM      9  N   UNL     1       1.937   4.372  21.131  0.00  0.00    +0.000 NA
ATOM     10  C   UNL     1       2.698   3.363  20.399  0.00  0.00    +0.000 C 
ENDROOT
BRANCH   7  11
ATOM     11  C   UNL     1       2.070   7.376  19.337  0.00  0.00    +0.000 A 
ATOM     12  C   UNL     1       2.442   7.998  18.133  0.00  0.00    +0.000 A 
ATOM     13  C   UNL     1       2.092   9.321  17.858  0.00  0.00    +0.000 A 
ATOM     14  C   UNL     1       1.309  10.042  18.757  0.00  0.00    +0.000 A 
ATOM     15  C   UNL     1       0.868   9.453  19.952  0.00  0.00    +0.000 A 
ATOM     16  C   UNL     1       1.260   8.124  20.222  0.00  0.00    +0.000 A 
BRANCH  15  17
ATOM     17  C   UNL     1      -0.048  10.233  20.896  0.00  0.00    +0.000 C 
ATOM     18  C   UNL     1       0.304   9.920  22.355  0.00  0.00    +0.000 C 
BRANCH  17  19
ATOM     19  S   UNL     1       0.036  12.040  20.556  0.00  0.00    +0.000 S 
BRANCH  19  20
ATOM     20  C   UNL     1      -1.603  12.533  20.813  0.00  0.00    +0.000 A 
ATOM     21  N   UNL     1      -2.588  12.490  19.945  0.00  0.00    +0.000 NA
ATOM     22  N   UNL     1      -3.729  12.934  20.580  0.00  0.00    +0.000 NA
ATOM     23  C   UNL     1      -3.404  13.243  21.812  0.00  0.00    +0.000 A 
ATOM     24  N   UNL     1      -2.068  13.024  21.999  0.00  0.00    +0.000 N 
ATOM     25  C   UNL     1      -1.348  13.257  23.223  0.00  0.00    +0.000 C 
ENDBRANCH  19  20
ENDBRANCH  17  19
ENDBRANCH  15  17
ENDBRANCH   7  11
BRANCH   1  28
ATOM     26  C   UNL     1       6.990   4.998  13.889  0.00  0.00    +0.000 C 
ATOM     27  N   UNL     1       6.338   4.537  15.089  0.00  0.00    +0.000 N 
ATOM     28  C   UNL     1       5.445   5.357  15.747  0.00  0.00    +0.000 C 
ATOM     29  O   UNL     1       5.174   6.491  15.370  0.00  0.00    +0.000 OA
ATOM     30  H   UNL     1       6.355   3.548  15.297  0.00  0.00    +0.000 HD
ENDBRANCH   1  28
TORSDOF 5
ENDMDL
