MODEL 1
REMARK VINA RESULT:      -8.3      0.000      0.000
REMARK  Name = 
REMARK  6 active torsions:
REMARK  status: ('A' for Active; 'I' for Inactive)
REMARK    1  A    between atoms: C_1  and  N_2
REMARK    2  A    between atoms: C_6  and  C_7
REMARK    3  A    between atoms: C_7  and  C_8
REMARK    4  A    between atoms: C_8  and  C_9
REMARK    5  A    between atoms: C_13  and  N_14
REMARK    6  A    between atoms: C_18  and  C_19
REMARK                            x       y       z     vdW  Elec       q    Type
REMARK                         _______ _______ _______ _____ _____    ______ ____
ROOT
ATOM      1  C   UNL     1       5.264   5.869  18.206  0.00  0.00    +0.000 A 
ATOM      2  C   UNL     1       4.581   7.047  17.839  0.00  0.00    +0.000 A 
ATOM      3  C   UNL     1       3.189   7.109  17.799  0.00  0.00    +0.000 A 
ATOM      4  C   UNL     1       2.437   5.982  18.110  0.00  0.00    +0.000 A 
ATOM      5  C   UNL     1       3.067   4.805  18.522  0.00  0.00    +0.000 A 
ATOM      6  C   UNL     1       4.466   4.768  18.587  0.00  0.00    +0.000 A 
ENDROOT
BRANCH   5   7
ATOM      7  N   UNL     1       2.284   3.684  18.772  0.00  0.00    +0.000 N 
ATOM      8  C   UNL     1       2.072   2.615  17.967  0.00  0.00    +0.000 C 
ATOM      9  O   UNL     1       2.190   2.376  16.788  0.00  0.00    +0.000 OA
ATOM     10  C   UNL     1       1.800   1.831  19.179  0.00  0.00    +0.000 C 
ATOM     11  C   UNL     1       2.137   2.922  19.916  0.00  0.00    +0.000 C 
BRANCH  11  12
ATOM     12  C   UNL     1       2.204   3.176  21.422  0.00  0.00    +0.000 C 
ATOM     13  F   UNL     1       2.459   4.463  21.746  0.00  0.00    +0.000 F 
ATOM     14  F   UNL     1       1.042   2.810  22.023  0.00  0.00    +0.000 F 
ATOM     15  F   UNL     1       3.163   2.406  21.996  0.00  0.00    +0.000 F 
ENDBRANCH  11  12
ENDBRANCH   5   7
BRANCH   1  16
ATOM     16  C   UNL     1       6.864   5.759  18.124  0.00  0.00    +0.000 C 
ATOM     17  C   UNL     1       7.622   7.008  17.587  0.00  0.00    +0.000 C 
ATOM     18  O   UNL     1       8.344   7.182  18.820  0.00  0.00    +0.000 OA
ATOM     19  C   UNL     1       7.671   6.055  19.420  0.00  0.00    +0.000 C 
BRANCH  16  20
ATOM     20  C   UNL     1       7.271   4.501  17.330  0.00  0.00    +0.000 C 
BRANCH  20  26
ATOM     21  C   UNL     1       5.051   2.980  15.585  0.00  0.00    +0.000 C 
ATOM     22  N   UNL     1       6.036   3.931  15.144  0.00  0.00    +0.000 N 
ATOM     23  C   UNL     1       6.110   4.429  13.876  0.00  0.00    +0.000 A 
ATOM     24  N   UNL     1       7.129   5.246  13.783  0.00  0.00    +0.000 NA
ATOM     25  N   UNL     1       7.722   5.309  15.018  0.00  0.00    +0.000 NA
ATOM     26  C   UNL     1       7.044   4.544  15.852  0.00  0.00    +0.000 A 
ENDBRANCH  20  26
ENDBRANCH  16  20
ENDBRANCH   1  16
TORSDOF 5
ENDMDL
MODEL 2
REMARK VINA RESULT:      -8.3      1.868      2.120
REMARK  Name = 
REMARK  6 active torsions:
REMARK  status: ('A' for Active; 'I' for Inactive)
REMARK    1  A    between atoms: C_1  and  N_2
REMARK    2  A    between atoms: C_6  and  C_7
REMARK    3  A    between atoms: C_7  and  C_8
REMARK    4  A    between atoms: C_8  and  C_9
REMARK    5  A    between atoms: C_13  and  N_14
REMARK    6  A    between atoms: C_18  and  C_19
REMARK                            x       y       z     vdW  Elec       q    Type
REMARK                         _______ _______ _______ _____ _____    ______ ____
ROOT
ATOM      1  C   UNL     1       5.507   6.183  18.160  0.00  0.00    +0.000 A 
ATOM      2  C   UNL     1       4.818   6.999  17.240  0.00  0.00    +0.000 A 
ATOM      3  C   UNL     1       3.425   7.055  17.203  0.00  0.00    +0.000 A 
ATOM      4  C   UNL     1       2.678   6.277  18.081  0.00  0.00    +0.000 A 
ATOM      5  C   UNL     1       3.316   5.486  19.040  0.00  0.00    +0.000 A 
ATOM      6  C   UNL     1       4.715   5.465  19.085  0.00  0.00    +0.000 A 
ENDROOT
BRANCH   5   7
ATOM      7  N   UNL     1       2.536   4.682  19.864  0.00  0.00    +0.000 N 
ATOM      8  C   UNL     1       1.520   5.055  20.678  0.00  0.00    +0.000 C 
ATOM      9  O   UNL     1       1.141   6.087  21.182  0.00  0.00    +0.000 OA
ATOM     10  C   UNL     1       0.987   3.693  20.537  0.00  0.00    +0.000 C 
ATOM     11  C   UNL     1       1.978   3.437  19.644  0.00  0.00    +0.000 C 
BRANCH  11  12
ATOM     12  C   UNL     1       2.343   2.198  18.826  0.00  0.00    +0.000 C 
ATOM     13  F   UNL     1       3.648   1.855  18.911  0.00  0.00    +0.000 F 
ATOM     14  F   UNL     1       1.598   1.130  19.214  0.00  0.00    +0.000 F 
ATOM     15  F   UNL     1       2.047   2.385  17.515  0.00  0.00    +0.000 F 
ENDBRANCH  11  12
ENDBRANCH   5   7
BRANCH   1  16
ATOM     16  C   UNL     1       7.104   6.017  18.115  0.00  0.00    +0.000 C 
ATOM     17  C   UNL     1       7.914   7.225  17.560  0.00  0.00    +0.000 C 
ATOM     18  O   UNL     1       8.616   7.409  18.803  0.00  0.00    +0.000 OA
ATOM     19  C   UNL     1       7.894   6.323  19.419  0.00  0.00    +0.000 C 
BRANCH  16  20
ATOM     20  C   UNL     1       7.484   4.725  17.364  0.00  0.00    +0.000 C 
BRANCH  20  26
ATOM     21  C   UNL     1       4.863   3.354  16.123  0.00  0.00    +0.000 C 
ATOM     22  N   UNL     1       5.888   4.099  15.443  0.00  0.00    +0.000 N 
ATOM     23  C   UNL     1       5.843   4.438  14.122  0.00  0.00    +0.000 A 
ATOM     24  N   UNL     1       6.935   5.084  13.797  0.00  0.00    +0.000 NA
ATOM     25  N   UNL     1       7.700   5.199  14.929  0.00  0.00    +0.000 NA
ATOM     26  C   UNL     1       7.056   4.636  15.933  0.00  0.00    +0.000 A 
ENDBRANCH  20  26
ENDBRANCH  16  20
ENDBRANCH   1  16
TORSDOF 5
ENDMDL
MODEL 3
REMARK VINA RESULT:      -8.1      2.549      3.834
REMARK  Name = 
REMARK  6 active torsions:
REMARK  status: ('A' for Active; 'I' for Inactive)
REMARK    1  A    between atoms: C_1  and  N_2
REMARK    2  A    between atoms: C_6  and  C_7
REMARK    3  A    between atoms: C_7  and  C_8
REMARK    4  A    between atoms: C_8  and  C_9
REMARK    5  A    between atoms: C_13  and  N_14
REMARK    6  A    between atoms: C_18  and  C_19
REMARK                            x       y       z     vdW  Elec       q    Type
REMARK                         _______ _______ _______ _____ _____    ______ ____
ROOT
ATOM      1  C   UNL     1       4.789   5.723  16.740  0.00  0.00    +0.000 A 
ATOM      2  C   UNL     1       4.413   7.077  16.616  0.00  0.00    +0.000 A 
ATOM      3  C   UNL     1       3.442   7.650  17.436  0.00  0.00    +0.000 A 
ATOM      4  C   UNL     1       2.803   6.875  18.397  0.00  0.00    +0.000 A 
ATOM      5  C   UNL     1       3.172   5.540  18.588  0.00  0.00    +0.000 A 
ATOM      6  C   UNL     1       4.171   4.988  17.777  0.00  0.00    +0.000 A 
ENDROOT
BRANCH   5   7
ATOM      7  N   UNL     1       2.473   4.784  19.521  0.00  0.00    +0.000 N 
ATOM      8  C   UNL     1       1.667   5.221  20.518  0.00  0.00    +0.000 C 
ATOM      9  O   UNL     1       1.500   6.263  21.109  0.00  0.00    +0.000 OA
ATOM     10  C   UNL     1       0.974   3.928  20.445  0.00  0.00    +0.000 C 
ATOM     11  C   UNL     1       1.753   3.613  19.377  0.00  0.00    +0.000 C 
BRANCH  11  12
ATOM     12  C   UNL     1       1.828   2.381  18.475  0.00  0.00    +0.000 C 
ATOM     13  F   UNL     1       2.767   1.485  18.853  0.00  0.00    +0.000 F 
ATOM     14  F   UNL     1       0.629   1.743  18.432  0.00  0.00    +0.000 F 
ATOM     15  F   UNL     1       2.089   2.740  17.193  0.00  0.00    +0.000 F 
ENDBRANCH  11  12
ENDBRANCH   5   7
BRANCH   1  16
ATOM     16  C   UNL     1       5.809   5.031  15.711  0.00  0.00    +0.000 C 
ATOM     17  C   UNL     1       5.761   3.478  15.621  0.00  0.00    +0.000 C 
ATOM     18  O   UNL     1       5.390   3.504  14.231  0.00  0.00    +0.000 OA
ATOM     19  C   UNL     1       5.377   4.947  14.220  0.00  0.00    +0.000 C 
BRANCH  16  20
ATOM     20  C   UNL     1       7.250   5.509  15.987  0.00  0.00    +0.000 C 
BRANCH  20  26
ATOM     21  C   UNL     1       7.811   8.152  17.714  0.00  0.00    +0.000 C 
ATOM     22  N   UNL     1       7.814   6.782  18.152  0.00  0.00    +0.000 N 
ATOM     23  C   UNL     1       7.962   6.391  19.451  0.00  0.00    +0.000 A 
ATOM     24  N   UNL     1       7.952   5.084  19.519  0.00  0.00    +0.000 NA
ATOM     25  N   UNL     1       7.767   4.604  18.248  0.00  0.00    +0.000 NA
ATOM     26  C   UNL     1       7.648   5.627  17.423  0.00  0.00    +0.000 A 
ENDBRANCH  20  26
ENDBRANCH  16  20
ENDBRANCH   1  16
TORSDOF 5
ENDMDL
MODEL 4
REMARK VINA RESULT:      -8.0      2.543      3.717
REMARK  Name = 
REMARK  6 active torsions:
REMARK  status: ('A' for Active; 'I' for Inactive)
REMARK    1  A    between atoms: C_1  and  N_2
REMARK    2  A    between atoms: C_6  and  C_7
REMARK    3  A    between atoms: C_7  and  C_8
REMARK    4  A    between atoms: C_8  and  C_9
REMARK    5  A    between atoms: C_13  and  N_14
REMARK    6  A    between atoms: C_18  and  C_19
REMARK                            x       y       z     vdW  Elec       q    Type
REMARK                         _______ _______ _______ _____ _____    ______ ____
ROOT
ATOM      1  C   UNL     1       4.835   5.644  16.903  0.00  0.00    +0.000 A 
ATOM      2  C   UNL     1       4.393   6.960  16.657  0.00  0.00    +0.000 A 
ATOM      3  C   UNL     1       3.336   7.527  17.368  0.00  0.00    +0.000 A 
ATOM      4  C   UNL     1       2.676   6.781  18.338  0.00  0.00    +0.000 A 
ATOM      5  C   UNL     1       3.106   5.488  18.648  0.00  0.00    +0.000 A 
ATOM      6  C   UNL     1       4.189   4.944  17.947  0.00  0.00    +0.000 A 
ENDROOT
BRANCH   5   7
ATOM      7  N   UNL     1       2.387   4.755  19.585  0.00  0.00    +0.000 N 
ATOM      8  C   UNL     1       1.575   5.218  20.565  0.00  0.00    +0.000 C 
ATOM      9  O   UNL     1       1.412   6.271  21.136  0.00  0.00    +0.000 OA
ATOM     10  C   UNL     1       0.869   3.931  20.505  0.00  0.00    +0.000 C 
ATOM     11  C   UNL     1       1.657   3.589  19.453  0.00  0.00    +0.000 C 
BRANCH  11  12
ATOM     12  C   UNL     1       1.730   2.341  18.573  0.00  0.00    +0.000 C 
ATOM     13  F   UNL     1       2.624   1.424  19.003  0.00  0.00    +0.000 F 
ATOM     14  F   UNL     1       0.513   1.740  18.490  0.00  0.00    +0.000 F 
ATOM     15  F   UNL     1       2.053   2.672  17.298  0.00  0.00    +0.000 F 
ENDBRANCH  11  12
ENDBRANCH   5   7
BRANCH   1  16
ATOM     16  C   UNL     1       5.963   4.947  15.996  0.00  0.00    +0.000 C 
ATOM     17  C   UNL     1       5.690   3.480  15.551  0.00  0.00    +0.000 C 
ATOM     18  O   UNL     1       5.703   3.832  14.155  0.00  0.00    +0.000 OA
ATOM     19  C   UNL     1       5.925   5.223  14.466  0.00  0.00    +0.000 C 
BRANCH  16  20
ATOM     20  C   UNL     1       7.340   5.053  16.683  0.00  0.00    +0.000 C 
BRANCH  20  26
ATOM     21  C   UNL     1       7.867   5.555  19.806  0.00  0.00    +0.000 C 
ATOM     22  N   UNL     1       7.922   6.505  18.728  0.00  0.00    +0.000 N 
ATOM     23  C   UNL     1       8.326   7.801  18.865  0.00  0.00    +0.000 A 
ATOM     24  N   UNL     1       8.234   8.414  17.712  0.00  0.00    +0.000 NA
ATOM     25  N   UNL     1       7.788   7.500  16.792  0.00  0.00    +0.000 NA
ATOM     26  C   UNL     1       7.632   6.336  17.393  0.00  0.00    +0.000 A 
ENDBRANCH  20  26
ENDBRANCH  16  20
ENDBRANCH   1  16
TORSDOF 5
ENDMDL
MODEL 5
REMARK VINA RESULT:      -7.9      4.673      6.856
REMARK  Name = 
REMARK  6 active torsions:
REMARK  status: ('A' for Active; 'I' for Inactive)
REMARK    1  A    between atoms: C_1  and  N_2
REMARK    2  A    between atoms: C_6  and  C_7
REMARK    3  A    between atoms: C_7  and  C_8
REMARK    4  A    between atoms: C_8  and  C_9
REMARK    5  A    between atoms: C_13  and  N_14
REMARK    6  A    between atoms: C_18  and  C_19
REMARK                            x       y       z     vdW  Elec       q    Type
REMARK                         _______ _______ _______ _____ _____    ______ ____
ROOT
ATOM      1  C   UNL     1       2.587   7.325  18.696  0.00  0.00    +0.000 A 
ATOM      2  C   UNL     1       2.763   8.198  17.603  0.00  0.00    +0.000 A 
ATOM      3  C   UNL     1       2.201   9.474  17.580  0.00  0.00    +0.000 A 
ATOM      4  C   UNL     1       1.429   9.909  18.653  0.00  0.00    +0.000 A 
ATOM      5  C   UNL     1       1.264   9.097  19.778  0.00  0.00    +0.000 A 
ATOM      6  C   UNL     1       1.859   7.829  19.797  0.00  0.00    +0.000 A 
ENDROOT
BRANCH   5   7
ATOM      7  N   UNL     1       0.441   9.544  20.805  0.00  0.00    +0.000 N 
ATOM      8  C   UNL     1       0.740   9.674  22.120  0.00  0.00    +0.000 C 
ATOM      9  O   UNL     1       1.583   9.237  22.869  0.00  0.00    +0.000 OA
ATOM     10  C   UNL     1      -0.302  10.707  22.193  0.00  0.00    +0.000 C 
ATOM     11  C   UNL     1      -0.461  10.590  20.849  0.00  0.00    +0.000 C 
BRANCH  11  12
ATOM     12  C   UNL     1      -1.375  11.296  19.847  0.00  0.00    +0.000 C 
ATOM     13  F   UNL     1      -1.886  10.475  18.904  0.00  0.00    +0.000 F 
ATOM     14  F   UNL     1      -2.410  11.902  20.486  0.00  0.00    +0.000 F 
ATOM     15  F   UNL     1      -0.710  12.295  19.214  0.00  0.00    +0.000 F 
ENDBRANCH  11  12
ENDBRANCH   5   7
BRANCH   1  16
ATOM     16  C   UNL     1       3.121   5.811  18.664  0.00  0.00    +0.000 C 
ATOM     17  C   UNL     1       3.940   5.388  17.410  0.00  0.00    +0.000 C 
ATOM     18  O   UNL     1       5.114   5.101  18.193  0.00  0.00    +0.000 OA
ATOM     19  C   UNL     1       4.450   5.502  19.409  0.00  0.00    +0.000 C 
BRANCH  16  20
ATOM     20  C   UNL     1       1.953   4.830  18.899  0.00  0.00    +0.000 C 
BRANCH  20  26
ATOM     21  C   UNL     1       3.341   1.940  18.970  0.00  0.00    +0.000 C 
ATOM     22  N   UNL     1       2.764   2.680  20.060  0.00  0.00    +0.000 N 
ATOM     23  C   UNL     1       2.815   2.289  21.366  0.00  0.00    +0.000 A 
ATOM     24  N   UNL     1       2.174   3.156  22.109  0.00  0.00    +0.000 NA
ATOM     25  N   UNL     1       1.716   4.150  21.283  0.00  0.00    +0.000 NA
ATOM     26  C   UNL     1       2.100   3.885  20.049  0.00  0.00    +0.000 A 
ENDBRANCH  20  26
ENDBRANCH  16  20
ENDBRANCH   1  16
TORSDOF 5
ENDMDL
MODEL 6
REMARK VINA RESULT:      -7.8      2.032      3.255
REMARK  Name = 
REMARK  6 active torsions:
REMARK  status: ('A' for Active; 'I' for Inactive)
REMARK    1  A    between atoms: C_1  and  N_2
REMARK    2  A    between atoms: C_6  and  C_7
REMARK    3  A    between atoms: C_7  and  C_8
REMARK    4  A    between atoms: C_8  and  C_9
REMARK    5  A    between atoms: C_13  and  N_14
REMARK    6  A    between atoms: C_18  and  C_19
REMARK                            x       y       z     vdW  Elec       q    Type
REMARK                         _______ _______ _______ _____ _____    ______ ____
ROOT
ATOM      1  C   UNL     1       4.823   5.407  16.527  0.00  0.00    +0.000 A 
ATOM      2  C   UNL     1       4.478   6.735  16.855  0.00  0.00    +0.000 A 
ATOM      3  C   UNL     1       3.397   7.033  17.683  0.00  0.00    +0.000 A 
ATOM      4  C   UNL     1       2.615   6.003  18.196  0.00  0.00    +0.000 A 
ATOM      5  C   UNL     1       2.943   4.670  17.935  0.00  0.00    +0.000 A 
ATOM      6  C   UNL     1       4.050   4.387  17.126  0.00  0.00    +0.000 A 
ENDROOT
BRANCH   5   7
ATOM      7  N   UNL     1       2.105   3.672  18.420  0.00  0.00    +0.000 N 
ATOM      8  C   UNL     1       1.993   2.393  17.990  0.00  0.00    +0.000 C 
ATOM      9  O   UNL     1       2.283   1.782  16.988  0.00  0.00    +0.000 OA
ATOM     10  C   UNL     1       1.523   2.045  19.337  0.00  0.00    +0.000 C 
ATOM     11  C   UNL     1       1.769   3.326  19.715  0.00  0.00    +0.000 C 
BRANCH  11  12
ATOM     12  C   UNL     1       1.614   4.064  21.045  0.00  0.00    +0.000 C 
ATOM     13  F   UNL     1       2.769   4.579  21.520  0.00  0.00    +0.000 F 
ATOM     14  F   UNL     1       0.715   5.077  20.929  0.00  0.00    +0.000 F 
ATOM     15  F   UNL     1       1.104   3.240  21.994  0.00  0.00    +0.000 F 
ENDBRANCH  11  12
ENDBRANCH   5   7
BRANCH   1  16
ATOM     16  C   UNL     1       5.984   5.071  15.470  0.00  0.00    +0.000 C 
ATOM     17  C   UNL     1       6.256   3.564  15.189  0.00  0.00    +0.000 C 
ATOM     18  O   UNL     1       5.916   3.695  13.797  0.00  0.00    +0.000 OA
ATOM     19  C   UNL     1       5.609   5.095  13.961  0.00  0.00    +0.000 C 
BRANCH  16  20
ATOM     20  C   UNL     1       7.291   5.789  15.868  0.00  0.00    +0.000 C 
BRANCH  20  26
ATOM     21  C   UNL     1       7.883   8.246  17.841  0.00  0.00    +0.000 C 
ATOM     22  N   UNL     1       7.828   6.843  18.154  0.00  0.00    +0.000 N 
ATOM     23  C   UNL     1       7.923   6.332  19.416  0.00  0.00    +0.000 A 
ATOM     24  N   UNL     1       7.869   5.025  19.365  0.00  0.00    +0.000 NA
ATOM     25  N   UNL     1       7.709   4.667  18.051  0.00  0.00    +0.000 NA
ATOM     26  C   UNL     1       7.648   5.763  17.319  0.00  0.00    +0.000 A 
ENDBRANCH  20  26
ENDBRANCH  16  20
ENDBRANCH   1  16
TORSDOF 5
ENDMDL
MODEL 7
REMARK VINA RESULT:      -7.6      0.948      1.553
REMARK  Name = 
REMARK  6 active torsions:
REMARK  status: ('A' for Active; 'I' for Inactive)
REMARK    1  A    between atoms: C_1  and  N_2
REMARK    2  A    between atoms: C_6  and  C_7
REMARK    3  A    between atoms: C_7  and  C_8
REMARK    4  A    between atoms: C_8  and  C_9
REMARK    5  A    between atoms: C_13  and  N_14
REMARK    6  A    between atoms: C_18  and  C_19
REMARK                            x       y       z     vdW  Elec       q    Type
REMARK                         _______ _______ _______ _____ _____    ______ ____
ROOT
ATOM      1  C   UNL     1       4.996   5.844  17.731  0.00  0.00    +0.000 A 
ATOM      2  C   UNL     1       4.287   7.063  17.715  0.00  0.00    +0.000 A 
ATOM      3  C   UNL     1       2.933   7.133  18.040  0.00  0.00    +0.000 A 
ATOM      4  C   UNL     1       2.242   5.974  18.376  0.00  0.00    +0.000 A 
ATOM      5  C   UNL     1       2.912   4.749  18.449  0.00  0.00    +0.000 A 
ATOM      6  C   UNL     1       4.279   4.701  18.150  0.00  0.00    +0.000 A 
ENDROOT
BRANCH   5   7
ATOM      7  N   UNL     1       2.176   3.605  18.736  0.00  0.00    +0.000 N 
ATOM      8  C   UNL     1       2.029   2.493  17.977  0.00  0.00    +0.000 C 
ATOM      9  O   UNL     1       2.182   2.208  16.812  0.00  0.00    +0.000 OA
ATOM     10  C   UNL     1       1.769   1.753  19.218  0.00  0.00    +0.000 C 
ATOM     11  C   UNL     1       2.040   2.890  19.910  0.00  0.00    +0.000 C 
BRANCH  11  12
ATOM     12  C   UNL     1       2.065   3.214  21.404  0.00  0.00    +0.000 C 
ATOM     13  F   UNL     1       2.255   4.524  21.673  0.00  0.00    +0.000 F 
ATOM     14  F   UNL     1       0.908   2.822  22.000  0.00  0.00    +0.000 F 
ATOM     15  F   UNL     1       3.045   2.515  22.030  0.00  0.00    +0.000 F 
ENDBRANCH  11  12
ENDBRANCH   5   7
BRANCH   1  16
ATOM     16  C   UNL     1       6.519   5.744  17.229  0.00  0.00    +0.000 C 
ATOM     17  C   UNL     1       7.593   6.430  18.123  0.00  0.00    +0.000 C 
ATOM     18  O   UNL     1       8.273   5.186  18.373  0.00  0.00    +0.000 OA
ATOM     19  C   UNL     1       7.309   4.454  17.588  0.00  0.00    +0.000 C 
BRANCH  16  20
ATOM     20  C   UNL     1       6.633   6.241  15.773  0.00  0.00    +0.000 C 
BRANCH  20  26
ATOM     21  C   UNL     1       8.283   5.572  13.106  0.00  0.00    +0.000 C 
ATOM     22  N   UNL     1       7.094   4.933  13.605  0.00  0.00    +0.000 N 
ATOM     23  C   UNL     1       6.523   3.828  13.044  0.00  0.00    +0.000 A 
ATOM     24  N   UNL     1       5.441   3.509  13.708  0.00  0.00    +0.000 NA
ATOM     25  N   UNL     1       5.310   4.402  14.741  0.00  0.00    +0.000 NA
ATOM     26  C   UNL     1       6.326   5.243  14.703  0.00  0.00    +0.000 A 
ENDBRANCH  20  26
ENDBRANCH  16  20
ENDBRANCH   1  16
TORSDOF 5
ENDMDL
MODEL 8
REMARK VINA RESULT:      -7.6      0.604      1.392
REMARK  Name = 
REMARK  6 active torsions:
REMARK  status: ('A' for Active; 'I' for Inactive)
REMARK    1  A    between atoms: C_1  and  N_2
REMARK    2  A    between atoms: C_6  and  C_7
REMARK    3  A    between atoms: C_7  and  C_8
REMARK    4  A    between atoms: C_8  and  C_9
REMARK    5  A    between atoms: C_13  and  N_14
REMARK    6  A    between atoms: C_18  and  C_19
REMARK                            x       y       z     vdW  Elec       q    Type
REMARK                         _______ _______ _______ _____ _____    ______ ____
ROOT
ATOM      1  C   UNL     1       5.210   5.836  18.082  0.00  0.00    +0.000 A 
ATOM      2  C   UNL     1       4.495   7.019  17.804  0.00  0.00    +0.000 A 
ATOM      3  C   UNL     1       3.102   7.066  17.845  0.00  0.00    +0.000 A 
ATOM      4  C   UNL     1       2.380   5.918  18.152  0.00  0.00    +0.000 A 
ATOM      5  C   UNL     1       3.044   4.733  18.478  0.00  0.00    +0.000 A 
ATOM      6  C   UNL     1       4.445   4.710  18.462  0.00  0.00    +0.000 A 
ENDROOT
BRANCH   5   7
ATOM      7  N   UNL     1       2.288   3.593  18.726  0.00  0.00    +0.000 N 
ATOM      8  C   UNL     1       2.154   2.493  17.948  0.00  0.00    +0.000 C 
ATOM      9  O   UNL     1       2.341   2.221  16.785  0.00  0.00    +0.000 OA
ATOM     10  C   UNL     1       1.846   1.739  19.170  0.00  0.00    +0.000 C 
ATOM     11  C   UNL     1       2.107   2.864  19.886  0.00  0.00    +0.000 C 
BRANCH  11  12
ATOM     12  C   UNL     1       2.088   3.169  21.384  0.00  0.00    +0.000 C 
ATOM     13  F   UNL     1       0.918   2.862  21.987  0.00  0.00    +0.000 F 
ATOM     14  F   UNL     1       3.083   2.499  22.023  0.00  0.00    +0.000 F 
ATOM     15  F   UNL     1       2.339   4.483  21.609  0.00  0.00    +0.000 F 
ENDBRANCH  11  12
ENDBRANCH   5   7
BRANCH   1  16
ATOM     16  C   UNL     1       6.803   5.748  17.904  0.00  0.00    +0.000 C 
ATOM     17  C   UNL     1       7.520   7.034  17.400  0.00  0.00    +0.000 C 
ATOM     18  O   UNL     1       8.309   7.144  18.599  0.00  0.00    +0.000 OA
ATOM     19  C   UNL     1       7.680   5.977  19.168  0.00  0.00    +0.000 C 
BRANCH  16  20
ATOM     20  C   UNL     1       7.174   4.542  17.016  0.00  0.00    +0.000 C 
BRANCH  20  26
ATOM     21  C   UNL     1       8.277   5.520  14.168  0.00  0.00    +0.000 C 
ATOM     22  N   UNL     1       7.044   4.840  14.462  0.00  0.00    +0.000 N 
ATOM     23  C   UNL     1       6.166   4.398  13.516  0.00  0.00    +0.000 A 
ATOM     24  N   UNL     1       5.130   3.851  14.101  0.00  0.00    +0.000 NA
ATOM     25  N   UNL     1       5.341   3.908  15.455  0.00  0.00    +0.000 NA
ATOM     26  C   UNL     1       6.512   4.473  15.677  0.00  0.00    +0.000 A 
ENDBRANCH  20  26
ENDBRANCH  16  20
ENDBRANCH   1  16
TORSDOF 5
ENDMDL
MODEL 9
REMARK VINA RESULT:      -7.5      4.353      6.261
REMARK  Name = 
REMARK  6 active torsions:
REMARK  status: ('A' for Active; 'I' for Inactive)
REMARK    1  A    between atoms: C_1  and  N_2
REMARK    2  A    between atoms: C_6  and  C_7
REMARK    3  A    between atoms: C_7  and  C_8
REMARK    4  A    between atoms: C_8  and  C_9
REMARK    5  A    between atoms: C_13  and  N_14
REMARK    6  A    between atoms: C_18  and  C_19
REMARK                            x       y       z     vdW  Elec       q    Type
REMARK                         _______ _______ _______ _____ _____    ______ ____
ROOT
ATOM      1  C   UNL     1       2.324   6.232  19.273  0.00  0.00    +0.000 A 
ATOM      2  C   UNL     1       2.825   6.824  18.096  0.00  0.00    +0.000 A 
ATOM      3  C   UNL     1       2.631   8.175  17.810  0.00  0.00    +0.000 A 
ATOM      4  C   UNL     1       1.910   8.972  18.693  0.00  0.00    +0.000 A 
ATOM      5  C   UNL     1       1.432   8.441  19.894  0.00  0.00    +0.000 A 
ATOM      6  C   UNL     1       1.662   7.089  20.181  0.00  0.00    +0.000 A 
ENDROOT
BRANCH   5   7
ATOM      7  N   UNL     1       0.671   9.255  20.724  0.00  0.00    +0.000 N 
ATOM      8  C   UNL     1       0.995   9.740  21.947  0.00  0.00    +0.000 C 
ATOM      9  O   UNL     1       1.797   9.463  22.809  0.00  0.00    +0.000 OA
ATOM     10  C   UNL     1       0.066  10.847  21.688  0.00  0.00    +0.000 C 
ATOM     11  C   UNL     1      -0.119  10.352  20.436  0.00  0.00    +0.000 C 
BRANCH  11  12
ATOM     12  C   UNL     1      -0.966  10.815  19.251  0.00  0.00    +0.000 C 
ATOM     13  F   UNL     1      -0.277  11.529  18.335  0.00  0.00    +0.000 F 
ATOM     14  F   UNL     1      -1.532   9.752  18.621  0.00  0.00    +0.000 F 
ATOM     15  F   UNL     1      -2.007  11.576  19.675  0.00  0.00    +0.000 F 
ENDBRANCH  11  12
ENDBRANCH   5   7
BRANCH   1  16
ATOM     16  C   UNL     1       2.433   4.651  19.538  0.00  0.00    +0.000 C 
ATOM     17  C   UNL     1       1.648   4.094  20.761  0.00  0.00    +0.000 C 
ATOM     18  O   UNL     1       0.832   3.245  19.934  0.00  0.00    +0.000 OA
ATOM     19  C   UNL     1       1.478   3.722  18.736  0.00  0.00    +0.000 C 
BRANCH  16  20
ATOM     20  C   UNL     1       3.914   4.224  19.609  0.00  0.00    +0.000 C 
BRANCH  20  26
ATOM     21  C   UNL     1       6.766   5.578  19.047  0.00  0.00    +0.000 C 
ATOM     22  N   UNL     1       5.943   4.821  18.142  0.00  0.00    +0.000 N 
ATOM     23  C   UNL     1       6.318   4.461  16.881  0.00  0.00    +0.000 A 
ATOM     24  N   UNL     1       5.342   3.808  16.302  0.00  0.00    +0.000 NA
ATOM     25  N   UNL     1       4.316   3.711  17.206  0.00  0.00    +0.000 NA
ATOM     26  C   UNL     1       4.688   4.290  18.331  0.00  0.00    +0.000 A 
ENDBRANCH  20  26
ENDBRANCH  16  20
ENDBRANCH   1  16
TORSDOF 5
ENDMDL
