MODEL 1
REMARK VINA RESULT:      -8.7      0.000      0.000
REMARK  Name = 
REMARK  4 active torsions:
REMARK  status: ('A' for Active; 'I' for Inactive)
REMARK    1  A    between atoms: C_1  and  N_2
REMARK    2  A    between atoms: C_9  and  N_10
REMARK    3  A    between atoms: C_11  and  C_13
REMARK    4  A    between atoms: C_15  and  C_16
REMARK                            x       y       z     vdW  Elec       q    Type
REMARK                         _______ _______ _______ _____ _____    ______ ____
ROOT
ATOM      1  N   UNL     1       1.502   7.782  20.721  0.00  0.00    +0.000 N 
ATOM      2  C   UNL     1       1.041   9.029  20.323  0.00  0.00    +0.000 C 
ATOM      3  O   UNL     1       1.108   9.473  19.182  0.00  0.00    +0.000 OA
ATOM      4  H   UNL     1       1.272   7.502  21.668  0.00  0.00    +0.000 HD
ENDROOT
BRANCH   1  13
ATOM      5  C   UNL     1       3.748   2.474  17.664  0.00  0.00    +0.000 C 
ATOM      6  N   UNL     1       4.130   3.873  17.569  0.00  0.00    +0.000 N 
ATOM      7  C   UNL     1       5.134   4.226  16.667  0.00  0.00    +0.000 C 
ATOM      8  O   UNL     1       5.718   3.414  15.946  0.00  0.00    +0.000 OA
ATOM      9  C   UNL     1       5.578   5.670  16.684  0.00  0.00    +0.000 C 
ATOM     10  C   UNL     1       4.399   6.599  16.848  0.00  0.00    +0.000 C 
ATOM     11  C   UNL     1       3.615   6.200  18.064  0.00  0.00    +0.000 A 
ATOM     12  C   UNL     1       2.964   7.182  18.826  0.00  0.00    +0.000 A 
ATOM     13  C   UNL     1       2.172   6.836  19.918  0.00  0.00    +0.000 A 
ATOM     14  C   UNL     1       2.034   5.483  20.242  0.00  0.00    +0.000 A 
ATOM     15  C   UNL     1       2.656   4.495  19.465  0.00  0.00    +0.000 A 
ATOM     16  C   UNL     1       3.465   4.843  18.376  0.00  0.00    +0.000 A 
ENDBRANCH   1  13
BRANCH   2  17
ATOM     17  C   UNL     1       0.398   9.784  21.371  0.00  0.00    +0.000 A 
ATOM     18  C   UNL     1      -0.335  10.946  21.321  0.00  0.00    +0.000 A 
ATOM     19  C   UNL     1      -0.756  11.175  22.655  0.00  0.00    +0.000 A 
ATOM     20  N   UNL     1      -0.251  10.230  23.466  0.00  0.00    +0.000 NA
ATOM     21  O   UNL     1       0.456   9.359  22.660  0.00  0.00    +0.000 OA
BRANCH  19  22
ATOM     22  C   UNL     1      -1.627  12.239  23.148  0.00  0.00    +0.000 A 
ATOM     23  C   UNL     1      -2.949  11.960  23.524  0.00  0.00    +0.000 A 
ATOM     24  C   UNL     1      -3.773  12.971  24.026  0.00  0.00    +0.000 A 
ATOM     25  C   UNL     1      -3.285  14.269  24.152  0.00  0.00    +0.000 A 
ATOM     26  C   UNL     1      -1.975  14.560  23.774  0.00  0.00    +0.000 A 
ATOM     27  C   UNL     1      -1.148  13.551  23.277  0.00  0.00    +0.000 A 
ENDBRANCH  19  22
ENDBRANCH   2  17
TORSDOF 3
ENDMDL
MODEL 2
REMARK VINA RESULT:      -8.7      1.458      2.547
REMARK  Name = 
REMARK  4 active torsions:
REMARK  status: ('A' for Active; 'I' for Inactive)
REMARK    1  A    between atoms: C_1  and  N_2
REMARK    2  A    between atoms: C_9  and  N_10
REMARK    3  A    between atoms: C_11  and  C_13
REMARK    4  A    between atoms: C_15  and  C_16
REMARK                            x       y       z     vdW  Elec       q    Type
REMARK                         _______ _______ _______ _____ _____    ______ ____
ROOT
ATOM      1  N   UNL     1       1.352   8.462  20.650  0.00  0.00    +0.000 N 
ATOM      2  C   UNL     1       0.855   9.539  19.927  0.00  0.00    +0.000 C 
ATOM      3  O   UNL     1       0.731   9.570  18.707  0.00  0.00    +0.000 OA
ATOM      4  H   UNL     1       1.285   8.532  21.658  0.00  0.00    +0.000 HD
ENDROOT
BRANCH   1  13
ATOM      5  C   UNL     1       4.479   3.736  17.417  0.00  0.00    +0.000 C 
ATOM      6  N   UNL     1       3.437   3.683  18.428  0.00  0.00    +0.000 N 
ATOM      7  C   UNL     1       2.987   2.432  18.852  0.00  0.00    +0.000 C 
ATOM      8  O   UNL     1       3.426   1.367  18.413  0.00  0.00    +0.000 OA
ATOM      9  C   UNL     1       1.826   2.425  19.817  0.00  0.00    +0.000 C 
ATOM     10  C   UNL     1       1.964   3.524  20.842  0.00  0.00    +0.000 C 
ATOM     11  C   UNL     1       2.151   4.839  20.142  0.00  0.00    +0.000 A 
ATOM     12  C   UNL     1       1.635   6.012  20.713  0.00  0.00    +0.000 A 
ATOM     13  C   UNL     1       1.853   7.254  20.123  0.00  0.00    +0.000 A 
ATOM     14  C   UNL     1       2.603   7.312  18.944  0.00  0.00    +0.000 A 
ATOM     15  C   UNL     1       3.148   6.146  18.385  0.00  0.00    +0.000 A 
ATOM     16  C   UNL     1       2.916   4.895  18.970  0.00  0.00    +0.000 A 
ENDBRANCH   1  13
BRANCH   2  17
ATOM     17  C   UNL     1       0.420  10.647  20.741  0.00  0.00    +0.000 A 
ATOM     18  C   UNL     1      -0.777  10.881  21.375  0.00  0.00    +0.000 A 
ATOM     19  C   UNL     1      -0.595  12.104  22.068  0.00  0.00    +0.000 A 
ATOM     20  N   UNL     1       0.626  12.601  21.812  0.00  0.00    +0.000 NA
ATOM     21  O   UNL     1       1.260  11.685  20.996  0.00  0.00    +0.000 OA
BRANCH  19  22
ATOM     22  C   UNL     1      -1.537  12.774  22.963  0.00  0.00    +0.000 A 
ATOM     23  C   UNL     1      -1.217  14.015  23.533  0.00  0.00    +0.000 A 
ATOM     24  C   UNL     1      -2.130  14.672  24.362  0.00  0.00    +0.000 A 
ATOM     25  C   UNL     1      -3.366  14.092  24.634  0.00  0.00    +0.000 A 
ATOM     26  C   UNL     1      -3.692  12.855  24.080  0.00  0.00    +0.000 A 
ATOM     27  C   UNL     1      -2.783  12.199  23.246  0.00  0.00    +0.000 A 
ENDBRANCH  19  22
ENDBRANCH   2  17
TORSDOF 3
ENDMDL
MODEL 3
REMARK VINA RESULT:      -8.6      2.649     10.534
REMARK  Name = 
REMARK  4 active torsions:
REMARK  status: ('A' for Active; 'I' for Inactive)
REMARK    1  A    between atoms: C_1  and  N_2
REMARK    2  A    between atoms: C_9  and  N_10
REMARK    3  A    between atoms: C_11  and  C_13
REMARK    4  A    between atoms: C_15  and  C_16
REMARK                            x       y       z     vdW  Elec       q    Type
REMARK                         _______ _______ _______ _____ _____    ______ ____
ROOT
ATOM      1  N   UNL     1       3.136   7.298  17.983  0.00  0.00    +0.000 N 
ATOM      2  C   UNL     1       3.837   6.215  18.498  0.00  0.00    +0.000 C 
ATOM      3  O   UNL     1       3.749   5.804  19.650  0.00  0.00    +0.000 OA
ATOM      4  H   UNL     1       3.219   7.449  16.984  0.00  0.00    +0.000 HD
ENDROOT
BRANCH   1  13
ATOM      5  C   UNL     1      -1.145  11.804  19.964  0.00  0.00    +0.000 C 
ATOM      6  N   UNL     1      -0.416  10.781  20.697  0.00  0.00    +0.000 N 
ATOM      7  C   UNL     1      -0.636  10.666  22.069  0.00  0.00    +0.000 C 
ATOM      8  O   UNL     1      -1.414  11.387  22.698  0.00  0.00    +0.000 OA
ATOM      9  C   UNL     1       0.226   9.669  22.808  0.00  0.00    +0.000 C 
ATOM     10  C   UNL     1       0.411   8.407  22.000  0.00  0.00    +0.000 C 
ATOM     11  C   UNL     1       0.936   8.758  20.639  0.00  0.00    +0.000 A 
ATOM     12  C   UNL     1       1.807   7.878  19.979  0.00  0.00    +0.000 A 
ATOM     13  C   UNL     1       2.256   8.143  18.688  0.00  0.00    +0.000 A 
ATOM     14  C   UNL     1       1.816   9.309  18.054  0.00  0.00    +0.000 A 
ATOM     15  C   UNL     1       0.920  10.177  18.696  0.00  0.00    +0.000 A 
ATOM     16  C   UNL     1       0.481   9.919  20.000  0.00  0.00    +0.000 A 
ENDBRANCH   1  13
BRANCH   2  17
ATOM     17  C   UNL     1       4.672   5.540  17.536  0.00  0.00    +0.000 A 
ATOM     18  C   UNL     1       4.723   5.636  16.166  0.00  0.00    +0.000 A 
ATOM     19  C   UNL     1       5.779   4.775  15.774  0.00  0.00    +0.000 A 
ATOM     20  N   UNL     1       6.290   4.154  16.849  0.00  0.00    +0.000 NA
ATOM     21  O   UNL     1       5.608   4.643  17.946  0.00  0.00    +0.000 OA
BRANCH  19  22
ATOM     22  C   UNL     1       6.305   4.561  14.427  0.00  0.00    +0.000 A 
ATOM     23  C   UNL     1       5.692   3.642  13.562  0.00  0.00    +0.000 A 
ATOM     24  C   UNL     1       6.174   3.461  12.263  0.00  0.00    +0.000 A 
ATOM     25  C   UNL     1       7.274   4.189  11.819  0.00  0.00    +0.000 A 
ATOM     26  C   UNL     1       7.896   5.099  12.673  0.00  0.00    +0.000 A 
ATOM     27  C   UNL     1       7.413   5.287  13.970  0.00  0.00    +0.000 A 
ENDBRANCH  19  22
ENDBRANCH   2  17
TORSDOF 3
ENDMDL
MODEL 4
REMARK VINA RESULT:      -8.5      2.620     10.467
REMARK  Name = 
REMARK  4 active torsions:
REMARK  status: ('A' for Active; 'I' for Inactive)
REMARK    1  A    between atoms: C_1  and  N_2
REMARK    2  A    between atoms: C_9  and  N_10
REMARK    3  A    between atoms: C_11  and  C_13
REMARK    4  A    between atoms: C_15  and  C_16
REMARK                            x       y       z     vdW  Elec       q    Type
REMARK                         _______ _______ _______ _____ _____    ______ ____
ROOT
ATOM      1  N   UNL     1       2.921   6.824  18.153  0.00  0.00    +0.000 N 
ATOM      2  C   UNL     1       3.892   5.915  18.552  0.00  0.00    +0.000 C 
ATOM      3  O   UNL     1       4.195   5.676  19.716  0.00  0.00    +0.000 OA
ATOM      4  H   UNL     1       2.695   6.830  17.164  0.00  0.00    +0.000 HD
ENDROOT
BRANCH   1  13
ATOM      5  C   UNL     1      -0.177   9.816  23.053  0.00  0.00    +0.000 C 
ATOM      6  N   UNL     1      -0.119  10.108  21.630  0.00  0.00    +0.000 N 
ATOM      7  C   UNL     1      -0.806  11.226  21.154  0.00  0.00    +0.000 C 
ATOM      8  O   UNL     1      -1.462  11.980  21.876  0.00  0.00    +0.000 OA
ATOM      9  C   UNL     1      -0.813  11.425  19.657  0.00  0.00    +0.000 C 
ATOM     10  C   UNL     1       0.534  11.099  19.059  0.00  0.00    +0.000 C 
ATOM     11  C   UNL     1       0.945   9.718  19.476  0.00  0.00    +0.000 A 
ATOM     12  C   UNL     1       1.706   8.924  18.604  0.00  0.00    +0.000 A 
ATOM     13  C   UNL     1       2.160   7.665  18.990  0.00  0.00    +0.000 A 
ATOM     14  C   UNL     1       1.846   7.206  20.273  0.00  0.00    +0.000 A 
ATOM     15  C   UNL     1       1.113   8.008  21.160  0.00  0.00    +0.000 A 
ATOM     16  C   UNL     1       0.643   9.267  20.767  0.00  0.00    +0.000 A 
ENDBRANCH   1  13
BRANCH   2  17
ATOM     17  C   UNL     1       4.512   5.197  17.466  0.00  0.00    +0.000 A 
ATOM     18  C   UNL     1       4.906   5.620  16.218  0.00  0.00    +0.000 A 
ATOM     19  C   UNL     1       5.502   4.484  15.615  0.00  0.00    +0.000 A 
ATOM     20  N   UNL     1       5.415   3.426  16.438  0.00  0.00    +0.000 NA
ATOM     21  O   UNL     1       4.810   3.878  17.594  0.00  0.00    +0.000 OA
BRANCH  19  22
ATOM     22  C   UNL     1       6.155   4.404  14.310  0.00  0.00    +0.000 A 
ATOM     23  C   UNL     1       5.656   3.549  13.316  0.00  0.00    +0.000 A 
ATOM     24  C   UNL     1       6.260   3.497  12.057  0.00  0.00    +0.000 A 
ATOM     25  C   UNL     1       7.370   4.292  11.782  0.00  0.00    +0.000 A 
ATOM     26  C   UNL     1       7.879   5.139  12.765  0.00  0.00    +0.000 A 
ATOM     27  C   UNL     1       7.274   5.198  14.022  0.00  0.00    +0.000 A 
ENDBRANCH  19  22
ENDBRANCH   2  17
TORSDOF 3
ENDMDL
MODEL 5
REMARK VINA RESULT:      -8.4      1.614      2.571
REMARK  Name = 
REMARK  4 active torsions:
REMARK  status: ('A' for Active; 'I' for Inactive)
REMARK    1  A    between atoms: C_1  and  N_2
REMARK    2  A    between atoms: C_9  and  N_10
REMARK    3  A    between atoms: C_11  and  C_13
REMARK    4  A    between atoms: C_15  and  C_16
REMARK                            x       y       z     vdW  Elec       q    Type
REMARK                         _______ _______ _______ _____ _____    ______ ____
ROOT
ATOM      1  N   UNL     1       1.187   8.809  20.696  0.00  0.00    +0.000 N 
ATOM      2  C   UNL     1       0.024   9.004  21.429  0.00  0.00    +0.000 C 
ATOM      3  O   UNL     1      -0.740   8.113  21.786  0.00  0.00    +0.000 OA
ATOM      4  H   UNL     1       1.781   9.622  20.576  0.00  0.00    +0.000 HD
ENDROOT
BRANCH   1  13
ATOM      5  C   UNL     1       4.094   3.981  17.410  0.00  0.00    +0.000 C 
ATOM      6  N   UNL     1       3.169   3.961  18.531  0.00  0.00    +0.000 N 
ATOM      7  C   UNL     1       2.808   2.726  19.071  0.00  0.00    +0.000 C 
ATOM      8  O   UNL     1       3.230   1.648  18.647  0.00  0.00    +0.000 OA
ATOM      9  C   UNL     1       1.758   2.747  20.156  0.00  0.00    +0.000 C 
ATOM     10  C   UNL     1       1.972   3.908  21.097  0.00  0.00    +0.000 C 
ATOM     11  C   UNL     1       2.040   5.183  20.308  0.00  0.00    +0.000 A 
ATOM     12  C   UNL     1       1.553   6.375  20.865  0.00  0.00    +0.000 A 
ATOM     13  C   UNL     1       1.665   7.585  20.186  0.00  0.00    +0.000 A 
ATOM     14  C   UNL     1       2.282   7.592  18.931  0.00  0.00    +0.000 A 
ATOM     15  C   UNL     1       2.800   6.409  18.382  0.00  0.00    +0.000 A 
ATOM     16  C   UNL     1       2.673   5.189  19.058  0.00  0.00    +0.000 A 
ENDBRANCH   1  13
BRANCH   2  17
ATOM     17  C   UNL     1      -0.212  10.374  21.809  0.00  0.00    +0.000 A 
ATOM     18  C   UNL     1      -1.225  10.941  22.547  0.00  0.00    +0.000 A 
ATOM     19  C   UNL     1      -0.893  12.316  22.637  0.00  0.00    +0.000 A 
ATOM     20  N   UNL     1       0.228  12.565  21.940  0.00  0.00    +0.000 NA
ATOM     21  O   UNL     1       0.656  11.352  21.438  0.00  0.00    +0.000 OA
BRANCH  19  22
ATOM     22  C   UNL     1      -1.599  13.360  23.377  0.00  0.00    +0.000 A 
ATOM     23  C   UNL     1      -2.939  13.183  23.753  0.00  0.00    +0.000 A 
ATOM     24  C   UNL     1      -3.605  14.166  24.489  0.00  0.00    +0.000 A 
ATOM     25  C   UNL     1      -2.941  15.336  24.849  0.00  0.00    +0.000 A 
ATOM     26  C   UNL     1      -1.612  15.527  24.473  0.00  0.00    +0.000 A 
ATOM     27  C   UNL     1      -0.943  14.543  23.743  0.00  0.00    +0.000 A 
ENDBRANCH  19  22
ENDBRANCH   2  17
TORSDOF 3
ENDMDL
MODEL 6
REMARK VINA RESULT:      -8.4      3.233     11.043
REMARK  Name = 
REMARK  4 active torsions:
REMARK  status: ('A' for Active; 'I' for Inactive)
REMARK    1  A    between atoms: C_1  and  N_2
REMARK    2  A    between atoms: C_9  and  N_10
REMARK    3  A    between atoms: C_11  and  C_13
REMARK    4  A    between atoms: C_15  and  C_16
REMARK                            x       y       z     vdW  Elec       q    Type
REMARK                         _______ _______ _______ _____ _____    ______ ____
ROOT
ATOM      1  N   UNL     1       3.963   6.622  16.960  0.00  0.00    +0.000 N 
ATOM      2  C   UNL     1       5.351   6.591  16.956  0.00  0.00    +0.000 C 
ATOM      3  O   UNL     1       6.069   7.105  17.807  0.00  0.00    +0.000 OA
ATOM      4  H   UNL     1       3.502   6.053  16.260  0.00  0.00    +0.000 HD
ENDROOT
BRANCH   1  13
ATOM      5  C   UNL     1       0.690   8.750  22.188  0.00  0.00    +0.000 C 
ATOM      6  N   UNL     1       0.680   9.188  20.801  0.00  0.00    +0.000 N 
ATOM      7  C   UNL     1      -0.133  10.267  20.454  0.00  0.00    +0.000 C 
ATOM      8  O   UNL     1      -0.847  10.869  21.259  0.00  0.00    +0.000 OA
ATOM      9  C   UNL     1      -0.200  10.614  18.985  0.00  0.00    +0.000 C 
ATOM     10  C   UNL     1       1.159  10.499  18.337  0.00  0.00    +0.000 C 
ATOM     11  C   UNL     1       1.725   9.135  18.603  0.00  0.00    +0.000 A 
ATOM     12  C   UNL     1       2.543   8.521  17.644  0.00  0.00    +0.000 A 
ATOM     13  C   UNL     1       3.138   7.287  17.891  0.00  0.00    +0.000 A 
ATOM     14  C   UNL     1       2.908   6.668  19.124  0.00  0.00    +0.000 A 
ATOM     15  C   UNL     1       2.117   7.292  20.100  0.00  0.00    +0.000 A 
ATOM     16  C   UNL     1       1.505   8.526  19.846  0.00  0.00    +0.000 A 
ENDBRANCH   1  13
BRANCH   2  17
ATOM     17  C   UNL     1       5.922   5.834  15.870  0.00  0.00    +0.000 A 
ATOM     18  C   UNL     1       5.356   4.912  15.021  0.00  0.00    +0.000 A 
ATOM     19  C   UNL     1       6.392   4.550  14.124  0.00  0.00    +0.000 A 
ATOM     20  N   UNL     1       7.531   5.179  14.458  0.00  0.00    +0.000 NA
ATOM     21  O   UNL     1       7.231   5.987  15.537  0.00  0.00    +0.000 OA
BRANCH  19  22
ATOM     22  C   UNL     1       6.305   3.655  12.972  0.00  0.00    +0.000 A 
ATOM     23  C   UNL     1       7.470   3.191  12.343  0.00  0.00    +0.000 A 
ATOM     24  C   UNL     1       7.389   2.308  11.262  0.00  0.00    +0.000 A 
ATOM     25  C   UNL     1       6.146   1.888  10.797  0.00  0.00    +0.000 A 
ATOM     26  C   UNL     1       4.981   2.349  11.410  0.00  0.00    +0.000 A 
ATOM     27  C   UNL     1       5.060   3.226  12.494  0.00  0.00    +0.000 A 
ENDBRANCH  19  22
ENDBRANCH   2  17
TORSDOF 3
ENDMDL
MODEL 7
REMARK VINA RESULT:      -8.3      1.629      2.729
REMARK  Name = 
REMARK  4 active torsions:
REMARK  status: ('A' for Active; 'I' for Inactive)
REMARK    1  A    between atoms: C_1  and  N_2
REMARK    2  A    between atoms: C_9  and  N_10
REMARK    3  A    between atoms: C_11  and  C_13
REMARK    4  A    between atoms: C_15  and  C_16
REMARK                            x       y       z     vdW  Elec       q    Type
REMARK                         _______ _______ _______ _____ _____    ______ ____
ROOT
ATOM      1  N   UNL     1       0.984   8.790  20.662  0.00  0.00    +0.000 N 
ATOM      2  C   UNL     1       1.213   9.425  21.876  0.00  0.00    +0.000 C 
ATOM      3  O   UNL     1       2.021   9.056  22.721  0.00  0.00    +0.000 OA
ATOM      4  H   UNL     1       0.374   9.274  20.013  0.00  0.00    +0.000 HD
ENDROOT
BRANCH   1  13
ATOM      5  C   UNL     1       4.494   4.144  17.720  0.00  0.00    +0.000 C 
ATOM      6  N   UNL     1       3.460   4.069  18.738  0.00  0.00    +0.000 N 
ATOM      7  C   UNL     1       3.117   2.814  19.243  0.00  0.00    +0.000 C 
ATOM      8  O   UNL     1       3.643   1.763  18.870  0.00  0.00    +0.000 OA
ATOM      9  C   UNL     1       1.960   2.772  20.213  0.00  0.00    +0.000 C 
ATOM     10  C   UNL     1       2.006   3.943  21.165  0.00  0.00    +0.000 C 
ATOM     11  C   UNL     1       2.082   5.221  20.382  0.00  0.00    +0.000 A 
ATOM     12  C   UNL     1       1.471   6.381  20.880  0.00  0.00    +0.000 A 
ATOM     13  C   UNL     1       1.584   7.596  20.210  0.00  0.00    +0.000 A 
ATOM     14  C   UNL     1       2.326   7.641  19.027  0.00  0.00    +0.000 A 
ATOM     15  C   UNL     1       2.967   6.491  18.540  0.00  0.00    +0.000 A 
ATOM     16  C   UNL     1       2.840   5.265  19.205  0.00  0.00    +0.000 A 
ENDBRANCH   1  13
BRANCH   2  17
ATOM     17  C   UNL     1       0.445  10.631  22.066  0.00  0.00    +0.000 A 
ATOM     18  C   UNL     1      -0.756  10.841  22.701  0.00  0.00    +0.000 A 
ATOM     19  C   UNL     1      -0.981  12.237  22.614  0.00  0.00    +0.000 A 
ATOM     20  N   UNL     1       0.006  12.820  21.913  0.00  0.00    +0.000 NA
ATOM     21  O   UNL     1       0.899  11.818  21.585  0.00  0.00    +0.000 OA
BRANCH  19  22
ATOM     22  C   UNL     1      -2.082  13.004  23.194  0.00  0.00    +0.000 A 
ATOM     23  C   UNL     1      -1.841  14.242  23.808  0.00  0.00    +0.000 A 
ATOM     24  C   UNL     1      -2.897  14.991  24.333  0.00  0.00    +0.000 A 
ATOM     25  C   UNL     1      -4.200  14.508  24.255  0.00  0.00    +0.000 A 
ATOM     26  C   UNL     1      -4.451  13.275  23.655  0.00  0.00    +0.000 A 
ATOM     27  C   UNL     1      -3.398  12.527  23.124  0.00  0.00    +0.000 A 
ENDBRANCH  19  22
ENDBRANCH   2  17
TORSDOF 3
ENDMDL
MODEL 8
REMARK VINA RESULT:      -8.3      1.062      2.145
REMARK  Name = 
REMARK  4 active torsions:
REMARK  status: ('A' for Active; 'I' for Inactive)
REMARK    1  A    between atoms: C_1  and  N_2
REMARK    2  A    between atoms: C_9  and  N_10
REMARK    3  A    between atoms: C_11  and  C_13
REMARK    4  A    between atoms: C_15  and  C_16
REMARK                            x       y       z     vdW  Elec       q    Type
REMARK                         _______ _______ _______ _____ _____    ______ ____
ROOT
ATOM      1  N   UNL     1       1.139   7.754  21.035  0.00  0.00    +0.000 N 
ATOM      2  C   UNL     1       0.818   9.000  20.512  0.00  0.00    +0.000 C 
ATOM      3  O   UNL     1       0.973   9.332  19.341  0.00  0.00    +0.000 OA
ATOM      4  H   UNL     1       0.846   7.582  21.990  0.00  0.00    +0.000 HD
ENDROOT
BRANCH   1  13
ATOM      5  C   UNL     1       4.754   3.821  17.290  0.00  0.00    +0.000 C 
ATOM      6  N   UNL     1       3.646   3.543  18.189  0.00  0.00    +0.000 N 
ATOM      7  C   UNL     1       3.240   2.218  18.349  0.00  0.00    +0.000 C 
ATOM      8  O   UNL     1       3.769   1.269  17.768  0.00  0.00    +0.000 OA
ATOM      9  C   UNL     1       2.014   1.988  19.202  0.00  0.00    +0.000 C 
ATOM     10  C   UNL     1       2.015   2.893  20.411  0.00  0.00    +0.000 C 
ATOM     11  C   UNL     1       2.177   4.317  19.969  0.00  0.00    +0.000 A 
ATOM     12  C   UNL     1       1.556   5.346  20.692  0.00  0.00    +0.000 A 
ATOM     13  C   UNL     1       1.744   6.682  20.348  0.00  0.00    +0.000 A 
ATOM     14  C   UNL     1       2.572   6.982  19.262  0.00  0.00    +0.000 A 
ATOM     15  C   UNL     1       3.221   5.959  18.554  0.00  0.00    +0.000 A 
ATOM     16  C   UNL     1       3.020   4.615  18.890  0.00  0.00    +0.000 A 
ENDBRANCH   1  13
BRANCH   2  17
ATOM     17  C   UNL     1       0.213   9.901  21.460  0.00  0.00    +0.000 A 
ATOM     18  C   UNL     1      -0.590  11.001  21.268  0.00  0.00    +0.000 A 
ATOM     19  C   UNL     1      -0.922  11.448  22.571  0.00  0.00    +0.000 A 
ATOM     20  N   UNL     1      -0.302  10.690  23.490  0.00  0.00    +0.000 NA
ATOM     21  O   UNL     1       0.393   9.720  22.794  0.00  0.00    +0.000 OA
BRANCH  19  22
ATOM     22  C   UNL     1      -1.815  12.544  22.940  0.00  0.00    +0.000 A 
ATOM     23  C   UNL     1      -3.207  12.381  22.874  0.00  0.00    +0.000 A 
ATOM     24  C   UNL     1      -4.063  13.417  23.258  0.00  0.00    +0.000 A 
ATOM     25  C   UNL     1      -3.536  14.626  23.704  0.00  0.00    +0.000 A 
ATOM     26  C   UNL     1      -2.155  14.803  23.766  0.00  0.00    +0.000 A 
ATOM     27  C   UNL     1      -1.298  13.767  23.389  0.00  0.00    +0.000 A 
ENDBRANCH  19  22
ENDBRANCH   2  17
TORSDOF 3
ENDMDL
MODEL 9
REMARK VINA RESULT:      -8.1      6.953     10.339
REMARK  Name = 
REMARK  4 active torsions:
REMARK  status: ('A' for Active; 'I' for Inactive)
REMARK    1  A    between atoms: C_1  and  N_2
REMARK    2  A    between atoms: C_9  and  N_10
REMARK    3  A    between atoms: C_11  and  C_13
REMARK    4  A    between atoms: C_15  and  C_16
REMARK                            x       y       z     vdW  Elec       q    Type
REMARK                         _______ _______ _______ _____ _____    ______ ____
ROOT
ATOM      1  N   UNL     1       7.214   9.187  17.662  0.00  0.00    +0.000 N 
ATOM      2  C   UNL     1       7.535   7.847  17.835  0.00  0.00    +0.000 C 
ATOM      3  O   UNL     1       8.581   7.431  18.321  0.00  0.00    +0.000 OA
ATOM      4  H   UNL     1       6.267   9.384  17.359  0.00  0.00    +0.000 HD
ENDROOT
BRANCH   1  13
ATOM      5  C   UNL     1      10.060  15.030  18.239  0.00  0.00    +0.000 C 
ATOM      6  N   UNL     1      10.446  13.718  18.733  0.00  0.00    +0.000 N 
ATOM      7  C   UNL     1      11.611  13.613  19.493  0.00  0.00    +0.000 C 
ATOM      8  O   UNL     1      12.333  14.574  19.769  0.00  0.00    +0.000 OA
ATOM      9  C   UNL     1      12.035  12.218  19.887  0.00  0.00    +0.000 C 
ATOM     10  C   UNL     1      10.843  11.377  20.276  0.00  0.00    +0.000 C 
ATOM     11  C   UNL     1       9.830  11.404  19.169  0.00  0.00    +0.000 A 
ATOM     12  C   UNL     1       9.033  10.275  18.926  0.00  0.00    +0.000 A 
ATOM     13  C   UNL     1       8.038  10.294  17.952  0.00  0.00    +0.000 A 
ATOM     14  C   UNL     1       7.843  11.468  17.218  0.00  0.00    +0.000 A 
ATOM     15  C   UNL     1       8.616  12.610  17.478  0.00  0.00    +0.000 A 
ATOM     16  C   UNL     1       9.627  12.587  18.447  0.00  0.00    +0.000 A 
ENDBRANCH   1  13
BRANCH   2  17
ATOM     17  C   UNL     1       6.491   6.934  17.441  0.00  0.00    +0.000 A 
ATOM     18  C   UNL     1       5.731   6.063  18.186  0.00  0.00    +0.000 A 
ATOM     19  C   UNL     1       4.831   5.475  17.262  0.00  0.00    +0.000 A 
ATOM     20  N   UNL     1       5.082   5.928  16.022  0.00  0.00    +0.000 NA
ATOM     21  O   UNL     1       6.107   6.846  16.140  0.00  0.00    +0.000 OA
BRANCH  19  22
ATOM     22  C   UNL     1       3.753   4.530  17.542  0.00  0.00    +0.000 A 
ATOM     23  C   UNL     1       3.981   3.147  17.468  0.00  0.00    +0.000 A 
ATOM     24  C   UNL     1       2.959   2.242  17.768  0.00  0.00    +0.000 A 
ATOM     25  C   UNL     1       1.700   2.710  18.137  0.00  0.00    +0.000 A 
ATOM     26  C   UNL     1       1.460   4.081  18.206  0.00  0.00    +0.000 A 
ATOM     27  C   UNL     1       2.481   4.988  17.912  0.00  0.00    +0.000 A 
ENDBRANCH  19  22
ENDBRANCH   2  17
TORSDOF 3
ENDMDL
