MODEL 1
REMARK VINA RESULT:      -9.1      0.000      0.000
REMARK  Name = 
REMARK  3 active torsions:
REMARK  status: ('A' for Active; 'I' for Inactive)
REMARK    1  A    between atoms: C_2  and  C_5
REMARK    2  A    between atoms: N_8  and  C_9
REMARK    3  A    between atoms: C_9  and  C_10
REMARK                            x       y       z     vdW  Elec       q    Type
REMARK                         _______ _______ _______ _____ _____    ______ ____
ROOT
ATOM      1  C   UNL     1       2.097   3.743  18.918  0.00  0.00    +0.000 A 
ATOM      2  N   UNL     1       1.937   4.927  19.544  0.00  0.00    +0.000 NA
ATOM      3  C   UNL     1       2.646   5.986  19.128  0.00  0.00    +0.000 A 
ATOM      4  N   UNL     1       2.495   7.143  19.873  0.00  0.00    +0.000 N 
ATOM      5  C   UNL     1       3.544   5.893  18.043  0.00  0.00    +0.000 A 
ATOM      6  C   UNL     1       4.322   6.952  17.499  0.00  0.00    +0.000 A 
ATOM      7  C   UNL     1       5.174   6.737  16.415  0.00  0.00    +0.000 A 
ATOM      8  C   UNL     1       5.266   5.469  15.858  0.00  0.00    +0.000 A 
ATOM      9  C   UNL     1       4.497   4.431  16.386  0.00  0.00    +0.000 A 
ATOM     10  C   UNL     1       3.635   4.622  17.459  0.00  0.00    +0.000 A 
ATOM     11  N   UNL     1       2.936   3.564  17.880  0.00  0.00    +0.000 NA
ATOM     12  H   UNL     1       2.920   8.004  19.571  0.00  0.00    +0.000 HD
ENDROOT
BRANCH   1  14
ATOM     13  F   UNL     1       0.784   2.704  20.682  0.00  0.00    +0.000 F 
ATOM     14  C   UNL     1       1.278   2.550  19.416  0.00  0.00    +0.000 C 
ATOM     15  F   UNL     1       1.990   1.382  19.447  0.00  0.00    +0.000 F 
ATOM     16  F   UNL     1       0.184   2.290  18.635  0.00  0.00    +0.000 F 
ENDBRANCH   1  14
BRANCH   4  17
ATOM     17  C   UNL     1       1.457   7.233  20.890  0.00  0.00    +0.000 C 
BRANCH  17  18
ATOM     18  C   UNL     1       0.853   8.619  21.033  0.00  0.00    +0.000 A 
ATOM     19  C   UNL     1       0.885   9.479  19.904  0.00  0.00    +0.000 A 
ATOM     20  C   UNL     1       0.361  10.774  19.956  0.00  0.00    +0.000 A 
ATOM     21  C   UNL     1      -0.183  11.194  21.147  0.00  0.00    +0.000 A 
ATOM     22  C   UNL     1      -0.230  10.374  22.248  0.00  0.00    +0.000 A 
ATOM     23  C   UNL     1       0.270   9.087  22.224  0.00  0.00    +0.000 A 
ATOM     24  O   UNL     1      -0.806  10.983  23.321  0.00  0.00    +0.000 OA
ATOM     25  C   UNL     1      -1.050  12.300  22.785  0.00  0.00    +0.000 C 
ATOM     26  O   UNL     1      -0.720  12.420  21.386  0.00  0.00    +0.000 OA
ENDBRANCH  17  18
ENDBRANCH   4  17
TORSDOF 3
ENDMDL
MODEL 2
REMARK VINA RESULT:      -8.9      0.582      1.045
REMARK  Name = 
REMARK  3 active torsions:
REMARK  status: ('A' for Active; 'I' for Inactive)
REMARK    1  A    between atoms: C_2  and  C_5
REMARK    2  A    between atoms: N_8  and  C_9
REMARK    3  A    between atoms: C_9  and  C_10
REMARK                            x       y       z     vdW  Elec       q    Type
REMARK                         _______ _______ _______ _____ _____    ______ ____
ROOT
ATOM      1  C   UNL     1       2.512   3.806  19.563  0.00  0.00    +0.000 A 
ATOM      2  N   UNL     1       2.188   5.039  20.003  0.00  0.00    +0.000 NA
ATOM      3  C   UNL     1       2.685   6.109  19.366  0.00  0.00    +0.000 A 
ATOM      4  N   UNL     1       2.382   7.338  19.927  0.00  0.00    +0.000 N 
ATOM      5  C   UNL     1       3.525   5.974  18.239  0.00  0.00    +0.000 A 
ATOM      6  C   UNL     1       4.082   7.033  17.471  0.00  0.00    +0.000 A 
ATOM      7  C   UNL     1       4.897   6.773  16.369  0.00  0.00    +0.000 A 
ATOM      8  C   UNL     1       5.171   5.459  16.016  0.00  0.00    +0.000 A 
ATOM      9  C   UNL     1       4.618   4.418  16.765  0.00  0.00    +0.000 A 
ATOM     10  C   UNL     1       3.796   4.652  17.861  0.00  0.00    +0.000 A 
ATOM     11  N   UNL     1       3.310   3.585  18.502  0.00  0.00    +0.000 NA
ATOM     12  H   UNL     1       2.639   8.191  19.457  0.00  0.00    +0.000 HD
ENDROOT
BRANCH   1  14
ATOM     13  F   UNL     1       1.784   1.485  19.534  0.00  0.00    +0.000 F 
ATOM     14  C   UNL     1       1.934   2.602  20.310  0.00  0.00    +0.000 C 
ATOM     15  F   UNL     1       0.696   2.840  20.842  0.00  0.00    +0.000 F 
ATOM     16  F   UNL     1       2.713   2.202  21.363  0.00  0.00    +0.000 F 
ENDBRANCH   1  14
BRANCH   4  17
ATOM     17  C   UNL     1       1.401   7.437  20.997  0.00  0.00    +0.000 C 
BRANCH  17  18
ATOM     18  C   UNL     1       0.755   8.806  21.118  0.00  0.00    +0.000 A 
ATOM     19  C   UNL     1       0.729   9.633  19.965  0.00  0.00    +0.000 A 
ATOM     20  C   UNL     1       0.163  10.911  19.994  0.00  0.00    +0.000 A 
ATOM     21  C   UNL     1      -0.365  11.348  21.186  0.00  0.00    +0.000 A 
ATOM     22  C   UNL     1      -0.356  10.559  22.311  0.00  0.00    +0.000 A 
ATOM     23  C   UNL     1       0.186   9.288  22.310  0.00  0.00    +0.000 A 
ATOM     24  O   UNL     1      -0.924  11.179  23.381  0.00  0.00    +0.000 OA
ATOM     25  C   UNL     1      -1.226  12.471  22.814  0.00  0.00    +0.000 C 
ATOM     26  O   UNL     1      -0.936  12.562  21.404  0.00  0.00    +0.000 OA
ENDBRANCH  17  18
ENDBRANCH   4  17
TORSDOF 3
ENDMDL
MODEL 3
REMARK VINA RESULT:      -8.8      0.690      1.638
REMARK  Name = 
REMARK  3 active torsions:
REMARK  status: ('A' for Active; 'I' for Inactive)
REMARK    1  A    between atoms: C_2  and  C_5
REMARK    2  A    between atoms: N_8  and  C_9
REMARK    3  A    between atoms: C_9  and  C_10
REMARK                            x       y       z     vdW  Elec       q    Type
REMARK                         _______ _______ _______ _____ _____    ______ ____
ROOT
ATOM      1  C   UNL     1       2.101   3.741  18.912  0.00  0.00    +0.000 A 
ATOM      2  N   UNL     1       1.967   4.937  19.520  0.00  0.00    +0.000 NA
ATOM      3  C   UNL     1       2.699   5.974  19.087  0.00  0.00    +0.000 A 
ATOM      4  N   UNL     1       2.574   7.145  19.814  0.00  0.00    +0.000 N 
ATOM      5  C   UNL     1       3.595   5.844  18.003  0.00  0.00    +0.000 A 
ATOM      6  C   UNL     1       4.395   6.876  17.443  0.00  0.00    +0.000 A 
ATOM      7  C   UNL     1       5.242   6.626  16.362  0.00  0.00    +0.000 A 
ATOM      8  C   UNL     1       5.306   5.348  15.825  0.00  0.00    +0.000 A 
ATOM      9  C   UNL     1       4.514   4.335  16.370  0.00  0.00    +0.000 A 
ATOM     10  C   UNL     1       3.657   4.562  17.440  0.00  0.00    +0.000 A 
ATOM     11  N   UNL     1       2.935   3.527  17.877  0.00  0.00    +0.000 NA
ATOM     12  H   UNL     1       3.018   7.992  19.499  0.00  0.00    +0.000 HD
ENDROOT
BRANCH   1  14
ATOM     13  F   UNL     1       1.954   1.408  19.587  0.00  0.00    +0.000 F 
ATOM     14  C   UNL     1       1.255   2.574  19.428  0.00  0.00    +0.000 C 
ATOM     15  F   UNL     1       0.211   2.258  18.604  0.00  0.00    +0.000 F 
ATOM     16  F   UNL     1       0.693   2.822  20.652  0.00  0.00    +0.000 F 
ENDBRANCH   1  14
BRANCH   4  17
ATOM     17  C   UNL     1       1.539   7.275  20.829  0.00  0.00    +0.000 C 
BRANCH  17  18
ATOM     18  C   UNL     1       0.900   8.651  20.887  0.00  0.00    +0.000 A 
ATOM     19  C   UNL     1       0.314   9.061  22.113  0.00  0.00    +0.000 A 
ATOM     20  C   UNL     1      -0.305  10.308  22.247  0.00  0.00    +0.000 A 
ATOM     21  C   UNL     1      -0.334  11.127  21.143  0.00  0.00    +0.000 A 
ATOM     22  C   UNL     1       0.234  10.750  19.950  0.00  0.00    +0.000 A 
ATOM     23  C   UNL     1       0.861   9.530  19.790  0.00  0.00    +0.000 A 
ATOM     24  O   UNL     1       0.092  11.703  18.988  0.00  0.00    +0.000 OA
ATOM     25  C   UNL     1      -0.689  12.687  19.696  0.00  0.00    +0.000 C 
ATOM     26  O   UNL     1      -0.905  12.359  21.083  0.00  0.00    +0.000 OA
ENDBRANCH  17  18
ENDBRANCH   4  17
TORSDOF 3
ENDMDL
MODEL 4
REMARK VINA RESULT:      -8.6      3.110      4.049
REMARK  Name = 
REMARK  3 active torsions:
REMARK  status: ('A' for Active; 'I' for Inactive)
REMARK    1  A    between atoms: C_2  and  C_5
REMARK    2  A    between atoms: N_8  and  C_9
REMARK    3  A    between atoms: C_9  and  C_10
REMARK                            x       y       z     vdW  Elec       q    Type
REMARK                         _______ _______ _______ _____ _____    ______ ____
ROOT
ATOM      1  C   UNL     1       5.400   5.803  17.648  0.00  0.00    +0.000 A 
ATOM      2  N   UNL     1       4.335   6.615  17.807  0.00  0.00    +0.000 NA
ATOM      3  C   UNL     1       3.121   6.072  17.976  0.00  0.00    +0.000 A 
ATOM      4  N   UNL     1       2.065   6.965  18.044  0.00  0.00    +0.000 N 
ATOM      5  C   UNL     1       2.935   4.673  18.006  0.00  0.00    +0.000 A 
ATOM      6  C   UNL     1       1.705   3.990  18.209  0.00  0.00    +0.000 A 
ATOM      7  C   UNL     1       1.648   2.596  18.223  0.00  0.00    +0.000 A 
ATOM      8  C   UNL     1       2.811   1.862  18.036  0.00  0.00    +0.000 A 
ATOM      9  C   UNL     1       4.021   2.532  17.846  0.00  0.00    +0.000 A 
ATOM     10  C   UNL     1       4.104   3.919  17.835  0.00  0.00    +0.000 A 
ATOM     11  N   UNL     1       5.313   4.460  17.656  0.00  0.00    +0.000 NA
ATOM     12  H   UNL     1       1.137   6.644  18.263  0.00  0.00    +0.000 HD
ENDROOT
BRANCH   1  14
ATOM     13  F   UNL     1       7.403   6.079  16.295  0.00  0.00    +0.000 F 
ATOM     14  C   UNL     1       6.773   6.449  17.452  0.00  0.00    +0.000 C 
ATOM     15  F   UNL     1       7.657   6.152  18.453  0.00  0.00    +0.000 F 
ATOM     16  F   UNL     1       6.719   7.817  17.406  0.00  0.00    +0.000 F 
ENDBRANCH   1  14
BRANCH   4  17
ATOM     17  C   UNL     1       2.317   8.395  18.153  0.00  0.00    +0.000 C 
BRANCH  17  18
ATOM     18  C   UNL     1       1.420   9.105  19.151  0.00  0.00    +0.000 A 
ATOM     19  C   UNL     1       0.700  10.244  18.705  0.00  0.00    +0.000 A 
ATOM     20  C   UNL     1      -0.138  10.962  19.564  0.00  0.00    +0.000 A 
ATOM     21  C   UNL     1      -0.237  10.531  20.866  0.00  0.00    +0.000 A 
ATOM     22  C   UNL     1       0.446   9.426  21.314  0.00  0.00    +0.000 A 
ATOM     23  C   UNL     1       1.273   8.692  20.487  0.00  0.00    +0.000 A 
ATOM     24  O   UNL     1       0.211   9.173  22.630  0.00  0.00    +0.000 OA
ATOM     25  C   UNL     1      -0.643  10.285  22.971  0.00  0.00    +0.000 C 
ATOM     26  O   UNL     1      -0.986  11.112  21.840  0.00  0.00    +0.000 OA
ENDBRANCH  17  18
ENDBRANCH   4  17
TORSDOF 3
ENDMDL
MODEL 5
REMARK VINA RESULT:      -8.6      3.021      4.028
REMARK  Name = 
REMARK  3 active torsions:
REMARK  status: ('A' for Active; 'I' for Inactive)
REMARK    1  A    between atoms: C_2  and  C_5
REMARK    2  A    between atoms: N_8  and  C_9
REMARK    3  A    between atoms: C_9  and  C_10
REMARK                            x       y       z     vdW  Elec       q    Type
REMARK                         _______ _______ _______ _____ _____    ______ ____
ROOT
ATOM      1  C   UNL     1       5.490   5.030  18.682  0.00  0.00    +0.000 A 
ATOM      2  N   UNL     1       4.536   5.949  18.432  0.00  0.00    +0.000 NA
ATOM      3  C   UNL     1       3.259   5.552  18.334  0.00  0.00    +0.000 A 
ATOM      4  N   UNL     1       2.346   6.535  17.990  0.00  0.00    +0.000 N 
ATOM      5  C   UNL     1       2.891   4.199  18.500  0.00  0.00    +0.000 A 
ATOM      6  C   UNL     1       1.572   3.671  18.448  0.00  0.00    +0.000 A 
ATOM      7  C   UNL     1       1.333   2.310  18.635  0.00  0.00    +0.000 A 
ATOM      8  C   UNL     1       2.399   1.454  18.874  0.00  0.00    +0.000 A 
ATOM      9  C   UNL     1       3.694   1.973  18.933  0.00  0.00    +0.000 A 
ATOM     10  C   UNL     1       3.956   3.326  18.759  0.00  0.00    +0.000 A 
ATOM     11  N   UNL     1       5.230   3.720  18.847  0.00  0.00    +0.000 NA
ATOM     12  H   UNL     1       1.359   6.338  17.987  0.00  0.00    +0.000 HD
ENDROOT
BRANCH   1  14
ATOM     13  F   UNL     1       7.845   4.682  18.178  0.00  0.00    +0.000 F 
ATOM     14  C   UNL     1       6.940   5.510  18.785  0.00  0.00    +0.000 C 
ATOM     15  F   UNL     1       7.376   5.636  20.075  0.00  0.00    +0.000 F 
ATOM     16  F   UNL     1       7.139   6.737  18.211  0.00  0.00    +0.000 F 
ENDBRANCH   1  14
BRANCH   4  17
ATOM     17  C   UNL     1       2.746   7.935  17.970  0.00  0.00    +0.000 C 
BRANCH  17  18
ATOM     18  C   UNL     1       1.865   8.840  18.812  0.00  0.00    +0.000 A 
ATOM     19  C   UNL     1       1.407  10.051  18.231  0.00  0.00    +0.000 A 
ATOM     20  C   UNL     1       0.602  10.946  18.943  0.00  0.00    +0.000 A 
ATOM     21  C   UNL     1       0.272  10.616  20.236  0.00  0.00    +0.000 A 
ATOM     22  C   UNL     1       0.699   9.444  20.814  0.00  0.00    +0.000 A 
ATOM     23  C   UNL     1       1.486   8.537  20.132  0.00  0.00    +0.000 A 
ATOM     24  O   UNL     1       0.264   9.313  22.096  0.00  0.00    +0.000 OA
ATOM     25  C   UNL     1      -0.426  10.567  22.277  0.00  0.00    +0.000 C 
ATOM     26  O   UNL     1      -0.483  11.369  21.080  0.00  0.00    +0.000 OA
ENDBRANCH  17  18
ENDBRANCH   4  17
TORSDOF 3
ENDMDL
MODEL 6
REMARK VINA RESULT:      -8.5      3.124      4.262
REMARK  Name = 
REMARK  3 active torsions:
REMARK  status: ('A' for Active; 'I' for Inactive)
REMARK    1  A    between atoms: C_2  and  C_5
REMARK    2  A    between atoms: N_8  and  C_9
REMARK    3  A    between atoms: C_9  and  C_10
REMARK                            x       y       z     vdW  Elec       q    Type
REMARK                         _______ _______ _______ _____ _____    ______ ____
ROOT
ATOM      1  C   UNL     1       5.571   5.101  18.678  0.00  0.00    +0.000 A 
ATOM      2  N   UNL     1       4.618   6.016  18.410  0.00  0.00    +0.000 NA
ATOM      3  C   UNL     1       3.343   5.617  18.303  0.00  0.00    +0.000 A 
ATOM      4  N   UNL     1       2.433   6.596  17.939  0.00  0.00    +0.000 N 
ATOM      5  C   UNL     1       2.975   4.265  18.478  0.00  0.00    +0.000 A 
ATOM      6  C   UNL     1       1.657   3.735  18.418  0.00  0.00    +0.000 A 
ATOM      7  C   UNL     1       1.417   2.375  18.616  0.00  0.00    +0.000 A 
ATOM      8  C   UNL     1       2.482   1.524  18.874  0.00  0.00    +0.000 A 
ATOM      9  C   UNL     1       3.775   2.044  18.941  0.00  0.00    +0.000 A 
ATOM     10  C   UNL     1       4.038   3.396  18.757  0.00  0.00    +0.000 A 
ATOM     11  N   UNL     1       5.311   3.792  18.853  0.00  0.00    +0.000 NA
ATOM     12  H   UNL     1       1.446   6.397  17.929  0.00  0.00    +0.000 HD
ENDROOT
BRANCH   1  14
ATOM     13  F   UNL     1       7.473   5.684  20.078  0.00  0.00    +0.000 F 
ATOM     14  C   UNL     1       7.019   5.584  18.791  0.00  0.00    +0.000 C 
ATOM     15  F   UNL     1       7.221   6.820  18.241  0.00  0.00    +0.000 F 
ATOM     16  F   UNL     1       7.910   4.754  18.163  0.00  0.00    +0.000 F 
ENDBRANCH   1  14
BRANCH   4  17
ATOM     17  C   UNL     1       2.831   7.995  17.909  0.00  0.00    +0.000 C 
BRANCH  17  18
ATOM     18  C   UNL     1       1.901   8.918  18.677  0.00  0.00    +0.000 A 
ATOM     19  C   UNL     1       1.472   8.507  19.966  0.00  0.00    +0.000 A 
ATOM     20  C   UNL     1       0.606   9.293  20.734  0.00  0.00    +0.000 A 
ATOM     21  C   UNL     1       0.175  10.481  20.193  0.00  0.00    +0.000 A 
ATOM     22  C   UNL     1       0.586  10.899  18.950  0.00  0.00    +0.000 A 
ATOM     23  C   UNL     1       1.448  10.150  18.173  0.00  0.00    +0.000 A 
ATOM     24  O   UNL     1       0.042  12.098  18.603  0.00  0.00    +0.000 OA
ATOM     25  C   UNL     1      -0.809  12.348  19.742  0.00  0.00    +0.000 C 
ATOM     26  O   UNL     1      -0.677  11.359  20.784  0.00  0.00    +0.000 OA
ENDBRANCH  17  18
ENDBRANCH   4  17
TORSDOF 3
ENDMDL
MODEL 7
REMARK VINA RESULT:      -8.5      3.004      4.095
REMARK  Name = 
REMARK  3 active torsions:
REMARK  status: ('A' for Active; 'I' for Inactive)
REMARK    1  A    between atoms: C_2  and  C_5
REMARK    2  A    between atoms: N_8  and  C_9
REMARK    3  A    between atoms: C_9  and  C_10
REMARK                            x       y       z     vdW  Elec       q    Type
REMARK                         _______ _______ _______ _____ _____    ______ ____
ROOT
ATOM      1  C   UNL     1       5.246   5.735  17.784  0.00  0.00    +0.000 A 
ATOM      2  N   UNL     1       4.176   6.546  17.904  0.00  0.00    +0.000 NA
ATOM      3  C   UNL     1       2.960   6.002  18.059  0.00  0.00    +0.000 A 
ATOM      4  N   UNL     1       1.900   6.892  18.086  0.00  0.00    +0.000 N 
ATOM      5  C   UNL     1       2.779   4.603  18.115  0.00  0.00    +0.000 A 
ATOM      6  C   UNL     1       1.547   3.919  18.307  0.00  0.00    +0.000 A 
ATOM      7  C   UNL     1       1.495   2.525  18.351  0.00  0.00    +0.000 A 
ATOM      8  C   UNL     1       2.665   1.793  18.204  0.00  0.00    +0.000 A 
ATOM      9  C   UNL     1       3.876   2.463  18.024  0.00  0.00    +0.000 A 
ATOM     10  C   UNL     1       3.954   3.850  17.986  0.00  0.00    +0.000 A 
ATOM     11  N   UNL     1       5.164   4.392  17.820  0.00  0.00    +0.000 NA
ATOM     12  H   UNL     1       0.968   6.571  18.292  0.00  0.00    +0.000 HD
ENDROOT
BRANCH   1  14
ATOM     13  F   UNL     1       7.344   5.872  16.560  0.00  0.00    +0.000 F 
ATOM     14  C   UNL     1       6.621   6.382  17.604  0.00  0.00    +0.000 C 
ATOM     15  F   UNL     1       7.429   6.248  18.700  0.00  0.00    +0.000 F 
ATOM     16  F   UNL     1       6.551   7.729  17.365  0.00  0.00    +0.000 F 
ENDBRANCH   1  14
BRANCH   4  17
ATOM     17  C   UNL     1       2.145   8.325  18.169  0.00  0.00    +0.000 C 
BRANCH  17  18
ATOM     18  C   UNL     1       1.567   8.978  19.412  0.00  0.00    +0.000 A 
ATOM     19  C   UNL     1       1.629   8.256  20.632  0.00  0.00    +0.000 A 
ATOM     20  C   UNL     1       1.111   8.781  21.820  0.00  0.00    +0.000 A 
ATOM     21  C   UNL     1       0.528  10.025  21.766  0.00  0.00    +0.000 A 
ATOM     22  C   UNL     1       0.466  10.743  20.596  0.00  0.00    +0.000 A 
ATOM     23  C   UNL     1       0.978  10.255  19.410  0.00  0.00    +0.000 A 
ATOM     24  O   UNL     1      -0.151  11.945  20.760  0.00  0.00    +0.000 OA
ATOM     25  C   UNL     1      -0.528  11.867  22.151  0.00  0.00    +0.000 C 
ATOM     26  O   UNL     1      -0.041  10.681  22.812  0.00  0.00    +0.000 OA
ENDBRANCH  17  18
ENDBRANCH   4  17
TORSDOF 3
ENDMDL
MODEL 8
REMARK VINA RESULT:      -8.4      1.448      1.977
REMARK  Name = 
REMARK  3 active torsions:
REMARK  status: ('A' for Active; 'I' for Inactive)
REMARK    1  A    between atoms: C_2  and  C_5
REMARK    2  A    between atoms: N_8  and  C_9
REMARK    3  A    between atoms: C_9  and  C_10
REMARK                            x       y       z     vdW  Elec       q    Type
REMARK                         _______ _______ _______ _____ _____    ______ ____
ROOT
ATOM      1  C   UNL     1       2.803   4.537  18.546  0.00  0.00    +0.000 A 
ATOM      2  N   UNL     1       2.500   5.833  18.329  0.00  0.00    +0.000 NA
ATOM      3  C   UNL     1       3.476   6.679  17.968  0.00  0.00    +0.000 A 
ATOM      4  N   UNL     1       3.108   8.009  17.850  0.00  0.00    +0.000 N 
ATOM      5  C   UNL     1       4.807   6.240  17.797  0.00  0.00    +0.000 A 
ATOM      6  C   UNL     1       5.911   7.038  17.389  0.00  0.00    +0.000 A 
ATOM      7  C   UNL     1       7.185   6.487  17.248  0.00  0.00    +0.000 A 
ATOM      8  C   UNL     1       7.380   5.138  17.511  0.00  0.00    +0.000 A 
ATOM      9  C   UNL     1       6.295   4.352  17.903  0.00  0.00    +0.000 A 
ATOM     10  C   UNL     1       5.015   4.876  18.042  0.00  0.00    +0.000 A 
ATOM     11  N   UNL     1       4.045   4.036  18.412  0.00  0.00    +0.000 NA
ATOM     12  H   UNL     1       3.759   8.689  17.493  0.00  0.00    +0.000 HD
ENDROOT
BRANCH   1  14
ATOM     13  F   UNL     1       0.902   4.067  19.989  0.00  0.00    +0.000 F 
ATOM     14  C   UNL     1       1.671   3.595  18.960  0.00  0.00    +0.000 C 
ATOM     15  F   UNL     1       2.113   2.369  19.376  0.00  0.00    +0.000 F 
ATOM     16  F   UNL     1       0.788   3.340  17.945  0.00  0.00    +0.000 F 
ENDBRANCH   1  14
BRANCH   4  17
ATOM     17  C   UNL     1       1.704   8.390  17.895  0.00  0.00    +0.000 C 
BRANCH  17  18
ATOM     18  C   UNL     1       1.283   9.037  19.203  0.00  0.00    +0.000 A 
ATOM     19  C   UNL     1       1.504   8.314  20.404  0.00  0.00    +0.000 A 
ATOM     20  C   UNL     1       1.135   8.833  21.649  0.00  0.00    +0.000 A 
ATOM     21  C   UNL     1       0.541  10.073  21.672  0.00  0.00    +0.000 A 
ATOM     22  C   UNL     1       0.326  10.791  20.520  0.00  0.00    +0.000 A 
ATOM     23  C   UNL     1       0.689  10.309  19.278  0.00  0.00    +0.000 A 
ATOM     24  O   UNL     1      -0.275  11.988  20.764  0.00  0.00    +0.000 OA
ATOM     25  C   UNL     1      -0.473  11.905  22.190  0.00  0.00    +0.000 C 
ATOM     26  O   UNL     1       0.103  10.723  22.782  0.00  0.00    +0.000 OA
ENDBRANCH  17  18
ENDBRANCH   4  17
TORSDOF 3
ENDMDL
MODEL 9
REMARK VINA RESULT:      -8.3      3.716      4.545
REMARK  Name = 
REMARK  3 active torsions:
REMARK  status: ('A' for Active; 'I' for Inactive)
REMARK    1  A    between atoms: C_2  and  C_5
REMARK    2  A    between atoms: N_8  and  C_9
REMARK    3  A    between atoms: C_9  and  C_10
REMARK                            x       y       z     vdW  Elec       q    Type
REMARK                         _______ _______ _______ _____ _____    ______ ____
ROOT
ATOM      1  C   UNL     1       5.431   5.985  17.639  0.00  0.00    +0.000 A 
ATOM      2  N   UNL     1       4.422   6.876  17.726  0.00  0.00    +0.000 NA
ATOM      3  C   UNL     1       3.166   6.427  17.865  0.00  0.00    +0.000 A 
ATOM      4  N   UNL     1       2.176   7.394  17.858  0.00  0.00    +0.000 N 
ATOM      5  C   UNL     1       2.879   5.046  17.937  0.00  0.00    +0.000 A 
ATOM      6  C   UNL     1       1.596   4.460  18.114  0.00  0.00    +0.000 A 
ATOM      7  C   UNL     1       1.438   3.075  18.176  0.00  0.00    +0.000 A 
ATOM      8  C   UNL     1       2.552   2.255  18.063  0.00  0.00    +0.000 A 
ATOM      9  C   UNL     1       3.813   2.829  17.898  0.00  0.00    +0.000 A 
ATOM     10  C   UNL     1       3.996   4.206  17.842  0.00  0.00    +0.000 A 
ATOM     11  N   UNL     1       5.247   4.652  17.692  0.00  0.00    +0.000 NA
ATOM     12  H   UNL     1       1.219   7.148  18.050  0.00  0.00    +0.000 HD
ENDROOT
BRANCH   1  14
ATOM     13  F   UNL     1       7.719   6.113  18.454  0.00  0.00    +0.000 F 
ATOM     14  C   UNL     1       6.854   6.524  17.477  0.00  0.00    +0.000 C 
ATOM     15  F   UNL     1       6.918   7.891  17.491  0.00  0.00    +0.000 F 
ATOM     16  F   UNL     1       7.439   6.143  16.299  0.00  0.00    +0.000 F 
ENDBRANCH   1  14
BRANCH   4  17
ATOM     17  C   UNL     1       2.526   8.806  17.925  0.00  0.00    +0.000 C 
BRANCH  17  18
ATOM     18  C   UNL     1       1.336   9.728  18.124  0.00  0.00    +0.000 A 
ATOM     19  C   UNL     1       1.580  11.023  18.650  0.00  0.00    +0.000 A 
ATOM     20  C   UNL     1       0.539  11.930  18.875  0.00  0.00    +0.000 A 
ATOM     21  C   UNL     1      -0.739  11.519  18.574  0.00  0.00    +0.000 A 
ATOM     22  C   UNL     1      -0.994  10.272  18.057  0.00  0.00    +0.000 A 
ATOM     23  C   UNL     1       0.015   9.360  17.815  0.00  0.00    +0.000 A 
ATOM     24  O   UNL     1      -2.320  10.067  17.834  0.00  0.00    +0.000 OA
ATOM     25  C   UNL     1      -2.872  11.303  18.335  0.00  0.00    +0.000 C 
ATOM     26  O   UNL     1      -1.869  12.255  18.743  0.00  0.00    +0.000 OA
ENDBRANCH  17  18
ENDBRANCH   4  17
TORSDOF 3
ENDMDL
