MODEL 1
REMARK VINA RESULT:      -7.8      0.000      0.000
REMARK  Name = 
REMARK  7 active torsions:
REMARK  status: ('A' for Active; 'I' for Inactive)
REMARK    1  A    between atoms: C_1  and  C_2
REMARK    2  A    between atoms: C_7  and  C_8
REMARK    3  A    between atoms: C_8  and  C_9
REMARK    4  A    between atoms: N_11  and  C_12
REMARK    5  A    between atoms: C_12  and  C_13
REMARK    6  A    between atoms: C_12  and  C_20
REMARK    7  A    between atoms: C_13  and  C_14
REMARK                            x       y       z     vdW  Elec       q    Type
REMARK                         _______ _______ _______ _____ _____    ______ ____
ROOT
ATOM      1  C   UNL     1       1.955   6.891  19.528  0.00  0.00    +0.000 C 
ENDROOT
BRANCH   1   2
ATOM      2  C   UNL     1       1.508   7.973  20.472  0.00  0.00    +0.000 A 
ATOM      3  N   UNL     1       1.248   7.978  21.769  0.00  0.00    +0.000 NA
ATOM      4  C   UNL     1       0.527   9.146  21.990  0.00  0.00    +0.000 A 
ATOM      5  C   UNL     1      -0.093   9.649  23.147  0.00  0.00    +0.000 A 
ATOM      6  C   UNL     1      -0.905  10.793  23.038  0.00  0.00    +0.000 A 
ATOM      7  C   UNL     1      -1.081  11.441  21.812  0.00  0.00    +0.000 A 
ATOM      8  C   UNL     1      -0.414  11.003  20.668  0.00  0.00    +0.000 A 
ATOM      9  C   UNL     1       0.381   9.865  20.810  0.00  0.00    +0.000 A 
ATOM     10  N   UNL     1       1.150   9.184  19.915  0.00  0.00    +0.000 N 
ATOM     11  H   UNL     1       1.279   9.437  18.946  0.00  0.00    +0.000 HD
ENDBRANCH   1   2
BRANCH   1  14
ATOM     12  C   UNL     1       3.523   7.547  17.793  0.00  0.00    +0.000 C 
ATOM     13  O   UNL     1       2.595   8.059  17.164  0.00  0.00    +0.000 OA
ATOM     14  N   UNL     1       3.323   6.990  19.048  0.00  0.00    +0.000 N 
ATOM     15  H   UNL     1       4.013   6.371  19.458  0.00  0.00    +0.000 HD
BRANCH  12  16
ATOM     16  C   UNL     1       4.940   7.535  17.235  0.00  0.00    +0.000 C 
BRANCH  16  23
ATOM     17  C   UNL     1       6.307   5.382  18.880  0.00  0.00    +0.000 C 
ATOM     18  C   UNL     1       6.018   5.207  17.415  0.00  0.00    +0.000 A 
ATOM     19  C   UNL     1       6.416   4.002  16.801  0.00  0.00    +0.000 A 
ATOM     20  C   UNL     1       6.232   3.792  15.441  0.00  0.00    +0.000 A 
ATOM     21  C   UNL     1       5.654   4.786  14.662  0.00  0.00    +0.000 A 
ATOM     22  C   UNL     1       5.240   5.979  15.259  0.00  0.00    +0.000 A 
ATOM     23  C   UNL     1       5.380   6.205  16.642  0.00  0.00    +0.000 A 
ENDBRANCH  16  23
ENDBRANCH  12  16
ENDBRANCH   1  14
BRANCH   1  24
ATOM     24  C   UNL     1       1.579   5.493  20.072  0.00  0.00    +0.000 C 
BRANCH  24  25
ATOM     25  C   UNL     1       2.146   4.269  19.387  0.00  0.00    +0.000 A 
ATOM     26  C   UNL     1       1.918   4.028  18.023  0.00  0.00    +0.000 A 
ATOM     27  C   UNL     1       2.589   2.995  17.363  0.00  0.00    +0.000 A 
ATOM     28  C   UNL     1       3.482   2.184  18.060  0.00  0.00    +0.000 A 
ATOM     29  C   UNL     1       3.682   2.387  19.425  0.00  0.00    +0.000 A 
ATOM     30  C   UNL     1       3.015   3.422  20.085  0.00  0.00    +0.000 A 
ENDBRANCH  24  25
ENDBRANCH   1  24
TORSDOF 6
ENDMDL
MODEL 2
REMARK VINA RESULT:      -7.8      2.247      7.718
REMARK  Name = 
REMARK  7 active torsions:
REMARK  status: ('A' for Active; 'I' for Inactive)
REMARK    1  A    between atoms: C_1  and  C_2
REMARK    2  A    between atoms: C_7  and  C_8
REMARK    3  A    between atoms: C_8  and  C_9
REMARK    4  A    between atoms: N_11  and  C_12
REMARK    5  A    between atoms: C_12  and  C_13
REMARK    6  A    between atoms: C_12  and  C_20
REMARK    7  A    between atoms: C_13  and  C_14
REMARK                            x       y       z     vdW  Elec       q    Type
REMARK                         _______ _______ _______ _____ _____    ______ ____
ROOT
ATOM      1  C   UNL     1       4.996   4.909  17.343  0.00  0.00    +0.000 C 
ENDROOT
BRANCH   1   2
ATOM      2  C   UNL     1       5.868   4.708  16.135  0.00  0.00    +0.000 A 
ATOM      3  N   UNL     1       6.850   5.423  15.611  0.00  0.00    +0.000 NA
ATOM      4  C   UNL     1       7.004   4.935  14.318  0.00  0.00    +0.000 A 
ATOM      5  C   UNL     1       7.829   5.355  13.261  0.00  0.00    +0.000 A 
ATOM      6  C   UNL     1       7.654   4.771  11.992  0.00  0.00    +0.000 A 
ATOM      7  C   UNL     1       6.698   3.773  11.780  0.00  0.00    +0.000 A 
ATOM      8  C   UNL     1       5.923   3.290  12.834  0.00  0.00    +0.000 A 
ATOM      9  C   UNL     1       6.119   3.892  14.077  0.00  0.00    +0.000 A 
ATOM     10  N   UNL     1       5.540   3.667  15.290  0.00  0.00    +0.000 N 
ATOM     11  H   UNL     1       4.842   2.964  15.481  0.00  0.00    +0.000 HD
ENDBRANCH   1   2
BRANCH   1  14
ATOM     12  C   UNL     1       4.035   7.130  17.555  0.00  0.00    +0.000 C 
ATOM     13  O   UNL     1       5.137   7.560  17.903  0.00  0.00    +0.000 OA
ATOM     14  N   UNL     1       3.866   5.807  17.171  0.00  0.00    +0.000 N 
ATOM     15  H   UNL     1       2.941   5.396  17.115  0.00  0.00    +0.000 HD
BRANCH  12  16
ATOM     16  C   UNL     1       2.817   8.042  17.496  0.00  0.00    +0.000 C 
BRANCH  16  23
ATOM     17  C   UNL     1       1.254  10.533  18.244  0.00  0.00    +0.000 C 
ATOM     18  C   UNL     1       1.327   9.333  19.147  0.00  0.00    +0.000 A 
ATOM     19  C   UNL     1       0.651   9.391  20.383  0.00  0.00    +0.000 A 
ATOM     20  C   UNL     1       0.719   8.344  21.291  0.00  0.00    +0.000 A 
ATOM     21  C   UNL     1       1.470   7.216  20.988  0.00  0.00    +0.000 A 
ATOM     22  C   UNL     1       2.132   7.136  19.760  0.00  0.00    +0.000 A 
ATOM     23  C   UNL     1       2.052   8.168  18.805  0.00  0.00    +0.000 A 
ENDBRANCH  16  23
ENDBRANCH  12  16
ENDBRANCH   1  14
BRANCH   1  24
ATOM     24  C   UNL     1       4.628   3.553  17.991  0.00  0.00    +0.000 C 
BRANCH  24  25
ATOM     25  C   UNL     1       3.321   3.436  18.742  0.00  0.00    +0.000 A 
ATOM     26  C   UNL     1       2.177   2.898  18.131  0.00  0.00    +0.000 A 
ATOM     27  C   UNL     1       1.029   2.633  18.883  0.00  0.00    +0.000 A 
ATOM     28  C   UNL     1       1.007   2.914  20.248  0.00  0.00    +0.000 A 
ATOM     29  C   UNL     1       2.122   3.489  20.855  0.00  0.00    +0.000 A 
ATOM     30  C   UNL     1       3.271   3.752  20.105  0.00  0.00    +0.000 A 
ENDBRANCH  24  25
ENDBRANCH   1  24
TORSDOF 6
ENDMDL
MODEL 3
REMARK VINA RESULT:      -7.6      0.763      1.233
REMARK  Name = 
REMARK  7 active torsions:
REMARK  status: ('A' for Active; 'I' for Inactive)
REMARK    1  A    between atoms: C_1  and  C_2
REMARK    2  A    between atoms: C_7  and  C_8
REMARK    3  A    between atoms: C_8  and  C_9
REMARK    4  A    between atoms: N_11  and  C_12
REMARK    5  A    between atoms: C_12  and  C_13
REMARK    6  A    between atoms: C_12  and  C_20
REMARK    7  A    between atoms: C_13  and  C_14
REMARK                            x       y       z     vdW  Elec       q    Type
REMARK                         _______ _______ _______ _____ _____    ______ ____
ROOT
ATOM      1  C   UNL     1       1.991   6.844  19.492  0.00  0.00    +0.000 C 
ENDROOT
BRANCH   1   2
ATOM      2  C   UNL     1       1.548   7.910  20.456  0.00  0.00    +0.000 A 
ATOM      3  N   UNL     1       1.258   7.885  21.747  0.00  0.00    +0.000 NA
ATOM      4  C   UNL     1       0.561   9.064  21.984  0.00  0.00    +0.000 A 
ATOM      5  C   UNL     1      -0.072   9.550  23.141  0.00  0.00    +0.000 A 
ATOM      6  C   UNL     1      -0.854  10.717  23.047  0.00  0.00    +0.000 A 
ATOM      7  C   UNL     1      -0.985  11.403  21.836  0.00  0.00    +0.000 A 
ATOM      8  C   UNL     1      -0.303  10.980  20.696  0.00  0.00    +0.000 A 
ATOM      9  C   UNL     1       0.461   9.819  20.823  0.00  0.00    +0.000 A 
ATOM     10  N   UNL     1       1.233   9.145  19.926  0.00  0.00    +0.000 N 
ATOM     11  H   UNL     1       1.391   9.421  18.968  0.00  0.00    +0.000 HD
ENDBRANCH   1   2
BRANCH   1  14
ATOM     12  C   UNL     1       3.313   7.768  17.676  0.00  0.00    +0.000 C 
ATOM     13  O   UNL     1       2.303   8.322  17.238  0.00  0.00    +0.000 OA
ATOM     14  N   UNL     1       3.284   7.051  18.864  0.00  0.00    +0.000 N 
ATOM     15  H   UNL     1       4.033   6.410  19.102  0.00  0.00    +0.000 HD
BRANCH  12  16
ATOM     16  C   UNL     1       4.647   7.877  16.950  0.00  0.00    +0.000 C 
BRANCH  16  23
ATOM     17  C   UNL     1       7.578   7.638  17.703  0.00  0.00    +0.000 C 
ATOM     18  C   UNL     1       6.786   6.468  17.189  0.00  0.00    +0.000 A 
ATOM     19  C   UNL     1       7.448   5.231  17.046  0.00  0.00    +0.000 A 
ATOM     20  C   UNL     1       6.796   4.121  16.527  0.00  0.00    +0.000 A 
ATOM     21  C   UNL     1       5.469   4.224  16.130  0.00  0.00    +0.000 A 
ATOM     22  C   UNL     1       4.795   5.438  16.281  0.00  0.00    +0.000 A 
ATOM     23  C   UNL     1       5.420   6.571  16.838  0.00  0.00    +0.000 A 
ENDBRANCH  16  23
ENDBRANCH  12  16
ENDBRANCH   1  14
BRANCH   1  24
ATOM     24  C   UNL     1       1.806   5.435  20.103  0.00  0.00    +0.000 C 
BRANCH  24  25
ATOM     25  C   UNL     1       2.432   4.250  19.401  0.00  0.00    +0.000 A 
ATOM     26  C   UNL     1       3.543   3.587  19.947  0.00  0.00    +0.000 A 
ATOM     27  C   UNL     1       4.002   2.393  19.385  0.00  0.00    +0.000 A 
ATOM     28  C   UNL     1       3.366   1.856  18.267  0.00  0.00    +0.000 A 
ATOM     29  C   UNL     1       2.290   2.530  17.691  0.00  0.00    +0.000 A 
ATOM     30  C   UNL     1       1.829   3.722  18.254  0.00  0.00    +0.000 A 
ENDBRANCH  24  25
ENDBRANCH   1  24
TORSDOF 6
ENDMDL
MODEL 4
REMARK VINA RESULT:      -7.3      0.875      1.253
REMARK  Name = 
REMARK  7 active torsions:
REMARK  status: ('A' for Active; 'I' for Inactive)
REMARK    1  A    between atoms: C_1  and  C_2
REMARK    2  A    between atoms: C_7  and  C_8
REMARK    3  A    between atoms: C_8  and  C_9
REMARK    4  A    between atoms: N_11  and  C_12
REMARK    5  A    between atoms: C_12  and  C_13
REMARK    6  A    between atoms: C_12  and  C_20
REMARK    7  A    between atoms: C_13  and  C_14
REMARK                            x       y       z     vdW  Elec       q    Type
REMARK                         _______ _______ _______ _____ _____    ______ ____
ROOT
ATOM      1  C   UNL     1       1.795   7.040  20.006  0.00  0.00    +0.000 C 
ENDROOT
BRANCH   1   2
ATOM      2  C   UNL     1       1.302   8.266  20.724  0.00  0.00    +0.000 A 
ATOM      3  N   UNL     1       0.972   8.492  21.985  0.00  0.00    +0.000 NA
ATOM      4  C   UNL     1       0.246   9.679  21.962  0.00  0.00    +0.000 A 
ATOM      5  C   UNL     1      -0.433  10.370  22.980  0.00  0.00    +0.000 A 
ATOM      6  C   UNL     1      -1.232  11.475  22.632  0.00  0.00    +0.000 A 
ATOM      7  C   UNL     1      -1.337  11.902  21.305  0.00  0.00    +0.000 A 
ATOM      8  C   UNL     1      -0.611  11.277  20.292  0.00  0.00    +0.000 A 
ATOM      9  C   UNL     1       0.169  10.183  20.670  0.00  0.00    +0.000 A 
ATOM     10  N   UNL     1       0.982   9.362  19.949  0.00  0.00    +0.000 N 
ATOM     11  H   UNL     1       1.165   9.445  18.960  0.00  0.00    +0.000 HD
ENDBRANCH   1   2
BRANCH   1  14
ATOM     12  C   UNL     1       3.383   7.305  18.188  0.00  0.00    +0.000 C 
ATOM     13  O   UNL     1       2.451   7.584  17.430  0.00  0.00    +0.000 OA
ATOM     14  N   UNL     1       3.171   7.084  19.541  0.00  0.00    +0.000 N 
ATOM     15  H   UNL     1       3.876   6.631  20.110  0.00  0.00    +0.000 HD
BRANCH  12  16
ATOM     16  C   UNL     1       4.815   7.224  17.676  0.00  0.00    +0.000 C 
BRANCH  16  23
ATOM     17  C   UNL     1       5.238   4.462  18.860  0.00  0.00    +0.000 C 
ATOM     18  C   UNL     1       5.316   4.719  17.381  0.00  0.00    +0.000 A 
ATOM     19  C   UNL     1       5.611   3.631  16.534  0.00  0.00    +0.000 A 
ATOM     20  C   UNL     1       5.753   3.802  15.164  0.00  0.00    +0.000 A 
ATOM     21  C   UNL     1       5.612   5.068  14.610  0.00  0.00    +0.000 A 
ATOM     22  C   UNL     1       5.304   6.153  15.434  0.00  0.00    +0.000 A 
ATOM     23  C   UNL     1       5.119   6.003  16.822  0.00  0.00    +0.000 A 
ENDBRANCH  16  23
ENDBRANCH  12  16
ENDBRANCH   1  14
BRANCH   1  24
ATOM     24  C   UNL     1       1.438   5.757  20.793  0.00  0.00    +0.000 C 
BRANCH  24  25
ATOM     25  C   UNL     1       1.699   4.413  20.152  0.00  0.00    +0.000 A 
ATOM     26  C   UNL     1       1.977   3.278  20.930  0.00  0.00    +0.000 A 
ATOM     27  C   UNL     1       2.042   2.012  20.340  0.00  0.00    +0.000 A 
ATOM     28  C   UNL     1       1.843   1.869  18.969  0.00  0.00    +0.000 A 
ATOM     29  C   UNL     1       1.611   2.995  18.180  0.00  0.00    +0.000 A 
ATOM     30  C   UNL     1       1.543   4.260  18.769  0.00  0.00    +0.000 A 
ENDBRANCH  24  25
ENDBRANCH   1  24
TORSDOF 6
ENDMDL
MODEL 5
REMARK VINA RESULT:      -7.2      0.779      1.458
REMARK  Name = 
REMARK  7 active torsions:
REMARK  status: ('A' for Active; 'I' for Inactive)
REMARK    1  A    between atoms: C_1  and  C_2
REMARK    2  A    between atoms: C_7  and  C_8
REMARK    3  A    between atoms: C_8  and  C_9
REMARK    4  A    between atoms: N_11  and  C_12
REMARK    5  A    between atoms: C_12  and  C_13
REMARK    6  A    between atoms: C_12  and  C_20
REMARK    7  A    between atoms: C_13  and  C_14
REMARK                            x       y       z     vdW  Elec       q    Type
REMARK                         _______ _______ _______ _____ _____    ______ ____
ROOT
ATOM      1  C   UNL     1       2.164   6.621  19.506  0.00  0.00    +0.000 C 
ENDROOT
BRANCH   1   2
ATOM      2  C   UNL     1       1.721   7.773  20.366  0.00  0.00    +0.000 A 
ATOM      3  N   UNL     1       1.492   7.884  21.665  0.00  0.00    +0.000 NA
ATOM      4  C   UNL     1       0.757   9.056  21.804  0.00  0.00    +0.000 A 
ATOM      5  C   UNL     1       0.157   9.646  22.929  0.00  0.00    +0.000 A 
ATOM      6  C   UNL     1      -0.677  10.764  22.744  0.00  0.00    +0.000 A 
ATOM      7  C   UNL     1      -0.894  11.303  21.473  0.00  0.00    +0.000 A 
ATOM      8  C   UNL     1      -0.247  10.779  20.354  0.00  0.00    +0.000 A 
ATOM      9  C   UNL     1       0.570   9.669  20.572  0.00  0.00    +0.000 A 
ATOM     10  N   UNL     1       1.329   8.926  19.718  0.00  0.00    +0.000 N 
ATOM     11  H   UNL     1       1.430   9.097  18.728  0.00  0.00    +0.000 HD
ENDBRANCH   1   2
BRANCH   1  14
ATOM     12  C   UNL     1       3.392   7.444  17.580  0.00  0.00    +0.000 C 
ATOM     13  O   UNL     1       2.358   7.967  17.159  0.00  0.00    +0.000 OA
ATOM     14  N   UNL     1       3.425   6.797  18.807  0.00  0.00    +0.000 N 
ATOM     15  H   UNL     1       4.188   6.174  19.045  0.00  0.00    +0.000 HD
BRANCH  12  16
ATOM     16  C   UNL     1       4.690   7.517  16.786  0.00  0.00    +0.000 C 
BRANCH  16  23
ATOM     17  C   UNL     1       4.600   4.605  15.934  0.00  0.00    +0.000 C 
ATOM     18  C   UNL     1       5.699   5.152  16.803  0.00  0.00    +0.000 A 
ATOM     19  C   UNL     1       6.704   4.263  17.237  0.00  0.00    +0.000 A 
ATOM     20  C   UNL     1       7.719   4.683  18.085  0.00  0.00    +0.000 A 
ATOM     21  C   UNL     1       7.749   5.999  18.526  0.00  0.00    +0.000 A 
ATOM     22  C   UNL     1       6.770   6.896  18.092  0.00  0.00    +0.000 A 
ATOM     23  C   UNL     1       5.749   6.507  17.203  0.00  0.00    +0.000 A 
ENDBRANCH  16  23
ENDBRANCH  12  16
ENDBRANCH   1  14
BRANCH   1  24
ATOM     24  C   UNL     1       2.052   5.283  20.274  0.00  0.00    +0.000 C 
BRANCH  24  25
ATOM     25  C   UNL     1       2.462   4.006  19.575  0.00  0.00    +0.000 A 
ATOM     26  C   UNL     1       1.772   3.544  18.443  0.00  0.00    +0.000 A 
ATOM     27  C   UNL     1       2.265   2.465  17.703  0.00  0.00    +0.000 A 
ATOM     28  C   UNL     1       3.442   1.829  18.094  0.00  0.00    +0.000 A 
ATOM     29  C   UNL     1       4.110   2.251  19.242  0.00  0.00    +0.000 A 
ATOM     30  C   UNL     1       3.620   3.332  19.979  0.00  0.00    +0.000 A 
ENDBRANCH  24  25
ENDBRANCH   1  24
TORSDOF 6
ENDMDL
MODEL 6
REMARK VINA RESULT:      -7.2      1.443      6.664
REMARK  Name = 
REMARK  7 active torsions:
REMARK  status: ('A' for Active; 'I' for Inactive)
REMARK    1  A    between atoms: C_1  and  C_2
REMARK    2  A    between atoms: C_7  and  C_8
REMARK    3  A    between atoms: C_8  and  C_9
REMARK    4  A    between atoms: N_11  and  C_12
REMARK    5  A    between atoms: C_12  and  C_13
REMARK    6  A    between atoms: C_12  and  C_20
REMARK    7  A    between atoms: C_13  and  C_14
REMARK                            x       y       z     vdW  Elec       q    Type
REMARK                         _______ _______ _______ _____ _____    ______ ____
ROOT
ATOM      1  C   UNL     1       3.293   7.467  17.722  0.00  0.00    +0.000 C 
ENDROOT
BRANCH   1   2
ATOM      2  C   UNL     1       2.962   6.110  18.282  0.00  0.00    +0.000 A 
ATOM      3  N   UNL     1       2.269   5.090  17.804  0.00  0.00    +0.000 NA
ATOM      4  C   UNL     1       1.999   4.288  18.907  0.00  0.00    +0.000 A 
ATOM      5  C   UNL     1       1.231   3.118  19.037  0.00  0.00    +0.000 A 
ATOM      6  C   UNL     1       0.994   2.602  20.325  0.00  0.00    +0.000 A 
ATOM      7  C   UNL     1       1.526   3.219  21.461  0.00  0.00    +0.000 A 
ATOM      8  C   UNL     1       2.354   4.336  21.347  0.00  0.00    +0.000 A 
ATOM      9  C   UNL     1       2.566   4.823  20.056  0.00  0.00    +0.000 A 
ATOM     10  N   UNL     1       3.302   5.875  19.598  0.00  0.00    +0.000 N 
ATOM     11  H   UNL     1       3.858   6.491  20.173  0.00  0.00    +0.000 HD
ENDBRANCH   1   2
BRANCH   1  14
ATOM     12  C   UNL     1       1.604   9.150  18.180  0.00  0.00    +0.000 C 
ATOM     13  O   UNL     1       0.861   8.612  17.356  0.00  0.00    +0.000 OA
ATOM     14  N   UNL     1       2.839   8.605  18.502  0.00  0.00    +0.000 N 
ATOM     15  H   UNL     1       3.538   9.155  18.987  0.00  0.00    +0.000 HD
BRANCH  12  16
ATOM     16  C   UNL     1       1.182  10.420  18.908  0.00  0.00    +0.000 C 
BRANCH  16  23
ATOM     17  C   UNL     1      -0.078  12.658  20.525  0.00  0.00    +0.000 C 
ATOM     18  C   UNL     1      -0.030  11.240  21.022  0.00  0.00    +0.000 A 
ATOM     19  C   UNL     1      -0.581  10.964  22.290  0.00  0.00    +0.000 A 
ATOM     20  C   UNL     1      -0.525   9.690  22.839  0.00  0.00    +0.000 A 
ATOM     21  C   UNL     1       0.092   8.664  22.136  0.00  0.00    +0.000 A 
ATOM     22  C   UNL     1       0.629   8.917  20.871  0.00  0.00    +0.000 A 
ATOM     23  C   UNL     1       0.554  10.191  20.275  0.00  0.00    +0.000 A 
ENDBRANCH  16  23
ENDBRANCH  12  16
ENDBRANCH   1  14
BRANCH   1  24
ATOM     24  C   UNL     1       4.781   7.544  17.305  0.00  0.00    +0.000 C 
BRANCH  24  25
ATOM     25  C   UNL     1       5.437   6.314  16.719  0.00  0.00    +0.000 A 
ATOM     26  C   UNL     1       5.170   5.906  15.402  0.00  0.00    +0.000 A 
ATOM     27  C   UNL     1       5.911   4.876  14.815  0.00  0.00    +0.000 A 
ATOM     28  C   UNL     1       6.915   4.237  15.539  0.00  0.00    +0.000 A 
ATOM     29  C   UNL     1       7.158   4.604  16.861  0.00  0.00    +0.000 A 
ATOM     30  C   UNL     1       6.420   5.635  17.448  0.00  0.00    +0.000 A 
ENDBRANCH  24  25
ENDBRANCH   1  24
TORSDOF 6
ENDMDL
MODEL 7
REMARK VINA RESULT:      -7.2      2.166      7.390
REMARK  Name = 
REMARK  7 active torsions:
REMARK  status: ('A' for Active; 'I' for Inactive)
REMARK    1  A    between atoms: C_1  and  C_2
REMARK    2  A    between atoms: C_7  and  C_8
REMARK    3  A    between atoms: C_8  and  C_9
REMARK    4  A    between atoms: N_11  and  C_12
REMARK    5  A    between atoms: C_12  and  C_13
REMARK    6  A    between atoms: C_12  and  C_20
REMARK    7  A    between atoms: C_13  and  C_14
REMARK                            x       y       z     vdW  Elec       q    Type
REMARK                         _______ _______ _______ _____ _____    ______ ____
ROOT
ATOM      1  C   UNL     1       2.880   6.781  18.398  0.00  0.00    +0.000 C 
ENDROOT
BRANCH   1   2
ATOM      2  C   UNL     1       4.105   6.173  17.773  0.00  0.00    +0.000 A 
ATOM      3  N   UNL     1       5.333   6.627  17.586  0.00  0.00    +0.000 NA
ATOM      4  C   UNL     1       5.893   5.777  16.638  0.00  0.00    +0.000 A 
ATOM      5  C   UNL     1       7.137   5.808  15.984  0.00  0.00    +0.000 A 
ATOM      6  C   UNL     1       7.374   4.900  14.936  0.00  0.00    +0.000 A 
ATOM      7  C   UNL     1       6.408   3.962  14.558  0.00  0.00    +0.000 A 
ATOM      8  C   UNL     1       5.198   3.865  15.246  0.00  0.00    +0.000 A 
ATOM      9  C   UNL     1       4.994   4.782  16.277  0.00  0.00    +0.000 A 
ATOM     10  N   UNL     1       3.947   4.962  17.130  0.00  0.00    +0.000 N 
ATOM     11  H   UNL     1       3.108   4.401  17.150  0.00  0.00    +0.000 HD
ENDBRANCH   1   2
BRANCH   1  14
ATOM     12  C   UNL     1       1.801   8.906  18.867  0.00  0.00    +0.000 C 
ATOM     13  O   UNL     1       1.497   8.491  19.987  0.00  0.00    +0.000 OA
ATOM     14  N   UNL     1       2.573   8.145  18.001  0.00  0.00    +0.000 N 
ATOM     15  H   UNL     1       2.624   8.372  17.014  0.00  0.00    +0.000 HD
BRANCH  12  16
ATOM     16  C   UNL     1       1.371  10.289  18.397  0.00  0.00    +0.000 C 
BRANCH  16  23
ATOM     17  C   UNL     1      -0.055  12.176  20.300  0.00  0.00    +0.000 C 
ATOM     18  C   UNL     1      -0.791  11.390  19.251  0.00  0.00    +0.000 A 
ATOM     19  C   UNL     1      -2.191  11.537  19.174  0.00  0.00    +0.000 A 
ATOM     20  C   UNL     1      -2.944  10.803  18.268  0.00  0.00    +0.000 A 
ATOM     21  C   UNL     1      -2.316   9.898  17.423  0.00  0.00    +0.000 A 
ATOM     22  C   UNL     1      -0.927   9.752  17.476  0.00  0.00    +0.000 A 
ATOM     23  C   UNL     1      -0.134  10.510  18.360  0.00  0.00    +0.000 A 
ENDBRANCH  16  23
ENDBRANCH  12  16
ENDBRANCH   1  14
BRANCH   1  24
ATOM     24  C   UNL     1       1.676   5.814  18.308  0.00  0.00    +0.000 C 
BRANCH  24  25
ATOM     25  C   UNL     1       1.566   4.693  19.318  0.00  0.00    +0.000 A 
ATOM     26  C   UNL     1       1.157   3.406  18.933  0.00  0.00    +0.000 A 
ATOM     27  C   UNL     1       1.228   2.340  19.834  0.00  0.00    +0.000 A 
ATOM     28  C   UNL     1       1.696   2.550  21.130  0.00  0.00    +0.000 A 
ATOM     29  C   UNL     1       2.063   3.832  21.535  0.00  0.00    +0.000 A 
ATOM     30  C   UNL     1       1.995   4.898  20.634  0.00  0.00    +0.000 A 
ENDBRANCH  24  25
ENDBRANCH   1  24
TORSDOF 6
ENDMDL
MODEL 8
REMARK VINA RESULT:      -7.1      2.113      7.632
REMARK  Name = 
REMARK  7 active torsions:
REMARK  status: ('A' for Active; 'I' for Inactive)
REMARK    1  A    between atoms: C_1  and  C_2
REMARK    2  A    between atoms: C_7  and  C_8
REMARK    3  A    between atoms: C_8  and  C_9
REMARK    4  A    between atoms: N_11  and  C_12
REMARK    5  A    between atoms: C_12  and  C_13
REMARK    6  A    between atoms: C_12  and  C_20
REMARK    7  A    between atoms: C_13  and  C_14
REMARK                            x       y       z     vdW  Elec       q    Type
REMARK                         _______ _______ _______ _____ _____    ______ ____
ROOT
ATOM      1  C   UNL     1       4.980   5.010  17.628  0.00  0.00    +0.000 C 
ENDROOT
BRANCH   1   2
ATOM      2  C   UNL     1       5.853   4.817  16.419  0.00  0.00    +0.000 A 
ATOM      3  N   UNL     1       6.813   5.551  15.881  0.00  0.00    +0.000 NA
ATOM      4  C   UNL     1       6.975   5.050  14.595  0.00  0.00    +0.000 A 
ATOM      5  C   UNL     1       7.784   5.478  13.528  0.00  0.00    +0.000 A 
ATOM      6  C   UNL     1       7.621   4.872  12.268  0.00  0.00    +0.000 A 
ATOM      7  C   UNL     1       6.692   3.846  12.074  0.00  0.00    +0.000 A 
ATOM      8  C   UNL     1       5.935   3.356  13.137  0.00  0.00    +0.000 A 
ATOM      9  C   UNL     1       6.119   3.980  14.372  0.00  0.00    +0.000 A 
ATOM     10  N   UNL     1       5.551   3.756  15.590  0.00  0.00    +0.000 N 
ATOM     11  H   UNL     1       4.873   3.036  15.793  0.00  0.00    +0.000 HD
ENDBRANCH   1   2
BRANCH   1  14
ATOM     12  C   UNL     1       3.579   6.993  17.675  0.00  0.00    +0.000 C 
ATOM     13  O   UNL     1       4.562   7.666  17.991  0.00  0.00    +0.000 OA
ATOM     14  N   UNL     1       3.692   5.640  17.390  0.00  0.00    +0.000 N 
ATOM     15  H   UNL     1       2.873   5.044  17.363  0.00  0.00    +0.000 HD
BRANCH  12  16
ATOM     16  C   UNL     1       2.200   7.627  17.549  0.00  0.00    +0.000 C 
BRANCH  16  23
ATOM     17  C   UNL     1       1.960   6.459  20.340  0.00  0.00    +0.000 C 
ATOM     18  C   UNL     1       1.656   7.902  20.047  0.00  0.00    +0.000 A 
ATOM     19  C   UNL     1       1.232   8.719  21.115  0.00  0.00    +0.000 A 
ATOM     20  C   UNL     1       0.881  10.046  20.911  0.00  0.00    +0.000 A 
ATOM     21  C   UNL     1       0.936  10.585  19.632  0.00  0.00    +0.000 A 
ATOM     22  C   UNL     1       1.369   9.793  18.566  0.00  0.00    +0.000 A 
ATOM     23  C   UNL     1       1.766   8.454  18.750  0.00  0.00    +0.000 A 
ENDBRANCH  16  23
ENDBRANCH  12  16
ENDBRANCH   1  14
BRANCH   1  24
ATOM     24  C   UNL     1       4.899   3.711  18.464  0.00  0.00    +0.000 C 
BRANCH  24  25
ATOM     25  C   UNL     1       3.551   3.260  18.980  0.00  0.00    +0.000 A 
ATOM     26  C   UNL     1       3.311   3.115  20.356  0.00  0.00    +0.000 A 
ATOM     27  C   UNL     1       2.018   2.870  20.829  0.00  0.00    +0.000 A 
ATOM     28  C   UNL     1       0.957   2.755  19.933  0.00  0.00    +0.000 A 
ATOM     29  C   UNL     1       1.192   2.853  18.563  0.00  0.00    +0.000 A 
ATOM     30  C   UNL     1       2.483   3.101  18.090  0.00  0.00    +0.000 A 
ENDBRANCH  24  25
ENDBRANCH   1  24
TORSDOF 6
ENDMDL
MODEL 9
REMARK VINA RESULT:      -7.1      2.041      7.581
REMARK  Name = 
REMARK  7 active torsions:
REMARK  status: ('A' for Active; 'I' for Inactive)
REMARK    1  A    between atoms: C_1  and  C_2
REMARK    2  A    between atoms: C_7  and  C_8
REMARK    3  A    between atoms: C_8  and  C_9
REMARK    4  A    between atoms: N_11  and  C_12
REMARK    5  A    between atoms: C_12  and  C_13
REMARK    6  A    between atoms: C_12  and  C_20
REMARK    7  A    between atoms: C_13  and  C_14
REMARK                            x       y       z     vdW  Elec       q    Type
REMARK                         _______ _______ _______ _____ _____    ______ ____
ROOT
ATOM      1  C   UNL     1       2.940   6.491  18.210  0.00  0.00    +0.000 C 
ENDROOT
BRANCH   1   2
ATOM      2  C   UNL     1       4.171   5.906  17.576  0.00  0.00    +0.000 A 
ATOM      3  N   UNL     1       5.435   6.297  17.546  0.00  0.00    +0.000 NA
ATOM      4  C   UNL     1       6.014   5.571  16.511  0.00  0.00    +0.000 A 
ATOM      5  C   UNL     1       7.303   5.619  15.953  0.00  0.00    +0.000 A 
ATOM      6  C   UNL     1       7.565   4.874  14.788  0.00  0.00    +0.000 A 
ATOM      7  C   UNL     1       6.578   4.078  14.201  0.00  0.00    +0.000 A 
ATOM      8  C   UNL     1       5.316   3.958  14.782  0.00  0.00    +0.000 A 
ATOM      9  C   UNL     1       5.088   4.711  15.935  0.00  0.00    +0.000 A 
ATOM     10  N   UNL     1       3.992   4.827  16.735  0.00  0.00    +0.000 N 
ATOM     11  H   UNL     1       3.122   4.329  16.608  0.00  0.00    +0.000 HD
ENDBRANCH   1   2
BRANCH   1  14
ATOM     12  C   UNL     1       1.922   8.641  18.701  0.00  0.00    +0.000 C 
ATOM     13  O   UNL     1       1.763   8.286  19.870  0.00  0.00    +0.000 OA
ATOM     14  N   UNL     1       2.581   7.834  17.785  0.00  0.00    +0.000 N 
ATOM     15  H   UNL     1       2.508   8.010  16.790  0.00  0.00    +0.000 HD
BRANCH  12  16
ATOM     16  C   UNL     1       1.433  10.000  18.218  0.00  0.00    +0.000 C 
BRANCH  16  23
ATOM     17  C   UNL     1      -1.535  10.141  17.599  0.00  0.00    +0.000 C 
ATOM     18  C   UNL     1      -0.948  10.744  18.844  0.00  0.00    +0.000 A 
ATOM     19  C   UNL     1      -1.819  11.405  19.734  0.00  0.00    +0.000 A 
ATOM     20  C   UNL     1      -1.342  12.034  20.876  0.00  0.00    +0.000 A 
ATOM     21  C   UNL     1       0.019  12.024  21.150  0.00  0.00    +0.000 A 
ATOM     22  C   UNL     1       0.894  11.359  20.287  0.00  0.00    +0.000 A 
ATOM     23  C   UNL     1       0.433  10.682  19.141  0.00  0.00    +0.000 A 
ENDBRANCH  16  23
ENDBRANCH  12  16
ENDBRANCH   1  14
BRANCH   1  24
ATOM     24  C   UNL     1       1.766   5.485  18.170  0.00  0.00    +0.000 C 
BRANCH  24  25
ATOM     25  C   UNL     1       1.632   4.478  19.291  0.00  0.00    +0.000 A 
ATOM     26  C   UNL     1       1.197   3.167  19.042  0.00  0.00    +0.000 A 
ATOM     27  C   UNL     1       1.245   2.200  20.051  0.00  0.00    +0.000 A 
ATOM     28  C   UNL     1       1.714   2.536  21.319  0.00  0.00    +0.000 A 
ATOM     29  C   UNL     1       2.105   3.846  21.589  0.00  0.00    +0.000 A 
ATOM     30  C   UNL     1       2.061   4.812  20.581  0.00  0.00    +0.000 A 
ENDBRANCH  24  25
ENDBRANCH   1  24
TORSDOF 6
ENDMDL
