MODEL 1
REMARK VINA RESULT:      -8.3      0.000      0.000
REMARK  Name = 
REMARK  6 active torsions:
REMARK  status: ('A' for Active; 'I' for Inactive)
REMARK    1  A    between atoms: C_1  and  C_2
REMARK    2  A    between atoms: C_6  and  O_7
REMARK    3  A    between atoms: O_7  and  C_8
REMARK    4  A    between atoms: C_11  and  N_12
REMARK    5  A    between atoms: C_13  and  C_15
REMARK    6  A    between atoms: C_17  and  C_18
REMARK                            x       y       z     vdW  Elec       q    Type
REMARK                         _______ _______ _______ _____ _____    ______ ____
ROOT
ATOM      1  C   UNL     1       6.348   5.279  18.435  0.00  0.00    +0.000 A 
ATOM      2  C   UNL     1       5.763   6.190  17.560  0.00  0.00    +0.000 A 
ATOM      3  C   UNL     1       6.401   7.395  17.261  0.00  0.00    +0.000 A 
ATOM      4  C   UNL     1       7.616   7.738  17.858  0.00  0.00    +0.000 A 
ATOM      5  C   UNL     1       8.167   6.853  18.795  0.00  0.00    +0.000 A 
ATOM      6  C   UNL     1       7.535   5.633  19.083  0.00  0.00    +0.000 A 
ENDROOT
BRANCH   4   7
ATOM      7  N   UNL     1       8.333   8.915  17.531  0.00  0.00    +0.000 N 
ATOM      8  C   UNL     1       8.865   9.814  18.435  0.00  0.00    +0.000 C 
ATOM      9  O   UNL     1       8.937   9.681  19.650  0.00  0.00    +0.000 OA
ATOM     10  H   UNL     1       8.406   9.140  16.549  0.00  0.00    +0.000 HD
BRANCH   8  11
ATOM     11  C   UNL     1       9.335  11.101  17.831  0.00  0.00    +0.000 C 
ATOM     12  C   UNL     1      10.698  11.645  18.199  0.00  0.00    +0.000 C 
ATOM     13  C   UNL     1       9.460  12.288  18.773  0.00  0.00    +0.000 C 
BRANCH  13  14
ATOM     14  C   UNL     1       9.120  13.701  18.383  0.00  0.00    +0.000 A 
ATOM     15  C   UNL     1       7.825  14.220  18.458  0.00  0.00    +0.000 A 
ATOM     16  C   UNL     1       7.613  15.562  18.170  0.00  0.00    +0.000 A 
ATOM     17  N   UNL     1       8.590  16.421  17.815  0.00  0.00    +0.000 NA
ATOM     18  C   UNL     1       9.837  15.914  17.745  0.00  0.00    +0.000 A 
ATOM     19  C   UNL     1      10.140  14.589  18.011  0.00  0.00    +0.000 A 
ENDBRANCH  13  14
ENDBRANCH   8  11
ENDBRANCH   4   7
BRANCH   1  20
ATOM     20  O   UNL     1       5.789   4.065  18.764  0.00  0.00    +0.000 OA
BRANCH  20  26
ATOM     21  C   UNL     1       1.459   4.791  20.552  0.00  0.00    +0.000 C 
ATOM     22  C   UNL     1       2.315   4.246  19.446  0.00  0.00    +0.000 A 
ATOM     23  C   UNL     1       1.744   3.642  18.345  0.00  0.00    +0.000 A 
ATOM     24  C   UNL     1       2.618   3.153  17.402  0.00  0.00    +0.000 A 
ATOM     25  N   UNL     1       3.951   3.246  17.510  0.00  0.00    +0.000 NA
ATOM     26  C   UNL     1       4.418   3.894  18.597  0.00  0.00    +0.000 A 
ATOM     27  N   UNL     1       3.651   4.382  19.587  0.00  0.00    +0.000 NA
ENDBRANCH  20  26
ENDBRANCH   1  20
TORSDOF 5
ENDMDL
MODEL 2
REMARK VINA RESULT:      -8.0      0.590      1.110
REMARK  Name = 
REMARK  6 active torsions:
REMARK  status: ('A' for Active; 'I' for Inactive)
REMARK    1  A    between atoms: C_1  and  C_2
REMARK    2  A    between atoms: C_6  and  O_7
REMARK    3  A    between atoms: O_7  and  C_8
REMARK    4  A    between atoms: C_11  and  N_12
REMARK    5  A    between atoms: C_13  and  C_15
REMARK    6  A    between atoms: C_17  and  C_18
REMARK                            x       y       z     vdW  Elec       q    Type
REMARK                         _______ _______ _______ _____ _____    ______ ____
ROOT
ATOM      1  C   UNL     1       6.375   5.183  18.548  0.00  0.00    +0.000 A 
ATOM      2  C   UNL     1       7.577   5.580  19.127  0.00  0.00    +0.000 A 
ATOM      3  C   UNL     1       8.172   6.791  18.765  0.00  0.00    +0.000 A 
ATOM      4  C   UNL     1       7.603   7.612  17.790  0.00  0.00    +0.000 A 
ATOM      5  C   UNL     1       6.432   7.176  17.156  0.00  0.00    +0.000 A 
ATOM      6  C   UNL     1       5.824   5.967  17.531  0.00  0.00    +0.000 A 
ENDROOT
BRANCH   4   7
ATOM      7  N   UNL     1       8.132   8.880  17.444  0.00  0.00    +0.000 N 
ATOM      8  C   UNL     1       8.738   9.767  18.313  0.00  0.00    +0.000 C 
ATOM      9  O   UNL     1       9.050   9.559  19.478  0.00  0.00    +0.000 OA
ATOM     10  H   UNL     1       7.996   9.180  16.489  0.00  0.00    +0.000 HD
BRANCH   8  11
ATOM     11  C   UNL     1       8.962  11.136  17.749  0.00  0.00    +0.000 C 
ATOM     12  C   UNL     1      10.333  11.768  17.846  0.00  0.00    +0.000 C 
ATOM     13  C   UNL     1       9.227  12.248  18.752  0.00  0.00    +0.000 C 
BRANCH  13  14
ATOM     14  C   UNL     1       8.709  13.653  18.596  0.00  0.00    +0.000 A 
ATOM     15  C   UNL     1       7.563  13.963  17.860  0.00  0.00    +0.000 A 
ATOM     16  C   UNL     1       7.098  15.271  17.844  0.00  0.00    +0.000 A 
ATOM     17  N   UNL     1       7.688  16.289  18.504  0.00  0.00    +0.000 NA
ATOM     18  C   UNL     1       8.792  15.983  19.213  0.00  0.00    +0.000 A 
ATOM     19  C   UNL     1       9.328  14.707  19.282  0.00  0.00    +0.000 A 
ENDBRANCH  13  14
ENDBRANCH   8  11
ENDBRANCH   4   7
BRANCH   1  20
ATOM     20  O   UNL     1       5.721   4.014  18.866  0.00  0.00    +0.000 OA
BRANCH  20  26
ATOM     21  C   UNL     1       1.398   5.013  20.535  0.00  0.00    +0.000 C 
ATOM     22  C   UNL     1       2.249   4.426  19.447  0.00  0.00    +0.000 A 
ATOM     23  C   UNL     1       1.671   3.877  18.320  0.00  0.00    +0.000 A 
ATOM     24  C   UNL     1       2.538   3.341  17.396  0.00  0.00    +0.000 A 
ATOM     25  N   UNL     1       3.870   3.340  17.545  0.00  0.00    +0.000 NA
ATOM     26  C   UNL     1       4.347   3.941  18.655  0.00  0.00    +0.000 A 
ATOM     27  N   UNL     1       3.585   4.467  19.630  0.00  0.00    +0.000 NA
ENDBRANCH  20  26
ENDBRANCH   1  20
TORSDOF 5
ENDMDL
MODEL 3
REMARK VINA RESULT:      -8.0      1.596      2.162
REMARK  Name = 
REMARK  6 active torsions:
REMARK  status: ('A' for Active; 'I' for Inactive)
REMARK    1  A    between atoms: C_1  and  C_2
REMARK    2  A    between atoms: C_6  and  O_7
REMARK    3  A    between atoms: O_7  and  C_8
REMARK    4  A    between atoms: C_11  and  N_12
REMARK    5  A    between atoms: C_13  and  C_15
REMARK    6  A    between atoms: C_17  and  C_18
REMARK                            x       y       z     vdW  Elec       q    Type
REMARK                         _______ _______ _______ _____ _____    ______ ____
ROOT
ATOM      1  C   UNL     1       5.611   4.452  17.659  0.00  0.00    +0.000 A 
ATOM      2  C   UNL     1       6.025   4.650  18.972  0.00  0.00    +0.000 A 
ATOM      3  C   UNL     1       6.922   5.673  19.286  0.00  0.00    +0.000 A 
ATOM      4  C   UNL     1       7.458   6.495  18.293  0.00  0.00    +0.000 A 
ATOM      5  C   UNL     1       7.097   6.247  16.962  0.00  0.00    +0.000 A 
ATOM      6  C   UNL     1       6.181   5.230  16.647  0.00  0.00    +0.000 A 
ENDROOT
BRANCH   4   7
ATOM      7  N   UNL     1       8.313   7.588  18.573  0.00  0.00    +0.000 N 
ATOM      8  C   UNL     1       8.195   8.862  18.049  0.00  0.00    +0.000 C 
ATOM      9  O   UNL     1       7.267   9.299  17.381  0.00  0.00    +0.000 OA
ATOM     10  H   UNL     1       9.112   7.397  19.162  0.00  0.00    +0.000 HD
BRANCH   8  11
ATOM     11  C   UNL     1       9.376   9.748  18.295  0.00  0.00    +0.000 C 
ATOM     12  C   UNL     1       9.570  10.373  19.659  0.00  0.00    +0.000 C 
ATOM     13  C   UNL     1       9.083  11.224  18.513  0.00  0.00    +0.000 C 
BRANCH  13  14
ATOM     14  C   UNL     1       9.961  12.334  17.999  0.00  0.00    +0.000 A 
ATOM     15  C   UNL     1       9.524  13.655  17.879  0.00  0.00    +0.000 A 
ATOM     16  C   UNL     1      10.425  14.636  17.487  0.00  0.00    +0.000 A 
ATOM     17  N   UNL     1      11.723  14.399  17.207  0.00  0.00    +0.000 NA
ATOM     18  C   UNL     1      12.138  13.123  17.325  0.00  0.00    +0.000 A 
ATOM     19  C   UNL     1      11.308  12.080  17.706  0.00  0.00    +0.000 A 
ENDBRANCH  13  14
ENDBRANCH   8  11
ENDBRANCH   4   7
BRANCH   1  20
ATOM     20  O   UNL     1       4.717   3.478  17.275  0.00  0.00    +0.000 OA
BRANCH  20  26
ATOM     21  C   UNL     1       2.410   2.608  21.323  0.00  0.00    +0.000 C 
ATOM     22  C   UNL     1       2.357   3.000  19.875  0.00  0.00    +0.000 A 
ATOM     23  C   UNL     1       1.152   3.286  19.267  0.00  0.00    +0.000 A 
ATOM     24  C   UNL     1       1.211   3.609  17.931  0.00  0.00    +0.000 A 
ATOM     25  N   UNL     1       2.353   3.659  17.231  0.00  0.00    +0.000 NA
ATOM     26  C   UNL     1       3.486   3.410  17.920  0.00  0.00    +0.000 A 
ATOM     27  N   UNL     1       3.534   3.058  19.217  0.00  0.00    +0.000 NA
ENDBRANCH  20  26
ENDBRANCH   1  20
TORSDOF 5
ENDMDL
MODEL 4
REMARK VINA RESULT:      -8.0      7.144      9.605
REMARK  Name = 
REMARK  6 active torsions:
REMARK  status: ('A' for Active; 'I' for Inactive)
REMARK    1  A    between atoms: C_1  and  C_2
REMARK    2  A    between atoms: C_6  and  O_7
REMARK    3  A    between atoms: O_7  and  C_8
REMARK    4  A    between atoms: C_11  and  N_12
REMARK    5  A    between atoms: C_13  and  C_15
REMARK    6  A    between atoms: C_17  and  C_18
REMARK                            x       y       z     vdW  Elec       q    Type
REMARK                         _______ _______ _______ _____ _____    ______ ____
ROOT
ATOM      1  C   UNL     1       2.025   7.773  19.706  0.00  0.00    +0.000 A 
ATOM      2  C   UNL     1       1.751   8.733  18.738  0.00  0.00    +0.000 A 
ATOM      3  C   UNL     1       0.888   9.796  19.017  0.00  0.00    +0.000 A 
ATOM      4  C   UNL     1       0.249   9.902  20.253  0.00  0.00    +0.000 A 
ATOM      5  C   UNL     1       0.469   8.894  21.202  0.00  0.00    +0.000 A 
ATOM      6  C   UNL     1       1.350   7.835  20.929  0.00  0.00    +0.000 A 
ENDROOT
BRANCH   4   7
ATOM      7  N   UNL     1      -0.576  10.998  20.605  0.00  0.00    +0.000 N 
ATOM      8  C   UNL     1      -0.173  12.121  21.304  0.00  0.00    +0.000 C 
ATOM      9  O   UNL     1       0.973  12.426  21.608  0.00  0.00    +0.000 OA
ATOM     10  H   UNL     1      -1.556  10.918  20.374  0.00  0.00    +0.000 HD
BRANCH   8  11
ATOM     11  C   UNL     1      -1.293  12.996  21.775  0.00  0.00    +0.000 C 
ATOM     12  C   UNL     1      -1.313  13.472  23.211  0.00  0.00    +0.000 C 
ATOM     13  C   UNL     1      -2.259  12.381  22.776  0.00  0.00    +0.000 C 
BRANCH  13  14
ATOM     14  C   UNL     1      -3.740  12.650  22.778  0.00  0.00    +0.000 A 
ATOM     15  C   UNL     1      -4.514  12.654  21.614  0.00  0.00    +0.000 A 
ATOM     16  C   UNL     1      -5.889  12.817  21.713  0.00  0.00    +0.000 A 
ATOM     17  N   UNL     1      -6.548  12.976  22.879  0.00  0.00    +0.000 NA
ATOM     18  C   UNL     1      -5.796  12.971  23.997  0.00  0.00    +0.000 A 
ATOM     19  C   UNL     1      -4.419  12.819  23.993  0.00  0.00    +0.000 A 
ENDBRANCH  13  14
ENDBRANCH   8  11
ENDBRANCH   4   7
BRANCH   1  20
ATOM     20  O   UNL     1       2.877   6.709  19.512  0.00  0.00    +0.000 OA
BRANCH  20  26
ATOM     21  C   UNL     1       1.519   2.671  21.590  0.00  0.00    +0.000 C 
ATOM     22  C   UNL     1       1.662   3.483  20.336  0.00  0.00    +0.000 A 
ATOM     23  C   UNL     1       1.250   2.979  19.119  0.00  0.00    +0.000 A 
ATOM     24  C   UNL     1       1.450   3.793  18.029  0.00  0.00    +0.000 A 
ATOM     25  N   UNL     1       2.003   5.012  18.106  0.00  0.00    +0.000 NA
ATOM     26  C   UNL     1       2.331   5.440  19.342  0.00  0.00    +0.000 A 
ATOM     27  N   UNL     1       2.204   4.713  20.465  0.00  0.00    +0.000 NA
ENDBRANCH  20  26
ENDBRANCH   1  20
TORSDOF 5
ENDMDL
MODEL 5
REMARK VINA RESULT:      -8.0      6.101      8.444
REMARK  Name = 
REMARK  6 active torsions:
REMARK  status: ('A' for Active; 'I' for Inactive)
REMARK    1  A    between atoms: C_1  and  C_2
REMARK    2  A    between atoms: C_6  and  O_7
REMARK    3  A    between atoms: O_7  and  C_8
REMARK    4  A    between atoms: C_11  and  N_12
REMARK    5  A    between atoms: C_13  and  C_15
REMARK    6  A    between atoms: C_17  and  C_18
REMARK                            x       y       z     vdW  Elec       q    Type
REMARK                         _______ _______ _______ _____ _____    ______ ____
ROOT
ATOM      1  C   UNL     1       2.815   5.680  18.805  0.00  0.00    +0.000 A 
ATOM      2  C   UNL     1       2.359   5.760  20.117  0.00  0.00    +0.000 A 
ATOM      3  C   UNL     1       1.805   6.946  20.604  0.00  0.00    +0.000 A 
ATOM      4  C   UNL     1       1.729   8.089  19.807  0.00  0.00    +0.000 A 
ATOM      5  C   UNL     1       2.255   8.029  18.510  0.00  0.00    +0.000 A 
ATOM      6  C   UNL     1       2.797   6.832  18.013  0.00  0.00    +0.000 A 
ENDROOT
BRANCH   4   7
ATOM      7  N   UNL     1       1.110   9.289  20.235  0.00  0.00    +0.000 N 
ATOM      8  C   UNL     1      -0.047   9.379  20.986  0.00  0.00    +0.000 C 
ATOM      9  O   UNL     1      -0.647   8.458  21.526  0.00  0.00    +0.000 OA
ATOM     10  H   UNL     1       1.523  10.151  19.907  0.00  0.00    +0.000 HD
BRANCH   8  11
ATOM     11  C   UNL     1      -0.630  10.755  21.070  0.00  0.00    +0.000 C 
ATOM     12  C   UNL     1       0.292  11.951  21.172  0.00  0.00    +0.000 C 
ATOM     13  C   UNL     1      -0.460  11.484  22.393  0.00  0.00    +0.000 C 
BRANCH  13  14
ATOM     14  C   UNL     1      -1.512  12.379  22.993  0.00  0.00    +0.000 A 
ATOM     15  C   UNL     1      -2.775  11.919  23.373  0.00  0.00    +0.000 A 
ATOM     16  C   UNL     1      -3.653  12.788  24.007  0.00  0.00    +0.000 A 
ATOM     17  N   UNL     1      -3.368  14.076  24.287  0.00  0.00    +0.000 NA
ATOM     18  C   UNL     1      -2.148  14.514  23.918  0.00  0.00    +0.000 A 
ATOM     19  C   UNL     1      -1.210  13.718  23.279  0.00  0.00    +0.000 A 
ENDBRANCH  13  14
ENDBRANCH   8  11
ENDBRANCH   4   7
BRANCH   1  20
ATOM     20  O   UNL     1       3.356   4.543  18.249  0.00  0.00    +0.000 OA
BRANCH  20  26
ATOM     21  C   UNL     1       7.851   5.687  19.228  0.00  0.00    +0.000 C 
ATOM     22  C   UNL     1       6.853   5.125  18.258  0.00  0.00    +0.000 A 
ATOM     23  C   UNL     1       7.253   4.672  17.018  0.00  0.00    +0.000 A 
ATOM     24  C   UNL     1       6.256   4.202  16.195  0.00  0.00    +0.000 A 
ATOM     25  N   UNL     1       4.963   4.165  16.546  0.00  0.00    +0.000 NA
ATOM     26  C   UNL     1       4.671   4.584  17.795  0.00  0.00    +0.000 A 
ATOM     27  N   UNL     1       5.566   5.087  18.663  0.00  0.00    +0.000 NA
ENDBRANCH  20  26
ENDBRANCH   1  20
TORSDOF 5
ENDMDL
MODEL 6
REMARK VINA RESULT:      -7.9      1.519      2.222
REMARK  Name = 
REMARK  6 active torsions:
REMARK  status: ('A' for Active; 'I' for Inactive)
REMARK    1  A    between atoms: C_1  and  C_2
REMARK    2  A    between atoms: C_6  and  O_7
REMARK    3  A    between atoms: O_7  and  C_8
REMARK    4  A    between atoms: C_11  and  N_12
REMARK    5  A    between atoms: C_13  and  C_15
REMARK    6  A    between atoms: C_17  and  C_18
REMARK                            x       y       z     vdW  Elec       q    Type
REMARK                         _______ _______ _______ _____ _____    ______ ____
ROOT
ATOM      1  C   UNL     1       5.436   4.838  17.208  0.00  0.00    +0.000 A 
ATOM      2  C   UNL     1       6.553   4.488  17.960  0.00  0.00    +0.000 A 
ATOM      3  C   UNL     1       7.488   5.456  18.333  0.00  0.00    +0.000 A 
ATOM      4  C   UNL     1       7.351   6.786  17.931  0.00  0.00    +0.000 A 
ATOM      5  C   UNL     1       6.265   7.123  17.113  0.00  0.00    +0.000 A 
ATOM      6  C   UNL     1       5.314   6.154  16.751  0.00  0.00    +0.000 A 
ENDROOT
BRANCH   4   7
ATOM      7  N   UNL     1       8.235   7.813  18.345  0.00  0.00    +0.000 N 
ATOM      8  C   UNL     1       8.128   9.151  18.017  0.00  0.00    +0.000 C 
ATOM      9  O   UNL     1       7.193   9.696  17.446  0.00  0.00    +0.000 OA
ATOM     10  H   UNL     1       9.044   7.525  18.877  0.00  0.00    +0.000 HD
BRANCH   8  11
ATOM     11  C   UNL     1       9.332   9.974  18.358  0.00  0.00    +0.000 C 
ATOM     12  C   UNL     1       9.432  10.621  19.722  0.00  0.00    +0.000 C 
ATOM     13  C   UNL     1       9.109  11.469  18.517  0.00  0.00    +0.000 C 
BRANCH  13  14
ATOM     14  C   UNL     1      10.098  12.512  18.068  0.00  0.00    +0.000 A 
ATOM     15  C   UNL     1      11.326  12.194  17.484  0.00  0.00    +0.000 A 
ATOM     16  C   UNL     1      12.140  13.215  17.011  0.00  0.00    +0.000 A 
ATOM     17  N   UNL     1      11.821  14.523  17.077  0.00  0.00    +0.000 NA
ATOM     18  C   UNL     1      10.635  14.824  17.641  0.00  0.00    +0.000 A 
ATOM     19  C   UNL     1       9.763  13.871  18.142  0.00  0.00    +0.000 A 
ENDBRANCH  13  14
ENDBRANCH   8  11
ENDBRANCH   4   7
BRANCH   1  20
ATOM     20  O   UNL     1       4.463   3.945  16.818  0.00  0.00    +0.000 OA
BRANCH  20  26
ATOM     21  C   UNL     1       1.870   5.387  20.515  0.00  0.00    +0.000 C 
ATOM     22  C   UNL     1       2.174   4.327  19.496  0.00  0.00    +0.000 A 
ATOM     23  C   UNL     1       1.454   3.150  19.469  0.00  0.00    +0.000 A 
ATOM     24  C   UNL     1       1.829   2.234  18.514  0.00  0.00    +0.000 A 
ATOM     25  N   UNL     1       2.826   2.441  17.641  0.00  0.00    +0.000 NA
ATOM     26  C   UNL     1       3.442   3.639  17.712  0.00  0.00    +0.000 A 
ATOM     27  N   UNL     1       3.171   4.588  18.625  0.00  0.00    +0.000 NA
ENDBRANCH  20  26
ENDBRANCH   1  20
TORSDOF 5
ENDMDL
MODEL 7
REMARK VINA RESULT:      -7.9      0.976      1.231
REMARK  Name = 
REMARK  6 active torsions:
REMARK  status: ('A' for Active; 'I' for Inactive)
REMARK    1  A    between atoms: C_1  and  C_2
REMARK    2  A    between atoms: C_6  and  O_7
REMARK    3  A    between atoms: O_7  and  C_8
REMARK    4  A    between atoms: C_11  and  N_12
REMARK    5  A    between atoms: C_13  and  C_15
REMARK    6  A    between atoms: C_17  and  C_18
REMARK                            x       y       z     vdW  Elec       q    Type
REMARK                         _______ _______ _______ _____ _____    ______ ____
ROOT
ATOM      1  C   UNL     1       6.468   5.371  18.261  0.00  0.00    +0.000 A 
ATOM      2  C   UNL     1       5.896   6.318  17.417  0.00  0.00    +0.000 A 
ATOM      3  C   UNL     1       6.519   7.551  17.211  0.00  0.00    +0.000 A 
ATOM      4  C   UNL     1       7.703   7.883  17.872  0.00  0.00    +0.000 A 
ATOM      5  C   UNL     1       8.238   6.957  18.778  0.00  0.00    +0.000 A 
ATOM      6  C   UNL     1       7.623   5.710  18.973  0.00  0.00    +0.000 A 
ENDROOT
BRANCH   4   7
ATOM      7  N   UNL     1       8.406   9.090  17.639  0.00  0.00    +0.000 N 
ATOM      8  C   UNL     1       8.897   9.939  18.612  0.00  0.00    +0.000 C 
ATOM      9  O   UNL     1       8.940   9.731  19.818  0.00  0.00    +0.000 OA
ATOM     10  H   UNL     1       8.500   9.379  16.676  0.00  0.00    +0.000 HD
BRANCH   8  11
ATOM     11  C   UNL     1       9.358  11.270  18.102  0.00  0.00    +0.000 C 
ATOM     12  C   UNL     1      10.776  11.424  17.596  0.00  0.00    +0.000 C 
ATOM     13  C   UNL     1      10.400  11.994  18.941  0.00  0.00    +0.000 C 
BRANCH  13  14
ATOM     14  C   UNL     1      10.421  13.486  19.137  0.00  0.00    +0.000 A 
ATOM     15  C   UNL     1      10.745  14.088  20.356  0.00  0.00    +0.000 A 
ATOM     16  C   UNL     1      10.835  15.472  20.428  0.00  0.00    +0.000 A 
ATOM     17  N   UNL     1      10.626  16.296  19.381  0.00  0.00    +0.000 NA
ATOM     18  C   UNL     1      10.315  15.710  18.209  0.00  0.00    +0.000 A 
ATOM     19  C   UNL     1      10.200  14.339  18.046  0.00  0.00    +0.000 A 
ENDBRANCH  13  14
ENDBRANCH   8  11
ENDBRANCH   4   7
BRANCH   1  20
ATOM     20  O   UNL     1       5.924   4.129  18.500  0.00  0.00    +0.000 OA
BRANCH  20  26
ATOM     21  C   UNL     1       1.727   4.929  20.552  0.00  0.00    +0.000 C 
ATOM     22  C   UNL     1       2.504   4.367  19.398  0.00  0.00    +0.000 A 
ATOM     23  C   UNL     1       1.855   3.768  18.338  0.00  0.00    +0.000 A 
ATOM     24  C   UNL     1       2.661   3.261  17.344  0.00  0.00    +0.000 A 
ATOM     25  N   UNL     1       3.999   3.333  17.368  0.00  0.00    +0.000 NA
ATOM     26  C   UNL     1       4.543   3.979  18.420  0.00  0.00    +0.000 A 
ATOM     27  N   UNL     1       3.847   4.482  19.454  0.00  0.00    +0.000 NA
ENDBRANCH  20  26
ENDBRANCH   1  20
TORSDOF 5
ENDMDL
MODEL 8
REMARK VINA RESULT:      -7.8      5.735      8.166
REMARK  Name = 
REMARK  6 active torsions:
REMARK  status: ('A' for Active; 'I' for Inactive)
REMARK    1  A    between atoms: C_1  and  C_2
REMARK    2  A    between atoms: C_6  and  O_7
REMARK    3  A    between atoms: O_7  and  C_8
REMARK    4  A    between atoms: C_11  and  N_12
REMARK    5  A    between atoms: C_13  and  C_15
REMARK    6  A    between atoms: C_17  and  C_18
REMARK                            x       y       z     vdW  Elec       q    Type
REMARK                         _______ _______ _______ _____ _____    ______ ____
ROOT
ATOM      1  C   UNL     1       2.993   5.196  18.562  0.00  0.00    +0.000 A 
ATOM      2  C   UNL     1       2.963   6.538  18.197  0.00  0.00    +0.000 A 
ATOM      3  C   UNL     1       2.398   7.491  19.048  0.00  0.00    +0.000 A 
ATOM      4  C   UNL     1       1.816   7.122  20.262  0.00  0.00    +0.000 A 
ATOM      5  C   UNL     1       1.783   5.761  20.594  0.00  0.00    +0.000 A 
ATOM      6  C   UNL     1       2.365   4.804  19.748  0.00  0.00    +0.000 A 
ENDROOT
BRANCH   4   7
ATOM      7  N   UNL     1       1.297   8.060  21.187  0.00  0.00    +0.000 N 
ATOM      8  C   UNL     1       0.691   9.260  20.867  0.00  0.00    +0.000 C 
ATOM      9  O   UNL     1       0.370   9.648  19.751  0.00  0.00    +0.000 OA
ATOM     10  H   UNL     1       1.441   7.855  22.166  0.00  0.00    +0.000 HD
BRANCH   8  11
ATOM     11  C   UNL     1       0.479  10.180  22.029  0.00  0.00    +0.000 C 
ATOM     12  C   UNL     1      -0.309   9.699  23.228  0.00  0.00    +0.000 C 
ATOM     13  C   UNL     1      -0.944  10.666  22.259  0.00  0.00    +0.000 C 
BRANCH  13  14
ATOM     14  C   UNL     1      -1.285  12.055  22.728  0.00  0.00    +0.000 A 
ATOM     15  C   UNL     1      -0.534  13.181  22.379  0.00  0.00    +0.000 A 
ATOM     16  C   UNL     1      -0.970  14.439  22.775  0.00  0.00    +0.000 A 
ATOM     17  N   UNL     1      -2.093  14.657  23.489  0.00  0.00    +0.000 NA
ATOM     18  C   UNL     1      -2.813  13.567  23.821  0.00  0.00    +0.000 A 
ATOM     19  C   UNL     1      -2.451  12.276  23.473  0.00  0.00    +0.000 A 
ENDBRANCH  13  14
ENDBRANCH   8  11
ENDBRANCH   4   7
BRANCH   1  20
ATOM     20  O   UNL     1       3.548   4.203  17.786  0.00  0.00    +0.000 OA
BRANCH  20  26
ATOM     21  C   UNL     1       7.968   5.480  18.925  0.00  0.00    +0.000 C 
ATOM     22  C   UNL     1       7.009   4.955  17.896  0.00  0.00    +0.000 A 
ATOM     23  C   UNL     1       7.445   4.632  16.628  0.00  0.00    +0.000 A 
ATOM     24  C   UNL     1       6.481   4.185  15.753  0.00  0.00    +0.000 A 
ATOM     25  N   UNL     1       5.188   4.053  16.080  0.00  0.00    +0.000 NA
ATOM     26  C   UNL     1       4.863   4.348  17.356  0.00  0.00    +0.000 A 
ATOM     27  N   UNL     1       5.722   4.818  18.277  0.00  0.00    +0.000 NA
ENDBRANCH  20  26
ENDBRANCH   1  20
TORSDOF 5
ENDMDL
MODEL 9
REMARK VINA RESULT:      -7.8      6.556      8.744
REMARK  Name = 
REMARK  6 active torsions:
REMARK  status: ('A' for Active; 'I' for Inactive)
REMARK    1  A    between atoms: C_1  and  C_2
REMARK    2  A    between atoms: C_6  and  O_7
REMARK    3  A    between atoms: O_7  and  C_8
REMARK    4  A    between atoms: C_11  and  N_12
REMARK    5  A    between atoms: C_13  and  C_15
REMARK    6  A    between atoms: C_17  and  C_18
REMARK                            x       y       z     vdW  Elec       q    Type
REMARK                         _______ _______ _______ _____ _____    ______ ____
ROOT
ATOM      1  C   UNL     1       2.835   7.009  18.181  0.00  0.00    +0.000 A 
ATOM      2  C   UNL     1       2.468   8.156  17.484  0.00  0.00    +0.000 A 
ATOM      3  C   UNL     1       1.787   9.190  18.130  0.00  0.00    +0.000 A 
ATOM      4  C   UNL     1       1.422   9.087  19.473  0.00  0.00    +0.000 A 
ATOM      5  C   UNL     1       1.728   7.901  20.154  0.00  0.00    +0.000 A 
ATOM      6  C   UNL     1       2.427   6.867  19.511  0.00  0.00    +0.000 A 
ENDROOT
BRANCH   4   7
ATOM      7  N   UNL     1       0.796  10.139  20.186  0.00  0.00    +0.000 N 
ATOM      8  C   UNL     1      -0.468  10.640  19.942  0.00  0.00    +0.000 C 
ATOM      9  O   UNL     1      -1.308  10.179  19.180  0.00  0.00    +0.000 OA
ATOM     10  H   UNL     1       1.352  10.596  20.895  0.00  0.00    +0.000 HD
BRANCH   8  11
ATOM     11  C   UNL     1      -0.779  11.919  20.657  0.00  0.00    +0.000 C 
ATOM     12  C   UNL     1       0.325  12.654  21.385  0.00  0.00    +0.000 C 
ATOM     13  C   UNL     1      -0.703  11.883  22.175  0.00  0.00    +0.000 C 
BRANCH  13  14
ATOM     14  C   UNL     1      -1.650  12.632  23.075  0.00  0.00    +0.000 A 
ATOM     15  C   UNL     1      -1.385  13.918  23.555  0.00  0.00    +0.000 A 
ATOM     16  C   UNL     1      -2.352  14.577  24.302  0.00  0.00    +0.000 A 
ATOM     17  N   UNL     1      -3.557  14.053  24.605  0.00  0.00    +0.000 NA
ATOM     18  C   UNL     1      -3.807  12.814  24.139  0.00  0.00    +0.000 A 
ATOM     19  C   UNL     1      -2.900  12.081  23.390  0.00  0.00    +0.000 A 
ENDBRANCH  13  14
ENDBRANCH   8  11
ENDBRANCH   4   7
BRANCH   1  20
ATOM     20  O   UNL     1       3.521   5.956  17.618  0.00  0.00    +0.000 OA
BRANCH  20  26
ATOM     21  C   UNL     1       7.784   8.024  17.450  0.00  0.00    +0.000 C 
ATOM     22  C   UNL     1       6.952   6.827  17.808  0.00  0.00    +0.000 A 
ATOM     23  C   UNL     1       7.532   5.709  18.370  0.00  0.00    +0.000 A 
ATOM     24  C   UNL     1       6.686   4.657  18.636  0.00  0.00    +0.000 A 
ATOM     25  N   UNL     1       5.370   4.683  18.382  0.00  0.00    +0.000 NA
ATOM     26  C   UNL     1       4.884   5.835  17.876  0.00  0.00    +0.000 A 
ATOM     27  N   UNL     1       5.628   6.907  17.555  0.00  0.00    +0.000 NA
ENDBRANCH  20  26
ENDBRANCH   1  20
TORSDOF 5
ENDMDL
