MODEL 1
REMARK VINA RESULT:      -7.7      0.000      0.000
REMARK  Name = 
REMARK  2 active torsions:
REMARK  status: ('A' for Active; 'I' for Inactive)
REMARK    1  A    between atoms: C_2  and  C_3
REMARK    2  A    between atoms: C_6  and  N_7
REMARK                            x       y       z     vdW  Elec       q    Type
REMARK                         _______ _______ _______ _____ _____    ______ ____
ROOT
ATOM      1  O   UNL     1       8.877  15.306  22.918  0.00  0.00    +0.000 OA
ATOM      2  C   UNL     1       9.049  14.161  22.499  0.00  0.00    +0.000 C 
ATOM      3  N   UNL     1       9.932  13.846  21.437  0.00  0.00    +0.000 N 
ATOM      4  C   UNL     1      10.438  14.986  20.619  0.00  0.00    +0.000 C 
ATOM      5  C   UNL     1       9.844  14.722  19.210  0.00  0.00    +0.000 C 
ATOM      6  C   UNL     1       8.689  15.679  18.815  0.00  0.00    +0.000 C 
ATOM      7  C   UNL     1       9.693  16.490  17.977  0.00  0.00    +0.000 C 
ATOM      8  C   UNL     1      10.647  15.288  18.007  0.00  0.00    +0.000 C 
ATOM      9  C   UNL     1       9.569  13.196  19.272  0.00  0.00    +0.000 A 
ATOM     10  C   UNL     1       9.199  12.280  18.297  0.00  0.00    +0.000 A 
ATOM     11  F   UNL     1       8.943  12.708  17.046  0.00  0.00    +0.000 F 
ATOM     12  C   UNL     1       9.084  10.927  18.583  0.00  0.00    +0.000 A 
ATOM     13  C   UNL     1       9.401  10.461  19.857  0.00  0.00    +0.000 A 
ATOM     14  C   UNL     1       9.762  11.369  20.854  0.00  0.00    +0.000 A 
ATOM     15  C   UNL     1       9.754  12.727  20.571  0.00  0.00    +0.000 A 
ENDROOT
BRANCH   2  16
ATOM     16  C   UNL     1       8.172  13.106  23.069  0.00  0.00    +0.000 A 
ATOM     17  C   UNL     1       8.636  12.331  24.137  0.00  0.00    +0.000 A 
ATOM     18  C   UNL     1       7.734  11.559  24.880  0.00  0.00    +0.000 A 
ATOM     19  C   UNL     1       6.368  11.604  24.569  0.00  0.00    +0.000 A 
ATOM     20  C   UNL     1       5.946  12.255  23.400  0.00  0.00    +0.000 A 
ATOM     21  C   UNL     1       6.866  12.955  22.619  0.00  0.00    +0.000 A 
BRANCH  19  22
ATOM     22  N   UNL     1       5.397  11.072  25.452  0.00  0.00    +0.000 N 
ATOM     23  C   UNL     1       5.094  11.432  26.740  0.00  0.00    +0.000 A 
ATOM     24  N   UNL     1       4.051  10.747  27.151  0.00  0.00    +0.000 NA
ATOM     25  N   UNL     1       3.696   9.946  26.099  0.00  0.00    +0.000 NA
ATOM     26  N   UNL     1       4.507  10.128  25.067  0.00  0.00    +0.000 NA
ENDBRANCH  19  22
ENDBRANCH   2  16
TORSDOF 2
ENDMDL
MODEL 2
REMARK VINA RESULT:      -7.1      4.547      6.325
REMARK  Name = 
REMARK  2 active torsions:
REMARK  status: ('A' for Active; 'I' for Inactive)
REMARK    1  A    between atoms: C_2  and  C_3
REMARK    2  A    between atoms: C_6  and  N_7
REMARK                            x       y       z     vdW  Elec       q    Type
REMARK                         _______ _______ _______ _____ _____    ______ ____
ROOT
ATOM      1  O   UNL     1       9.065  15.800  17.416  0.00  0.00    +0.000 OA
ATOM      2  C   UNL     1       8.645  15.518  18.539  0.00  0.00    +0.000 C 
ATOM      3  N   UNL     1       9.450  14.931  19.546  0.00  0.00    +0.000 N 
ATOM      4  C   UNL     1      10.765  14.371  19.117  0.00  0.00    +0.000 C 
ATOM      5  C   UNL     1      10.625  12.849  19.388  0.00  0.00    +0.000 C 
ATOM      6  C   UNL     1      10.472  11.986  18.109  0.00  0.00    +0.000 C 
ATOM      7  C   UNL     1      11.964  11.623  18.216  0.00  0.00    +0.000 C 
ATOM      8  C   UNL     1      11.941  12.079  19.681  0.00  0.00    +0.000 C 
ATOM      9  C   UNL     1       9.495  12.829  20.451  0.00  0.00    +0.000 A 
ATOM     10  C   UNL     1       8.992  11.810  21.250  0.00  0.00    +0.000 A 
ATOM     11  F   UNL     1       9.461  10.557  21.103  0.00  0.00    +0.000 F 
ATOM     12  C   UNL     1       8.010  12.055  22.200  0.00  0.00    +0.000 A 
ATOM     13  C   UNL     1       7.555  13.356  22.402  0.00  0.00    +0.000 A 
ATOM     14  C   UNL     1       8.040  14.390  21.601  0.00  0.00    +0.000 A 
ATOM     15  C   UNL     1       8.933  14.097  20.580  0.00  0.00    +0.000 A 
ENDROOT
BRANCH   2  16
ATOM     16  C   UNL     1       7.187  15.696  18.768  0.00  0.00    +0.000 A 
ATOM     17  C   UNL     1       6.727  16.864  19.385  0.00  0.00    +0.000 A 
ATOM     18  C   UNL     1       5.366  17.189  19.330  0.00  0.00    +0.000 A 
ATOM     19  C   UNL     1       4.485  16.357  18.623  0.00  0.00    +0.000 A 
ATOM     20  C   UNL     1       4.935  15.114  18.153  0.00  0.00    +0.000 A 
ATOM     21  C   UNL     1       6.280  14.762  18.284  0.00  0.00    +0.000 A 
BRANCH  19  22
ATOM     22  N   UNL     1       3.173  16.782  18.305  0.00  0.00    +0.000 N 
ATOM     23  C   UNL     1       2.008  16.634  19.013  0.00  0.00    +0.000 A 
ATOM     24  N   UNL     1       1.039  17.274  18.398  0.00  0.00    +0.000 NA
ATOM     25  N   UNL     1       1.610  17.833  17.287  0.00  0.00    +0.000 NA
ATOM     26  N   UNL     1       2.900  17.536  17.214  0.00  0.00    +0.000 NA
ENDBRANCH  19  22
ENDBRANCH   2  16
TORSDOF 2
ENDMDL
MODEL 3
REMARK VINA RESULT:      -6.9      8.876     10.736
REMARK  Name = 
REMARK  2 active torsions:
REMARK  status: ('A' for Active; 'I' for Inactive)
REMARK    1  A    between atoms: C_2  and  C_3
REMARK    2  A    between atoms: C_6  and  N_7
REMARK                            x       y       z     vdW  Elec       q    Type
REMARK                         _______ _______ _______ _____ _____    ______ ____
ROOT
ATOM      1  O   UNL     1      -0.781  13.149  17.963  0.00  0.00    +0.000 OA
ATOM      2  C   UNL     1      -0.842  12.799  19.142  0.00  0.00    +0.000 C 
ATOM      3  N   UNL     1       0.197  12.096  19.799  0.00  0.00    +0.000 N 
ATOM      4  C   UNL     1       1.266  11.510  18.938  0.00  0.00    +0.000 C 
ATOM      5  C   UNL     1       1.111   9.979  19.149  0.00  0.00    +0.000 C 
ATOM      6  C   UNL     1       0.500   9.228  17.937  0.00  0.00    +0.000 C 
ATOM      7  C   UNL     1       1.919   8.788  17.537  0.00  0.00    +0.000 C 
ATOM      8  C   UNL     1       2.394   9.126  18.957  0.00  0.00    +0.000 C 
ATOM      9  C   UNL     1       0.378   9.929  20.515  0.00  0.00    +0.000 A 
ATOM     10  C   UNL     1       0.083   8.875  21.370  0.00  0.00    +0.000 A 
ATOM     11  F   UNL     1       0.392   7.617  21.005  0.00  0.00    +0.000 F 
ATOM     12  C   UNL     1      -0.528   9.091  22.598  0.00  0.00    +0.000 A 
ATOM     13  C   UNL     1      -0.801  10.392  23.014  0.00  0.00    +0.000 A 
ATOM     14  C   UNL     1      -0.524  11.462  22.162  0.00  0.00    +0.000 A 
ATOM     15  C   UNL     1      -0.023  11.208  20.893  0.00  0.00    +0.000 A 
ENDROOT
BRANCH   2  16
ATOM     16  C   UNL     1      -2.135  13.027  19.837  0.00  0.00    +0.000 A 
ATOM     17  C   UNL     1      -3.249  12.258  19.483  0.00  0.00    +0.000 A 
ATOM     18  C   UNL     1      -4.373  12.236  20.319  0.00  0.00    +0.000 A 
ATOM     19  C   UNL     1      -4.352  12.957  21.522  0.00  0.00    +0.000 A 
ATOM     20  C   UNL     1      -3.298  13.846  21.778  0.00  0.00    +0.000 A 
ATOM     21  C   UNL     1      -2.217  13.921  20.897  0.00  0.00    +0.000 A 
BRANCH  19  22
ATOM     22  N   UNL     1      -5.335  12.746  22.520  0.00  0.00    +0.000 N 
ATOM     23  C   UNL     1      -6.697  12.645  22.400  0.00  0.00    +0.000 A 
ATOM     24  N   UNL     1      -7.216  12.342  23.569  0.00  0.00    +0.000 NA
ATOM     25  N   UNL     1      -6.158  12.249  24.432  0.00  0.00    +0.000 NA
ATOM     26  N   UNL     1      -5.014  12.499  23.811  0.00  0.00    +0.000 NA
ENDBRANCH  19  22
ENDBRANCH   2  16
TORSDOF 2
ENDMDL
MODEL 4
REMARK VINA RESULT:      -6.9      8.791     10.742
REMARK  Name = 
REMARK  2 active torsions:
REMARK  status: ('A' for Active; 'I' for Inactive)
REMARK    1  A    between atoms: C_2  and  C_3
REMARK    2  A    between atoms: C_6  and  N_7
REMARK                            x       y       z     vdW  Elec       q    Type
REMARK                         _______ _______ _______ _____ _____    ______ ____
ROOT
ATOM      1  O   UNL     1       1.396  12.051  21.001  0.00  0.00    +0.000 OA
ATOM      2  C   UNL     1       0.768  11.660  20.016  0.00  0.00    +0.000 C 
ATOM      3  N   UNL     1      -0.275  12.404  19.412  0.00  0.00    +0.000 N 
ATOM      4  C   UNL     1      -0.814  13.560  20.185  0.00  0.00    +0.000 C 
ATOM      5  C   UNL     1      -2.284  13.154  20.478  0.00  0.00    +0.000 C 
ATOM      6  C   UNL     1      -2.554  12.760  21.953  0.00  0.00    +0.000 C 
ATOM      7  C   UNL     1      -3.147  14.161  22.184  0.00  0.00    +0.000 C 
ATOM      8  C   UNL     1      -3.294  14.319  20.665  0.00  0.00    +0.000 C 
ATOM      9  C   UNL     1      -2.545  12.112  19.359  0.00  0.00    +0.000 A 
ATOM     10  C   UNL     1      -3.705  11.480  18.933  0.00  0.00    +0.000 A 
ATOM     11  F   UNL     1      -4.859  11.695  19.592  0.00  0.00    +0.000 F 
ATOM     12  C   UNL     1      -3.702  10.624  17.840  0.00  0.00    +0.000 A 
ATOM     13  C   UNL     1      -2.528  10.436  17.114  0.00  0.00    +0.000 A 
ATOM     14  C   UNL     1      -1.350  11.053  17.535  0.00  0.00    +0.000 A 
ATOM     15  C   UNL     1      -1.356  11.808  18.699  0.00  0.00    +0.000 A 
ENDROOT
BRANCH   2  16
ATOM     16  C   UNL     1       1.059  10.279  19.549  0.00  0.00    +0.000 A 
ATOM     17  C   UNL     1       1.613  10.087  18.279  0.00  0.00    +0.000 A 
ATOM     18  C   UNL     1       2.174   8.848  17.945  0.00  0.00    +0.000 A 
ATOM     19  C   UNL     1       2.208   7.825  18.904  0.00  0.00    +0.000 A 
ATOM     20  C   UNL     1       1.506   7.982  20.108  0.00  0.00    +0.000 A 
ATOM     21  C   UNL     1       0.880   9.195  20.399  0.00  0.00    +0.000 A 
BRANCH  19  22
ATOM     22  N   UNL     1       3.003   6.669  18.713  0.00  0.00    +0.000 N 
ATOM     23  C   UNL     1       3.824   6.332  17.668  0.00  0.00    +0.000 A 
ATOM     24  N   UNL     1       4.455   5.215  17.951  0.00  0.00    +0.000 NA
ATOM     25  N   UNL     1       4.021   4.849  19.197  0.00  0.00    +0.000 NA
ATOM     26  N   UNL     1       3.136   5.717  19.667  0.00  0.00    +0.000 NA
ENDBRANCH  19  22
ENDBRANCH   2  16
TORSDOF 2
ENDMDL
MODEL 5
REMARK VINA RESULT:      -6.7      1.408      2.186
REMARK  Name = 
REMARK  2 active torsions:
REMARK  status: ('A' for Active; 'I' for Inactive)
REMARK    1  A    between atoms: C_2  and  C_3
REMARK    2  A    between atoms: C_6  and  N_7
REMARK                            x       y       z     vdW  Elec       q    Type
REMARK                         _______ _______ _______ _____ _____    ______ ____
ROOT
ATOM      1  O   UNL     1      10.066  16.978  21.505  0.00  0.00    +0.000 OA
ATOM      2  C   UNL     1       9.959  15.759  21.645  0.00  0.00    +0.000 C 
ATOM      3  N   UNL     1      10.766  14.823  20.953  0.00  0.00    +0.000 N 
ATOM      4  C   UNL     1      11.563  15.339  19.803  0.00  0.00    +0.000 C 
ATOM      5  C   UNL     1      10.961  14.600  18.577  0.00  0.00    +0.000 C 
ATOM      6  C   UNL     1      10.093  15.497  17.656  0.00  0.00    +0.000 C 
ATOM      7  C   UNL     1      11.290  15.613  16.696  0.00  0.00    +0.000 C 
ATOM      8  C   UNL     1      11.914  14.383  17.370  0.00  0.00    +0.000 C 
ATOM      9  C   UNL     1      10.314  13.361  19.250  0.00  0.00    +0.000 A 
ATOM     10  C   UNL     1       9.756  12.206  18.722  0.00  0.00    +0.000 A 
ATOM     11  F   UNL     1       9.650  12.068  17.387  0.00  0.00    +0.000 F 
ATOM     12  C   UNL     1       9.299  11.183  19.543  0.00  0.00    +0.000 A 
ATOM     13  C   UNL     1       9.454  11.286  20.923  0.00  0.00    +0.000 A 
ATOM     14  C   UNL     1      10.001  12.445  21.473  0.00  0.00    +0.000 A 
ATOM     15  C   UNL     1      10.340  13.499  20.636  0.00  0.00    +0.000 A 
ENDROOT
BRANCH   2  16
ATOM     16  C   UNL     1       8.831  15.283  22.488  0.00  0.00    +0.000 A 
ATOM     17  C   UNL     1       7.616  14.946  21.881  0.00  0.00    +0.000 A 
ATOM     18  C   UNL     1       6.661  14.214  22.597  0.00  0.00    +0.000 A 
ATOM     19  C   UNL     1       6.950  13.795  23.904  0.00  0.00    +0.000 A 
ATOM     20  C   UNL     1       8.098  14.279  24.548  0.00  0.00    +0.000 A 
ATOM     21  C   UNL     1       9.007  15.076  23.850  0.00  0.00    +0.000 A 
BRANCH  19  22
ATOM     22  N   UNL     1       6.147  12.829  24.558  0.00  0.00    +0.000 N 
ATOM     23  C   UNL     1       6.109  11.467  24.398  0.00  0.00    +0.000 A 
ATOM     24  N   UNL     1       5.291  10.947  25.285  0.00  0.00    +0.000 NA
ATOM     25  N   UNL     1       4.812  12.002  26.013  0.00  0.00    +0.000 NA
ATOM     26  N   UNL     1       5.317  13.149  25.578  0.00  0.00    +0.000 NA
ENDBRANCH  19  22
ENDBRANCH   2  16
TORSDOF 2
ENDMDL
MODEL 6
REMARK VINA RESULT:      -6.7      1.075      1.295
REMARK  Name = 
REMARK  2 active torsions:
REMARK  status: ('A' for Active; 'I' for Inactive)
REMARK    1  A    between atoms: C_2  and  C_3
REMARK    2  A    between atoms: C_6  and  N_7
REMARK                            x       y       z     vdW  Elec       q    Type
REMARK                         _______ _______ _______ _____ _____    ______ ____
ROOT
ATOM      1  O   UNL     1       9.353  16.104  22.104  0.00  0.00    +0.000 OA
ATOM      2  C   UNL     1       9.564  14.913  21.872  0.00  0.00    +0.000 C 
ATOM      3  N   UNL     1      10.524  14.461  20.934  0.00  0.00    +0.000 N 
ATOM      4  C   UNL     1      11.079  15.478  19.993  0.00  0.00    +0.000 C 
ATOM      5  C   UNL     1      10.589  14.997  18.600  0.00  0.00    +0.000 C 
ATOM      6  C   UNL     1       9.459  15.864  17.988  0.00  0.00    +0.000 C 
ATOM      7  C   UNL     1      10.514  16.561  17.110  0.00  0.00    +0.000 C 
ATOM      8  C   UNL     1      11.473  15.395  17.387  0.00  0.00    +0.000 C 
ATOM      9  C   UNL     1      10.323  13.492  18.870  0.00  0.00    +0.000 A 
ATOM     10  C   UNL     1      10.032  12.436  18.017  0.00  0.00    +0.000 A 
ATOM     11  F   UNL     1       9.863  12.669  16.703  0.00  0.00    +0.000 F 
ATOM     12  C   UNL     1       9.908  11.137  18.493  0.00  0.00    +0.000 A 
ATOM     13  C   UNL     1      10.135  10.872  19.841  0.00  0.00    +0.000 A 
ATOM     14  C   UNL     1      10.416  11.923  20.715  0.00  0.00    +0.000 A 
ATOM     15  C   UNL     1      10.418  13.224  20.233  0.00  0.00    +0.000 A 
ENDROOT
BRANCH   2  16
ATOM     16  C   UNL     1       8.656  13.938  22.530  0.00  0.00    +0.000 A 
ATOM     17  C   UNL     1       9.107  13.227  23.647  0.00  0.00    +0.000 A 
ATOM     18  C   UNL     1       8.188  12.548  24.457  0.00  0.00    +0.000 A 
ATOM     19  C   UNL     1       6.820  12.621  24.159  0.00  0.00    +0.000 A 
ATOM     20  C   UNL     1       6.405  13.200  22.950  0.00  0.00    +0.000 A 
ATOM     21  C   UNL     1       7.339  13.805  22.108  0.00  0.00    +0.000 A 
BRANCH  19  22
ATOM     22  N   UNL     1       5.843  12.195  25.091  0.00  0.00    +0.000 N 
ATOM     23  C   UNL     1       5.491  10.925  25.473  0.00  0.00    +0.000 A 
ATOM     24  N   UNL     1       4.609  10.990  26.445  0.00  0.00    +0.000 NA
ATOM     25  N   UNL     1       4.409  12.325  26.675  0.00  0.00    +0.000 NA
ATOM     26  N   UNL     1       5.144  13.065  25.857  0.00  0.00    +0.000 NA
ENDBRANCH  19  22
ENDBRANCH   2  16
TORSDOF 2
ENDMDL
MODEL 7
REMARK VINA RESULT:      -6.6     10.046     12.727
REMARK  Name = 
REMARK  2 active torsions:
REMARK  status: ('A' for Active; 'I' for Inactive)
REMARK    1  A    between atoms: C_2  and  C_3
REMARK    2  A    between atoms: C_6  and  N_7
REMARK                            x       y       z     vdW  Elec       q    Type
REMARK                         _______ _______ _______ _____ _____    ______ ____
ROOT
ATOM      1  O   UNL     1      -2.733  14.357  24.646  0.00  0.00    +0.000 OA
ATOM      2  C   UNL     1      -2.787  13.992  23.471  0.00  0.00    +0.000 C 
ATOM      3  N   UNL     1      -3.846  14.339  22.596  0.00  0.00    +0.000 N 
ATOM      4  C   UNL     1      -5.072  14.919  23.218  0.00  0.00    +0.000 C 
ATOM      5  C   UNL     1      -6.170  13.861  22.922  0.00  0.00    +0.000 C 
ATOM      6  C   UNL     1      -6.610  13.036  24.159  0.00  0.00    +0.000 C 
ATOM      7  C   UNL     1      -7.850  13.940  24.280  0.00  0.00    +0.000 C 
ATOM      8  C   UNL     1      -7.627  14.391  22.830  0.00  0.00    +0.000 C 
ATOM      9  C   UNL     1      -5.565  13.122  21.699  0.00  0.00    +0.000 A 
ATOM     10  C   UNL     1      -6.097  12.180  20.830  0.00  0.00    +0.000 A 
ATOM     11  F   UNL     1      -7.340  11.707  21.041  0.00  0.00    +0.000 F 
ATOM     12  C   UNL     1      -5.373  11.711  19.742  0.00  0.00    +0.000 A 
ATOM     13  C   UNL     1      -4.109  12.233  19.478  0.00  0.00    +0.000 A 
ATOM     14  C   UNL     1      -3.553  13.170  20.348  0.00  0.00    +0.000 A 
ATOM     15  C   UNL     1      -4.251  13.534  21.491  0.00  0.00    +0.000 A 
ENDROOT
BRANCH   2  16
ATOM     16  C   UNL     1      -1.742  13.035  23.023  0.00  0.00    +0.000 A 
ATOM     17  C   UNL     1      -1.883  11.676  23.323  0.00  0.00    +0.000 A 
ATOM     18  C   UNL     1      -1.091  10.731  22.658  0.00  0.00    +0.000 A 
ATOM     19  C   UNL     1      -0.191  11.157  21.671  0.00  0.00    +0.000 A 
ATOM     20  C   UNL     1       0.052  12.529  21.502  0.00  0.00    +0.000 A 
ATOM     21  C   UNL     1      -0.687  13.464  22.228  0.00  0.00    +0.000 A 
BRANCH  19  22
ATOM     22  N   UNL     1       0.419  10.234  20.787  0.00  0.00    +0.000 N 
ATOM     23  C   UNL     1       0.737  10.371  19.460  0.00  0.00    +0.000 A 
ATOM     24  N   UNL     1       1.389   9.304  19.056  0.00  0.00    +0.000 NA
ATOM     25  N   UNL     1       1.481   8.488  20.151  0.00  0.00    +0.000 NA
ATOM     26  N   UNL     1       0.890   9.036  21.204  0.00  0.00    +0.000 NA
ENDBRANCH  19  22
ENDBRANCH   2  16
TORSDOF 2
ENDMDL
MODEL 8
REMARK VINA RESULT:      -6.4      3.516      4.780
REMARK  Name = 
REMARK  2 active torsions:
REMARK  status: ('A' for Active; 'I' for Inactive)
REMARK    1  A    between atoms: C_2  and  C_3
REMARK    2  A    between atoms: C_6  and  N_7
REMARK                            x       y       z     vdW  Elec       q    Type
REMARK                         _______ _______ _______ _____ _____    ______ ____
ROOT
ATOM      1  O   UNL     1       8.746  16.077  17.834  0.00  0.00    +0.000 OA
ATOM      2  C   UNL     1       8.467  15.702  18.973  0.00  0.00    +0.000 C 
ATOM      3  N   UNL     1       9.380  15.016  19.812  0.00  0.00    +0.000 N 
ATOM      4  C   UNL     1      10.614  14.479  19.170  0.00  0.00    +0.000 C 
ATOM      5  C   UNL     1      10.472  12.941  19.324  0.00  0.00    +0.000 C 
ATOM      6  C   UNL     1      10.134  12.197  18.006  0.00  0.00    +0.000 C 
ATOM      7  C   UNL     1      11.618  11.806  17.886  0.00  0.00    +0.000 C 
ATOM      8  C   UNL     1      11.795  12.130  19.376  0.00  0.00    +0.000 C 
ATOM      9  C   UNL     1       9.487  12.842  20.519  0.00  0.00    +0.000 A 
ATOM     10  C   UNL     1       9.065  11.763  21.285  0.00  0.00    +0.000 A 
ATOM     11  F   UNL     1       9.480  10.522  20.971  0.00  0.00    +0.000 F 
ATOM     12  C   UNL     1       8.219  11.936  22.372  0.00  0.00    +0.000 A 
ATOM     13  C   UNL     1       7.827  13.220  22.744  0.00  0.00    +0.000 A 
ATOM     14  C   UNL     1       8.231  14.315  21.979  0.00  0.00    +0.000 A 
ATOM     15  C   UNL     1       8.979  14.101  20.829  0.00  0.00    +0.000 A 
ENDROOT
BRANCH   2  16
ATOM     16  C   UNL     1       7.056  15.879  19.404  0.00  0.00    +0.000 A 
ATOM     17  C   UNL     1       6.096  14.941  19.009  0.00  0.00    +0.000 A 
ATOM     18  C   UNL     1       4.849  14.913  19.646  0.00  0.00    +0.000 A 
ATOM     19  C   UNL     1       4.591  15.801  20.699  0.00  0.00    +0.000 A 
ATOM     20  C   UNL     1       5.500  16.835  20.970  0.00  0.00    +0.000 A 
ATOM     21  C   UNL     1       6.708  16.905  20.274  0.00  0.00    +0.000 A 
BRANCH  19  22
ATOM     22  N   UNL     1       3.470  15.627  21.547  0.00  0.00    +0.000 N 
ATOM     23  C   UNL     1       2.863  16.521  22.391  0.00  0.00    +0.000 A 
ATOM     24  N   UNL     1       1.788  15.972  22.909  0.00  0.00    +0.000 NA
ATOM     25  N   UNL     1       1.722  14.712  22.377  0.00  0.00    +0.000 NA
ATOM     26  N   UNL     1       2.739  14.488  21.556  0.00  0.00    +0.000 NA
ENDBRANCH  19  22
ENDBRANCH   2  16
TORSDOF 2
ENDMDL
MODEL 9
REMARK VINA RESULT:      -6.4      8.570     10.359
REMARK  Name = 
REMARK  2 active torsions:
REMARK  status: ('A' for Active; 'I' for Inactive)
REMARK    1  A    between atoms: C_2  and  C_3
REMARK    2  A    between atoms: C_6  and  N_7
REMARK                            x       y       z     vdW  Elec       q    Type
REMARK                         _______ _______ _______ _____ _____    ______ ____
ROOT
ATOM      1  O   UNL     1       2.089  12.746  20.330  0.00  0.00    +0.000 OA
ATOM      2  C   UNL     1       1.192  12.298  19.615  0.00  0.00    +0.000 C 
ATOM      3  N   UNL     1       0.080  13.065  19.189  0.00  0.00    +0.000 N 
ATOM      4  C   UNL     1      -0.146  14.368  19.880  0.00  0.00    +0.000 C 
ATOM      5  C   UNL     1      -1.506  14.172  20.601  0.00  0.00    +0.000 C 
ATOM      6  C   UNL     1      -1.394  14.013  22.140  0.00  0.00    +0.000 C 
ATOM      7  C   UNL     1      -1.800  15.490  22.289  0.00  0.00    +0.000 C 
ATOM      8  C   UNL     1      -2.342  15.457  20.853  0.00  0.00    +0.000 C 
ATOM      9  C   UNL     1      -2.134  13.024  19.768  0.00  0.00    +0.000 A 
ATOM     10  C   UNL     1      -3.409  12.474  19.762  0.00  0.00    +0.000 A 
ATOM     11  F   UNL     1      -4.323  12.903  20.652  0.00  0.00    +0.000 F 
ATOM     12  C   UNL     1      -3.764  11.484  18.856  0.00  0.00    +0.000 A 
ATOM     13  C   UNL     1      -2.847  11.069  17.892  0.00  0.00    +0.000 A 
ATOM     14  C   UNL     1      -1.557  11.602  17.892  0.00  0.00    +0.000 A 
ATOM     15  C   UNL     1      -1.194  12.503  18.883  0.00  0.00    +0.000 A 
ENDROOT
BRANCH   2  16
ATOM     16  C   UNL     1       1.245  10.843  19.316  0.00  0.00    +0.000 A 
ATOM     17  C   UNL     1       1.813  10.411  18.113  0.00  0.00    +0.000 A 
ATOM     18  C   UNL     1       2.152   9.062  17.950  0.00  0.00    +0.000 A 
ATOM     19  C   UNL     1       1.952   8.167  19.010  0.00  0.00    +0.000 A 
ATOM     20  C   UNL     1       1.235   8.584  20.142  0.00  0.00    +0.000 A 
ATOM     21  C   UNL     1       0.830   9.914  20.261  0.00  0.00    +0.000 A 
BRANCH  19  22
ATOM     22  N   UNL     1       2.529   6.873  18.996  0.00  0.00    +0.000 N 
ATOM     23  C   UNL     1       2.284   5.796  19.809  0.00  0.00    +0.000 A 
ATOM     24  N   UNL     1       2.965   4.759  19.375  0.00  0.00    +0.000 NA
ATOM     25  N   UNL     1       3.645   5.197  18.271  0.00  0.00    +0.000 NA
ATOM     26  N   UNL     1       3.396   6.478  18.035  0.00  0.00    +0.000 NA
ENDBRANCH  19  22
ENDBRANCH   2  16
TORSDOF 2
ENDMDL
