MODEL 1
REMARK VINA RESULT:      -9.0      0.000      0.000
REMARK  Name = 
REMARK  5 active torsions:
REMARK  status: ('A' for Active; 'I' for Inactive)
REMARK    1  A    between atoms: C_1  and  N_2
REMARK    2  A    between atoms: C_6  and  C_7
REMARK    3  A    between atoms: C_8  and  C_9
REMARK    4  A    between atoms: C_13  and  N_14
REMARK    5  A    between atoms: C_21  and  C_22
REMARK                            x       y       z     vdW  Elec       q    Type
REMARK                         _______ _______ _______ _____ _____    ______ ____
ROOT
ATOM      1  C   UNL     1       2.141   7.508  19.544  0.00  0.00    +0.000 A 
ATOM      2  C   UNL     1       2.608   8.252  18.455  0.00  0.00    +0.000 A 
ATOM      3  C   UNL     1       3.217   7.608  17.382  0.00  0.00    +0.000 A 
ATOM      4  C   UNL     1       3.458   6.239  17.442  0.00  0.00    +0.000 A 
ATOM      5  C   UNL     1       3.221   5.545  18.640  0.00  0.00    +0.000 A 
ATOM      6  C   UNL     1       2.416   6.140  19.619  0.00  0.00    +0.000 A 
ENDROOT
BRANCH   5   7
ATOM      7  N   UNL     1       4.176   4.526  19.077  0.00  0.00    +0.000 N 
ATOM      8  C   UNL     1       5.517   5.139  19.250  0.00  0.00    +0.000 C 
ATOM      9  C   UNL     1       6.102   4.993  17.876  0.00  0.00    +0.000 A 
ATOM     10  C   UNL     1       5.515   3.860  17.300  0.00  0.00    +0.000 A 
ATOM     11  C   UNL     1       5.678   3.521  15.970  0.00  0.00    +0.000 A 
ATOM     12  C   UNL     1       6.448   4.375  15.186  0.00  0.00    +0.000 A 
ATOM     13  C   UNL     1       7.026   5.534  15.743  0.00  0.00    +0.000 A 
ATOM     14  C   UNL     1       6.864   5.866  17.105  0.00  0.00    +0.000 A 
ATOM     15  C   UNL     1       4.382   3.453  18.169  0.00  0.00    +0.000 C 
ATOM     16  O   UNL     1       3.675   2.484  17.965  0.00  0.00    +0.000 OA
BRANCH  14  17
ATOM     17  C   UNL     1       7.408   7.178  17.612  0.00  0.00    +0.000 C 
ATOM     18  F   UNL     1       8.246   7.815  16.747  0.00  0.00    +0.000 F 
ATOM     19  F   UNL     1       6.421   8.075  17.887  0.00  0.00    +0.000 F 
ATOM     20  F   UNL     1       8.117   7.041  18.768  0.00  0.00    +0.000 F 
ENDBRANCH  14  17
ENDBRANCH   5   7
BRANCH   1  22
ATOM     21  C   UNL     1       0.677   9.246  20.462  0.00  0.00    +0.000 C 
ATOM     22  C   UNL     1       1.470   8.184  20.651  0.00  0.00    +0.000 C 
BRANCH  21  28
ATOM     23  C   UNL     1      -0.966  11.784  20.297  0.00  0.00    +0.000 C 
ATOM     24  N   UNL     1      -0.677  11.009  21.473  0.00  0.00    +0.000 N 
ATOM     25  C   UNL     1      -1.122  11.302  22.731  0.00  0.00    +0.000 A 
ATOM     26  N   UNL     1      -0.691  10.399  23.564  0.00  0.00    +0.000 NA
ATOM     27  N   UNL     1       0.041   9.487  22.851  0.00  0.00    +0.000 NA
ATOM     28  C   UNL     1       0.051   9.851  21.585  0.00  0.00    +0.000 A 
ENDBRANCH  21  28
ENDBRANCH   1  22
TORSDOF 4
ENDMDL
MODEL 2
REMARK VINA RESULT:      -8.8      4.427      6.490
REMARK  Name = 
REMARK  5 active torsions:
REMARK  status: ('A' for Active; 'I' for Inactive)
REMARK    1  A    between atoms: C_1  and  N_2
REMARK    2  A    between atoms: C_6  and  C_7
REMARK    3  A    between atoms: C_8  and  C_9
REMARK    4  A    between atoms: C_13  and  N_14
REMARK    5  A    between atoms: C_21  and  C_22
REMARK                            x       y       z     vdW  Elec       q    Type
REMARK                         _______ _______ _______ _____ _____    ______ ____
ROOT
ATOM      1  C   UNL     1       7.810   7.686  17.814  0.00  0.00    +0.000 A 
ATOM      2  C   UNL     1       7.800   6.885  18.960  0.00  0.00    +0.000 A 
ATOM      3  C   UNL     1       7.664   5.504  18.843  0.00  0.00    +0.000 A 
ATOM      4  C   UNL     1       7.429   4.934  17.596  0.00  0.00    +0.000 A 
ATOM      5  C   UNL     1       7.184   5.765  16.490  0.00  0.00    +0.000 A 
ATOM      6  C   UNL     1       7.538   7.117  16.567  0.00  0.00    +0.000 A 
ENDROOT
BRANCH   5   7
ATOM      7  N   UNL     1       6.141   5.392  15.533  0.00  0.00    +0.000 N 
ATOM      8  C   UNL     1       4.954   6.263  15.721  0.00  0.00    +0.000 C 
ATOM      9  C   UNL     1       4.176   5.504  16.754  0.00  0.00    +0.000 A 
ATOM     10  C   UNL     1       4.486   4.149  16.586  0.00  0.00    +0.000 A 
ATOM     11  C   UNL     1       4.093   3.170  17.479  0.00  0.00    +0.000 A 
ATOM     12  C   UNL     1       3.377   3.581  18.599  0.00  0.00    +0.000 A 
ATOM     13  C   UNL     1       3.077   4.944  18.798  0.00  0.00    +0.000 A 
ATOM     14  C   UNL     1       3.471   5.936  17.874  0.00  0.00    +0.000 A 
ATOM     15  C   UNL     1       5.643   4.067  15.660  0.00  0.00    +0.000 C 
ATOM     16  O   UNL     1       6.148   3.026  15.283  0.00  0.00    +0.000 OA
BRANCH  14  17
ATOM     17  C   UNL     1       3.223   7.387  18.201  0.00  0.00    +0.000 C 
ATOM     18  F   UNL     1       2.754   7.610  19.461  0.00  0.00    +0.000 F 
ATOM     19  F   UNL     1       4.351   8.141  18.095  0.00  0.00    +0.000 F 
ATOM     20  F   UNL     1       2.311   7.964  17.369  0.00  0.00    +0.000 F 
ENDBRANCH  14  17
ENDBRANCH   5   7
BRANCH   1  22
ATOM     21  C   UNL     1       9.007   9.664  18.626  0.00  0.00    +0.000 C 
ATOM     22  C   UNL     1       7.990   9.130  17.939  0.00  0.00    +0.000 C 
BRANCH  21  28
ATOM     23  C   UNL     1       9.244  11.189  21.231  0.00  0.00    +0.000 C 
ATOM     24  N   UNL     1       9.218  11.735  19.902  0.00  0.00    +0.000 N 
ATOM     25  C   UNL     1       9.311  13.065  19.603  0.00  0.00    +0.000 A 
ATOM     26  N   UNL     1       9.265  13.222  18.311  0.00  0.00    +0.000 NA
ATOM     27  N   UNL     1       9.152  11.981  17.742  0.00  0.00    +0.000 NA
ATOM     28  C   UNL     1       9.125  11.079  18.701  0.00  0.00    +0.000 A 
ENDBRANCH  21  28
ENDBRANCH   1  22
TORSDOF 4
ENDMDL
MODEL 3
REMARK VINA RESULT:      -8.6      6.731      9.792
REMARK  Name = 
REMARK  5 active torsions:
REMARK  status: ('A' for Active; 'I' for Inactive)
REMARK    1  A    between atoms: C_1  and  N_2
REMARK    2  A    between atoms: C_6  and  C_7
REMARK    3  A    between atoms: C_8  and  C_9
REMARK    4  A    between atoms: C_13  and  N_14
REMARK    5  A    between atoms: C_21  and  C_22
REMARK                            x       y       z     vdW  Elec       q    Type
REMARK                         _______ _______ _______ _____ _____    ______ ____
ROOT
ATOM      1  C   UNL     1       9.001  10.451  18.203  0.00  0.00    +0.000 A 
ATOM      2  C   UNL     1       8.022  11.341  17.749  0.00  0.00    +0.000 A 
ATOM      3  C   UNL     1       8.371  12.647  17.416  0.00  0.00    +0.000 A 
ATOM      4  C   UNL     1       9.668  13.096  17.638  0.00  0.00    +0.000 A 
ATOM      5  C   UNL     1      10.575  12.278  18.331  0.00  0.00    +0.000 A 
ATOM      6  C   UNL     1      10.295  10.913  18.460  0.00  0.00    +0.000 A 
ENDROOT
BRANCH   5   7
ATOM      7  N   UNL     1      11.470  12.881  19.321  0.00  0.00    +0.000 N 
ATOM      8  C   UNL     1      11.094  12.421  20.681  0.00  0.00    +0.000 C 
ATOM      9  C   UNL     1      10.076  13.445  21.084  0.00  0.00    +0.000 A 
ATOM     10  C   UNL     1      10.402  14.630  20.413  0.00  0.00    +0.000 A 
ATOM     11  C   UNL     1       9.579  15.741  20.401  0.00  0.00    +0.000 A 
ATOM     12  C   UNL     1       8.365  15.639  21.076  0.00  0.00    +0.000 A 
ATOM     13  C   UNL     1       8.010  14.446  21.735  0.00  0.00    +0.000 A 
ATOM     14  C   UNL     1       8.863  13.321  21.754  0.00  0.00    +0.000 A 
ATOM     15  C   UNL     1      11.430  14.300  19.395  0.00  0.00    +0.000 C 
ATOM     16  O   UNL     1      11.950  15.114  18.654  0.00  0.00    +0.000 OA
BRANCH  14  17
ATOM     17  C   UNL     1       8.375  12.037  22.375  0.00  0.00    +0.000 C 
ATOM     18  F   UNL     1       7.034  11.999  22.616  0.00  0.00    +0.000 F 
ATOM     19  F   UNL     1       8.633  10.953  21.592  0.00  0.00    +0.000 F 
ATOM     20  F   UNL     1       8.965  11.777  23.575  0.00  0.00    +0.000 F 
ENDBRANCH  14  17
ENDBRANCH   5   7
BRANCH   1  22
ATOM     21  C   UNL     1       7.843   8.345  17.720  0.00  0.00    +0.000 C 
ATOM     22  C   UNL     1       8.638   9.071  18.517  0.00  0.00    +0.000 C 
BRANCH  21  28
ATOM     23  C   UNL     1       5.588   6.749  16.483  0.00  0.00    +0.000 C 
ATOM     24  N   UNL     1       6.498   6.318  17.508  0.00  0.00    +0.000 N 
ATOM     25  C   UNL     1       6.491   5.082  18.091  0.00  0.00    +0.000 A 
ATOM     26  N   UNL     1       7.447   5.013  18.972  0.00  0.00    +0.000 NA
ATOM     27  N   UNL     1       8.107   6.214  18.969  0.00  0.00    +0.000 NA
ATOM     28  C   UNL     1       7.536   7.006  18.084  0.00  0.00    +0.000 A 
ENDBRANCH  21  28
ENDBRANCH   1  22
TORSDOF 4
ENDMDL
MODEL 4
REMARK VINA RESULT:      -8.6      2.087      2.963
REMARK  Name = 
REMARK  5 active torsions:
REMARK  status: ('A' for Active; 'I' for Inactive)
REMARK    1  A    between atoms: C_1  and  N_2
REMARK    2  A    between atoms: C_6  and  C_7
REMARK    3  A    between atoms: C_8  and  C_9
REMARK    4  A    between atoms: C_13  and  N_14
REMARK    5  A    between atoms: C_21  and  C_22
REMARK                            x       y       z     vdW  Elec       q    Type
REMARK                         _______ _______ _______ _____ _____    ______ ____
ROOT
ATOM      1  C   UNL     1       1.452   8.814  19.860  0.00  0.00    +0.000 A 
ATOM      2  C   UNL     1       1.873   9.131  18.565  0.00  0.00    +0.000 A 
ATOM      3  C   UNL     1       2.354   8.131  17.725  0.00  0.00    +0.000 A 
ATOM      4  C   UNL     1       2.519   6.838  18.211  0.00  0.00    +0.000 A 
ATOM      5  C   UNL     1       2.339   6.585  19.581  0.00  0.00    +0.000 A 
ATOM      6  C   UNL     1       1.651   7.524  20.358  0.00  0.00    +0.000 A 
ENDROOT
BRANCH   5   7
ATOM      7  N   UNL     1       3.265   5.684  20.269  0.00  0.00    +0.000 N 
ATOM      8  C   UNL     1       4.434   5.407  19.397  0.00  0.00    +0.000 C 
ATOM      9  C   UNL     1       3.964   4.213  18.621  0.00  0.00    +0.000 A 
ATOM     10  C   UNL     1       3.058   3.525  19.438  0.00  0.00    +0.000 A 
ATOM     11  C   UNL     1       2.285   2.473  18.986  0.00  0.00    +0.000 A 
ATOM     12  C   UNL     1       2.417   2.116  17.646  0.00  0.00    +0.000 A 
ATOM     13  C   UNL     1       3.305   2.813  16.803  0.00  0.00    +0.000 A 
ATOM     14  C   UNL     1       4.101   3.879  17.277  0.00  0.00    +0.000 A 
ATOM     15  C   UNL     1       2.742   4.403  20.592  0.00  0.00    +0.000 C 
ATOM     16  O   UNL     1       2.002   4.093  21.508  0.00  0.00    +0.000 OA
BRANCH  14  17
ATOM     17  C   UNL     1       4.943   4.660  16.300  0.00  0.00    +0.000 C 
ATOM     18  F   UNL     1       4.571   5.962  16.148  0.00  0.00    +0.000 F 
ATOM     19  F   UNL     1       6.255   4.697  16.662  0.00  0.00    +0.000 F 
ATOM     20  F   UNL     1       4.918   4.129  15.045  0.00  0.00    +0.000 F 
ENDBRANCH  14  17
ENDBRANCH   5   7
BRANCH   1  22
ATOM     21  C   UNL     1      -0.395  10.145  20.769  0.00  0.00    +0.000 C 
ATOM     22  C   UNL     1       0.913   9.860  20.725  0.00  0.00    +0.000 C 
BRANCH  21  28
ATOM     23  C   UNL     1      -2.207  12.404  19.888  0.00  0.00    +0.000 C 
ATOM     24  N   UNL     1      -1.663  12.186  21.200  0.00  0.00    +0.000 N 
ATOM     25  C   UNL     1      -1.896  12.984  22.284  0.00  0.00    +0.000 A 
ATOM     26  N   UNL     1      -1.264  12.506  23.318  0.00  0.00    +0.000 NA
ATOM     27  N   UNL     1      -0.611  11.369  22.920  0.00  0.00    +0.000 NA
ATOM     28  C   UNL     1      -0.851  11.172  21.639  0.00  0.00    +0.000 A 
ENDBRANCH  21  28
ENDBRANCH   1  22
TORSDOF 4
ENDMDL
MODEL 5
REMARK VINA RESULT:      -8.4      1.853      3.014
REMARK  Name = 
REMARK  5 active torsions:
REMARK  status: ('A' for Active; 'I' for Inactive)
REMARK    1  A    between atoms: C_1  and  N_2
REMARK    2  A    between atoms: C_6  and  C_7
REMARK    3  A    between atoms: C_8  and  C_9
REMARK    4  A    between atoms: C_13  and  N_14
REMARK    5  A    between atoms: C_21  and  C_22
REMARK                            x       y       z     vdW  Elec       q    Type
REMARK                         _______ _______ _______ _____ _____    ______ ____
ROOT
ATOM      1  C   UNL     1       2.157   4.978  20.713  0.00  0.00    +0.000 A 
ATOM      2  C   UNL     1       1.631   3.906  21.441  0.00  0.00    +0.000 A 
ATOM      3  C   UNL     1       2.270   2.669  21.418  0.00  0.00    +0.000 A 
ATOM      4  C   UNL     1       3.368   2.472  20.587  0.00  0.00    +0.000 A 
ATOM      5  C   UNL     1       3.731   3.472  19.670  0.00  0.00    +0.000 A 
ATOM      6  C   UNL     1       3.237   4.769  19.851  0.00  0.00    +0.000 A 
ENDROOT
BRANCH   5   7
ATOM      7  N   UNL     1       4.144   3.088  18.320  0.00  0.00    +0.000 N 
ATOM      8  C   UNL     1       5.593   3.356  18.144  0.00  0.00    +0.000 C 
ATOM      9  C   UNL     1       5.587   4.776  17.660  0.00  0.00    +0.000 A 
ATOM     10  C   UNL     1       4.379   4.971  16.981  0.00  0.00    +0.000 A 
ATOM     11  C   UNL     1       3.946   6.213  16.555  0.00  0.00    +0.000 A 
ATOM     12  C   UNL     1       4.759   7.304  16.847  0.00  0.00    +0.000 A 
ATOM     13  C   UNL     1       5.967   7.129  17.551  0.00  0.00    +0.000 A 
ATOM     14  C   UNL     1       6.408   5.856  17.971  0.00  0.00    +0.000 A 
ATOM     15  C   UNL     1       3.513   3.799  17.264  0.00  0.00    +0.000 C 
ATOM     16  O   UNL     1       2.397   3.643  16.802  0.00  0.00    +0.000 OA
BRANCH  14  17
ATOM     17  C   UNL     1       7.648   5.749  18.822  0.00  0.00    +0.000 C 
ATOM     18  F   UNL     1       8.445   6.855  18.801  0.00  0.00    +0.000 F 
ATOM     19  F   UNL     1       7.358   5.537  20.135  0.00  0.00    +0.000 F 
ATOM     20  F   UNL     1       8.454   4.716  18.447  0.00  0.00    +0.000 F 
ENDBRANCH  14  17
ENDBRANCH   5   7
BRANCH   1  22
ATOM     21  C   UNL     1       2.021   7.364  20.171  0.00  0.00    +0.000 C 
ATOM     22  C   UNL     1       1.504   6.283  20.769  0.00  0.00    +0.000 C 
BRANCH  21  28
ATOM     23  C   UNL     1       1.732   9.293  17.855  0.00  0.00    +0.000 C 
ATOM     24  N   UNL     1       1.228   9.456  19.192  0.00  0.00    +0.000 N 
ATOM     25  C   UNL     1       0.511  10.533  19.630  0.00  0.00    +0.000 A 
ATOM     26  N   UNL     1       0.200  10.366  20.884  0.00  0.00    +0.000 NA
ATOM     27  N   UNL     1       0.707   9.156  21.282  0.00  0.00    +0.000 NA
ATOM     28  C   UNL     1       1.328   8.602  20.261  0.00  0.00    +0.000 A 
ENDBRANCH  21  28
ENDBRANCH   1  22
TORSDOF 4
ENDMDL
MODEL 6
REMARK VINA RESULT:      -8.3      1.697      2.744
REMARK  Name = 
REMARK  5 active torsions:
REMARK  status: ('A' for Active; 'I' for Inactive)
REMARK    1  A    between atoms: C_1  and  N_2
REMARK    2  A    between atoms: C_6  and  C_7
REMARK    3  A    between atoms: C_8  and  C_9
REMARK    4  A    between atoms: C_13  and  N_14
REMARK    5  A    between atoms: C_21  and  C_22
REMARK                            x       y       z     vdW  Elec       q    Type
REMARK                         _______ _______ _______ _____ _____    ______ ____
ROOT
ATOM      1  C   UNL     1       2.265   5.732  20.259  0.00  0.00    +0.000 A 
ATOM      2  C   UNL     1       1.375   4.898  20.943  0.00  0.00    +0.000 A 
ATOM      3  C   UNL     1       1.689   3.556  21.137  0.00  0.00    +0.000 A 
ATOM      4  C   UNL     1       2.834   3.021  20.557  0.00  0.00    +0.000 A 
ATOM      5  C   UNL     1       3.585   3.800  19.661  0.00  0.00    +0.000 A 
ATOM      6  C   UNL     1       3.396   5.187  19.646  0.00  0.00    +0.000 A 
ENDROOT
BRANCH   5   7
ATOM      7  N   UNL     1       4.123   3.178  18.450  0.00  0.00    +0.000 N 
ATOM      8  C   UNL     1       5.595   3.360  18.406  0.00  0.00    +0.000 C 
ATOM      9  C   UNL     1       5.723   4.676  17.698  0.00  0.00    +0.000 A 
ATOM     10  C   UNL     1       4.610   4.797  16.858  0.00  0.00    +0.000 A 
ATOM     11  C   UNL     1       4.297   5.964  16.186  0.00  0.00    +0.000 A 
ATOM     12  C   UNL     1       5.132   7.058  16.389  0.00  0.00    +0.000 A 
ATOM     13  C   UNL     1       6.243   6.962  17.251  0.00  0.00    +0.000 A 
ATOM     14  C   UNL     1       6.563   5.762  17.924  0.00  0.00    +0.000 A 
ATOM     15  C   UNL     1       3.654   3.722  17.224  0.00  0.00    +0.000 C 
ATOM     16  O   UNL     1       2.589   3.531  16.665  0.00  0.00    +0.000 OA
BRANCH  14  17
ATOM     17  C   UNL     1       7.693   5.757  18.922  0.00  0.00    +0.000 C 
ATOM     18  F   UNL     1       7.301   5.623  20.220  0.00  0.00    +0.000 F 
ATOM     19  F   UNL     1       8.572   4.740  18.702  0.00  0.00    +0.000 F 
ATOM     20  F   UNL     1       8.432   6.901  18.883  0.00  0.00    +0.000 F 
ENDBRANCH  14  17
ENDBRANCH   5   7
BRANCH   1  22
ATOM     21  C   UNL     1       1.183   7.816  20.962  0.00  0.00    +0.000 C 
ATOM     22  C   UNL     1       1.948   7.148  20.089  0.00  0.00    +0.000 C 
BRANCH  21  28
ATOM     23  C   UNL     1      -0.018   9.653  23.048  0.00  0.00    +0.000 C 
ATOM     24  N   UNL     1       0.364   9.993  21.705  0.00  0.00    +0.000 N 
ATOM     25  C   UNL     1       0.250  11.238  21.152  0.00  0.00    +0.000 A 
ATOM     26  N   UNL     1       0.692  11.210  19.927  0.00  0.00    +0.000 NA
ATOM     27  N   UNL     1       1.116   9.933  19.664  0.00  0.00    +0.000 NA
ATOM     28  C   UNL     1       0.921   9.195  20.738  0.00  0.00    +0.000 A 
ENDBRANCH  21  28
ENDBRANCH   1  22
TORSDOF 4
ENDMDL
MODEL 7
REMARK VINA RESULT:      -8.3      2.086      2.948
REMARK  Name = 
REMARK  5 active torsions:
REMARK  status: ('A' for Active; 'I' for Inactive)
REMARK    1  A    between atoms: C_1  and  N_2
REMARK    2  A    between atoms: C_6  and  C_7
REMARK    3  A    between atoms: C_8  and  C_9
REMARK    4  A    between atoms: C_13  and  N_14
REMARK    5  A    between atoms: C_21  and  C_22
REMARK                            x       y       z     vdW  Elec       q    Type
REMARK                         _______ _______ _______ _____ _____    ______ ____
ROOT
ATOM      1  C   UNL     1       1.179   8.771  19.566  0.00  0.00    +0.000 A 
ATOM      2  C   UNL     1       1.839   9.346  18.475  0.00  0.00    +0.000 A 
ATOM      3  C   UNL     1       2.681   8.570  17.683  0.00  0.00    +0.000 A 
ATOM      4  C   UNL     1       2.949   7.253  18.041  0.00  0.00    +0.000 A 
ATOM      5  C   UNL     1       2.488   6.762  19.274  0.00  0.00    +0.000 A 
ATOM      6  C   UNL     1       1.476   7.459  19.945  0.00  0.00    +0.000 A 
ENDROOT
BRANCH   5   7
ATOM      7  N   UNL     1       3.363   5.904  20.073  0.00  0.00    +0.000 N 
ATOM      8  C   UNL     1       4.550   5.514  19.272  0.00  0.00    +0.000 C 
ATOM      9  C   UNL     1       4.068   4.267  18.594  0.00  0.00    +0.000 A 
ATOM     10  C   UNL     1       3.116   3.684  19.438  0.00  0.00    +0.000 A 
ATOM     11  C   UNL     1       2.325   2.616  19.058  0.00  0.00    +0.000 A 
ATOM     12  C   UNL     1       2.488   2.133  17.763  0.00  0.00    +0.000 A 
ATOM     13  C   UNL     1       3.424   2.723  16.891  0.00  0.00    +0.000 A 
ATOM     14  C   UNL     1       4.238   3.806  17.291  0.00  0.00    +0.000 A 
ATOM     15  C   UNL     1       2.791   4.674  20.495  0.00  0.00    +0.000 C 
ATOM     16  O   UNL     1       2.013   4.471  21.409  0.00  0.00    +0.000 OA
BRANCH  14  17
ATOM     17  C   UNL     1       5.134   4.468  16.276  0.00  0.00    +0.000 C 
ATOM     18  F   UNL     1       6.447   4.527  16.634  0.00  0.00    +0.000 F 
ATOM     19  F   UNL     1       5.114   3.829  15.074  0.00  0.00    +0.000 F 
ATOM     20  F   UNL     1       4.771   5.756  16.018  0.00  0.00    +0.000 F 
ENDBRANCH  14  17
ENDBRANCH   5   7
BRANCH   1  22
ATOM     21  C   UNL     1       0.694  10.310  21.411  0.00  0.00    +0.000 C 
ATOM     22  C   UNL     1       0.268   9.580  20.372  0.00  0.00    +0.000 C 
BRANCH  21  28
ATOM     23  C   UNL     1       0.498  13.326  21.243  0.00  0.00    +0.000 C 
ATOM     24  N   UNL     1      -0.297  12.446  22.055  0.00  0.00    +0.000 N 
ATOM     25  C   UNL     1      -1.300  12.848  22.891  0.00  0.00    +0.000 A 
ATOM     26  N   UNL     1      -1.825  11.806  23.470  0.00  0.00    +0.000 NA
ATOM     27  N   UNL     1      -1.171  10.695  23.006  0.00  0.00    +0.000 NA
ATOM     28  C   UNL     1      -0.246  11.078  22.148  0.00  0.00    +0.000 A 
ENDBRANCH  21  28
ENDBRANCH   1  22
TORSDOF 4
ENDMDL
MODEL 8
REMARK VINA RESULT:      -8.3      2.091      3.066
REMARK  Name = 
REMARK  5 active torsions:
REMARK  status: ('A' for Active; 'I' for Inactive)
REMARK    1  A    between atoms: C_1  and  N_2
REMARK    2  A    between atoms: C_6  and  C_7
REMARK    3  A    between atoms: C_8  and  C_9
REMARK    4  A    between atoms: C_13  and  N_14
REMARK    5  A    between atoms: C_21  and  C_22
REMARK                            x       y       z     vdW  Elec       q    Type
REMARK                         _______ _______ _______ _____ _____    ______ ____
ROOT
ATOM      1  C   UNL     1       1.447   8.788  19.158  0.00  0.00    +0.000 A 
ATOM      2  C   UNL     1       2.171   9.184  18.028  0.00  0.00    +0.000 A 
ATOM      3  C   UNL     1       2.968   8.263  17.355  0.00  0.00    +0.000 A 
ATOM      4  C   UNL     1       3.130   6.980  17.868  0.00  0.00    +0.000 A 
ATOM      5  C   UNL     1       2.609   6.670  19.136  0.00  0.00    +0.000 A 
ATOM      6  C   UNL     1       1.639   7.511  19.693  0.00  0.00    +0.000 A 
ENDROOT
BRANCH   5   7
ATOM      7  N   UNL     1       3.401   5.850  20.053  0.00  0.00    +0.000 N 
ATOM      8  C   UNL     1       4.638   5.391  19.373  0.00  0.00    +0.000 C 
ATOM      9  C   UNL     1       4.183   4.111  18.737  0.00  0.00    +0.000 A 
ATOM     10  C   UNL     1       3.156   3.599  19.539  0.00  0.00    +0.000 A 
ATOM     11  C   UNL     1       2.374   2.522  19.166  0.00  0.00    +0.000 A 
ATOM     12  C   UNL     1       2.626   1.955  17.920  0.00  0.00    +0.000 A 
ATOM     13  C   UNL     1       3.639   2.473  17.088  0.00  0.00    +0.000 A 
ATOM     14  C   UNL     1       4.442   3.565  17.483  0.00  0.00    +0.000 A 
ATOM     15  C   UNL     1       2.772   4.659  20.504  0.00  0.00    +0.000 C 
ATOM     16  O   UNL     1       1.921   4.528  21.365  0.00  0.00    +0.000 OA
BRANCH  14  17
ATOM     17  C   UNL     1       5.428   4.147  16.502  0.00  0.00    +0.000 C 
ATOM     18  F   UNL     1       4.971   5.233  15.818  0.00  0.00    +0.000 F 
ATOM     19  F   UNL     1       6.578   4.555  17.105  0.00  0.00    +0.000 F 
ATOM     20  F   UNL     1       5.806   3.252  15.547  0.00  0.00    +0.000 F 
ENDBRANCH  14  17
ENDBRANCH   5   7
BRANCH   1  22
ATOM     21  C   UNL     1       1.011  10.478  20.878  0.00  0.00    +0.000 C 
ATOM     22  C   UNL     1       0.584   9.748  19.840  0.00  0.00    +0.000 C 
BRANCH  21  28
ATOM     23  C   UNL     1      -0.666   9.818  23.312  0.00  0.00    +0.000 C 
ATOM     24  N   UNL     1      -0.634  11.059  22.587  0.00  0.00    +0.000 N 
ATOM     25  C   UNL     1      -1.370  12.166  22.902  0.00  0.00    +0.000 A 
ATOM     26  N   UNL     1      -1.103  13.119  22.056  0.00  0.00    +0.000 NA
ATOM     27  N   UNL     1      -0.168  12.644  21.173  0.00  0.00    +0.000 NA
ATOM     28  C   UNL     1       0.118  11.399  21.491  0.00  0.00    +0.000 A 
ENDBRANCH  21  28
ENDBRANCH   1  22
TORSDOF 4
ENDMDL
MODEL 9
REMARK VINA RESULT:      -8.2      2.161      3.065
REMARK  Name = 
REMARK  5 active torsions:
REMARK  status: ('A' for Active; 'I' for Inactive)
REMARK    1  A    between atoms: C_1  and  N_2
REMARK    2  A    between atoms: C_6  and  C_7
REMARK    3  A    between atoms: C_8  and  C_9
REMARK    4  A    between atoms: C_13  and  N_14
REMARK    5  A    between atoms: C_21  and  C_22
REMARK                            x       y       z     vdW  Elec       q    Type
REMARK                         _______ _______ _______ _____ _____    ______ ____
ROOT
ATOM      1  C   UNL     1       1.469   8.722  19.292  0.00  0.00    +0.000 A 
ATOM      2  C   UNL     1       2.173   9.133  18.155  0.00  0.00    +0.000 A 
ATOM      3  C   UNL     1       2.954   8.220  17.453  0.00  0.00    +0.000 A 
ATOM      4  C   UNL     1       3.121   6.929  17.943  0.00  0.00    +0.000 A 
ATOM      5  C   UNL     1       2.622   6.601  19.214  0.00  0.00    +0.000 A 
ATOM      6  C   UNL     1       1.666   7.437  19.803  0.00  0.00    +0.000 A 
ENDROOT
BRANCH   5   7
ATOM      7  N   UNL     1       3.429   5.765  20.104  0.00  0.00    +0.000 N 
ATOM      8  C   UNL     1       4.657   5.323  19.398  0.00  0.00    +0.000 C 
ATOM      9  C   UNL     1       4.197   4.055  18.742  0.00  0.00    +0.000 A 
ATOM     10  C   UNL     1       3.183   3.524  19.547  0.00  0.00    +0.000 A 
ATOM     11  C   UNL     1       2.398   2.453  19.161  0.00  0.00    +0.000 A 
ATOM     12  C   UNL     1       2.635   1.912  17.900  0.00  0.00    +0.000 A 
ATOM     13  C   UNL     1       3.636   2.451  17.067  0.00  0.00    +0.000 A 
ATOM     14  C   UNL     1       4.441   3.536  17.474  0.00  0.00    +0.000 A 
ATOM     15  C   UNL     1       2.809   4.562  20.539  0.00  0.00    +0.000 C 
ATOM     16  O   UNL     1       1.970   4.411  21.408  0.00  0.00    +0.000 OA
BRANCH  14  17
ATOM     17  C   UNL     1       5.413   4.141  16.492  0.00  0.00    +0.000 C 
ATOM     18  F   UNL     1       5.783   3.310  15.478  0.00  0.00    +0.000 F 
ATOM     19  F   UNL     1       4.911   5.252  15.886  0.00  0.00    +0.000 F 
ATOM     20  F   UNL     1       6.578   4.533  17.081  0.00  0.00    +0.000 F 
ENDBRANCH  14  17
ENDBRANCH   5   7
BRANCH   1  22
ATOM     21  C   UNL     1      -0.248  10.470  19.368  0.00  0.00    +0.000 C 
ATOM     22  C   UNL     1       0.622   9.674  20.005  0.00  0.00    +0.000 C 
BRANCH  21  28
ATOM     23  C   UNL     1      -2.855  11.643  18.372  0.00  0.00    +0.000 C 
ATOM     24  N   UNL     1      -2.217  11.889  19.636  0.00  0.00    +0.000 N 
ATOM     25  C   UNL     1      -2.710  12.706  20.614  0.00  0.00    +0.000 A 
ATOM     26  N   UNL     1      -1.897  12.703  21.632  0.00  0.00    +0.000 NA
ATOM     27  N   UNL     1      -0.856  11.864  21.333  0.00  0.00    +0.000 NA
ATOM     28  C   UNL     1      -1.046  11.369  20.126  0.00  0.00    +0.000 A 
ENDBRANCH  21  28
ENDBRANCH   1  22
TORSDOF 4
ENDMDL
