MODEL 1
REMARK VINA RESULT:      -8.5      0.000      0.000
REMARK  Name = 
REMARK  7 active torsions:
REMARK  status: ('A' for Active; 'I' for Inactive)
REMARK    1  A    between atoms: C_2  and  C_3
REMARK    2  A    between atoms: N_5  and  C_6
REMARK    3  A    between atoms: C_6  and  C_7
REMARK    4  A    between atoms: N_24  and  C_25
REMARK    5  A    between atoms: C_25  and  C_26
REMARK    6  A    between atoms: C_26  and  O_27
REMARK    7  A    between atoms: O_27  and  C_28
REMARK                            x       y       z     vdW  Elec       q    Type
REMARK                         _______ _______ _______ _____ _____    ______ ____
ROOT
ATOM      1  C   UNL     1       2.425   6.293  18.992  0.00  0.00    +0.000 A 
ATOM      2  N   UNL     1       3.274   6.797  18.144  0.00  0.00    +0.000 NA
ATOM      3  N   UNL     1       3.945   5.964  17.277  0.00  0.00    +0.000 N 
ATOM      4  C   UNL     1       3.681   4.605  17.154  0.00  0.00    +0.000 A 
ATOM      5  O   UNL     1       4.230   3.865  16.340  0.00  0.00    +0.000 OA
ATOM      6  C   UNL     1       2.687   4.040  18.083  0.00  0.00    +0.000 A 
ATOM      7  C   UNL     1       2.402   2.667  18.043  0.00  0.00    +0.000 A 
ATOM      8  C   UNL     1       1.472   2.119  18.922  0.00  0.00    +0.000 A 
ATOM      9  C   UNL     1       0.823   2.940  19.840  0.00  0.00    +0.000 A 
ATOM     10  C   UNL     1       1.113   4.309  19.889  0.00  0.00    +0.000 A 
ATOM     11  C   UNL     1       2.054   4.863  19.012  0.00  0.00    +0.000 A 
ENDROOT
BRANCH   1  13
ATOM     12  O   UNL     1       1.753   6.836  21.202  0.00  0.00    +0.000 OA
ATOM     13  C   UNL     1       1.848   7.242  20.047  0.00  0.00    +0.000 C 
ATOM     14  N   UNL     1       1.535   8.541  19.652  0.00  0.00    +0.000 N 
ATOM     15  C   UNL     1       1.316   8.942  18.256  0.00  0.00    +0.000 C 
ATOM     16  C   UNL     1       1.696  10.404  17.992  0.00  0.00    +0.000 C 
ATOM     17  N   UNL     1       1.114  11.368  18.944  0.00  0.00    +0.000 NA
ATOM     18  C   UNL     1       1.451  10.926  20.317  0.00  0.00    +0.000 C 
ATOM     19  C   UNL     1       1.030   9.481  20.651  0.00  0.00    +0.000 C 
BRANCH  17  20
ATOM     20  C   UNL     1      -0.335  11.525  18.712  0.00  0.00    +0.000 C 
BRANCH  20  21
ATOM     21  C   UNL     1      -0.683  12.921  18.190  0.00  0.00    +0.000 C 
BRANCH  21  22
ATOM     22  O   UNL     1      -0.535  13.888  19.236  0.00  0.00    +0.000 OA
BRANCH  22  23
ATOM     23  C   UNL     1       0.250  14.953  18.874  0.00  0.00    +0.000 A 
ATOM     24  C   UNL     1       1.641  14.899  18.746  0.00  0.00    +0.000 A 
ATOM     25  C   UNL     1       2.359  16.040  18.389  0.00  0.00    +0.000 A 
ATOM     26  C   UNL     1       1.690  17.237  18.146  0.00  0.00    +0.000 A 
ATOM     27  C   UNL     1       0.302  17.290  18.247  0.00  0.00    +0.000 A 
ATOM     28  C   UNL     1      -0.421  16.148  18.603  0.00  0.00    +0.000 A 
ENDBRANCH  22  23
ENDBRANCH  21  22
ENDBRANCH  20  21
ENDBRANCH  17  20
ENDBRANCH   1  13
BRANCH   3  29
ATOM     29  C   UNL     1       5.045   6.559  16.515  0.00  0.00    +0.000 C 
BRANCH  29  30
ATOM     30  C   UNL     1       6.283   6.812  17.359  0.00  0.00    +0.000 A 
ATOM     31  C   UNL     1       6.733   5.841  18.268  0.00  0.00    +0.000 A 
ATOM     32  C   UNL     1       7.857   6.068  19.067  0.00  0.00    +0.000 A 
ATOM     33  C   UNL     1       8.547   7.274  18.968  0.00  0.00    +0.000 A 
ATOM     34  C   UNL     1       8.121   8.245  18.064  0.00  0.00    +0.000 A 
ATOM     35  C   UNL     1       6.998   8.015  17.263  0.00  0.00    +0.000 A 
ENDBRANCH  29  30
ENDBRANCH   3  29
TORSDOF 7
ENDMDL
MODEL 2
REMARK VINA RESULT:      -8.4      0.158      1.162
REMARK  Name = 
REMARK  7 active torsions:
REMARK  status: ('A' for Active; 'I' for Inactive)
REMARK    1  A    between atoms: C_2  and  C_3
REMARK    2  A    between atoms: N_5  and  C_6
REMARK    3  A    between atoms: C_6  and  C_7
REMARK    4  A    between atoms: N_24  and  C_25
REMARK    5  A    between atoms: C_25  and  C_26
REMARK    6  A    between atoms: C_26  and  O_27
REMARK    7  A    between atoms: O_27  and  C_28
REMARK                            x       y       z     vdW  Elec       q    Type
REMARK                         _______ _______ _______ _____ _____    ______ ____
ROOT
ATOM      1  C   UNL     1       2.402   6.310  18.992  0.00  0.00    +0.000 A 
ATOM      2  N   UNL     1       3.253   6.806  18.142  0.00  0.00    +0.000 NA
ATOM      3  N   UNL     1       3.935   5.964  17.293  0.00  0.00    +0.000 N 
ATOM      4  C   UNL     1       3.680   4.602  17.189  0.00  0.00    +0.000 A 
ATOM      5  O   UNL     1       4.238   3.853  16.390  0.00  0.00    +0.000 OA
ATOM      6  C   UNL     1       2.683   4.045  18.120  0.00  0.00    +0.000 A 
ATOM      7  C   UNL     1       2.406   2.670  18.099  0.00  0.00    +0.000 A 
ATOM      8  C   UNL     1       1.474   2.130  18.980  0.00  0.00    +0.000 A 
ATOM      9  C   UNL     1       0.814   2.961  19.881  0.00  0.00    +0.000 A 
ATOM     10  C   UNL     1       1.096   4.332  19.911  0.00  0.00    +0.000 A 
ATOM     11  C   UNL     1       2.039   4.879  19.031  0.00  0.00    +0.000 A 
ENDROOT
BRANCH   1  13
ATOM     12  O   UNL     1       1.682   6.871  21.183  0.00  0.00    +0.000 OA
ATOM     13  C   UNL     1       1.812   7.271  20.029  0.00  0.00    +0.000 C 
ATOM     14  N   UNL     1       1.529   8.573  19.621  0.00  0.00    +0.000 N 
ATOM     15  C   UNL     1       1.352   8.972  18.219  0.00  0.00    +0.000 C 
ATOM     16  C   UNL     1       1.761  10.428  17.960  0.00  0.00    +0.000 C 
ATOM     17  N   UNL     1       1.170  11.404  18.893  0.00  0.00    +0.000 NA
ATOM     18  C   UNL     1       1.464  10.962  20.276  0.00  0.00    +0.000 C 
ATOM     19  C   UNL     1       1.013   9.525  20.605  0.00  0.00    +0.000 C 
BRANCH  17  20
ATOM     20  C   UNL     1      -0.271  11.582  18.624  0.00  0.00    +0.000 C 
BRANCH  20  21
ATOM     21  C   UNL     1      -0.635  13.052  18.403  0.00  0.00    +0.000 C 
BRANCH  21  22
ATOM     22  O   UNL     1      -0.012  13.868  19.401  0.00  0.00    +0.000 OA
BRANCH  22  23
ATOM     23  C   UNL     1       0.466  15.054  18.904  0.00  0.00    +0.000 A 
ATOM     24  C   UNL     1      -0.332  16.163  18.610  0.00  0.00    +0.000 A 
ATOM     25  C   UNL     1       0.240  17.324  18.091  0.00  0.00    +0.000 A 
ATOM     26  C   UNL     1       1.614  17.387  17.875  0.00  0.00    +0.000 A 
ATOM     27  C   UNL     1       2.418  16.294  18.190  0.00  0.00    +0.000 A 
ATOM     28  C   UNL     1       1.847  15.129  18.712  0.00  0.00    +0.000 A 
ENDBRANCH  22  23
ENDBRANCH  21  22
ENDBRANCH  20  21
ENDBRANCH  17  20
ENDBRANCH   1  13
BRANCH   3  29
ATOM     29  C   UNL     1       5.036   6.554  16.528  0.00  0.00    +0.000 C 
BRANCH  29  30
ATOM     30  C   UNL     1       6.265   6.833  17.378  0.00  0.00    +0.000 A 
ATOM     31  C   UNL     1       6.946   8.056  17.263  0.00  0.00    +0.000 A 
ATOM     32  C   UNL     1       8.090   8.317  18.021  0.00  0.00    +0.000 A 
ATOM     33  C   UNL     1       8.572   7.355  18.906  0.00  0.00    +0.000 A 
ATOM     34  C   UNL     1       7.904   6.140  19.040  0.00  0.00    +0.000 A 
ATOM     35  C   UNL     1       6.756   5.880  18.283  0.00  0.00    +0.000 A 
ENDBRANCH  29  30
ENDBRANCH   3  29
TORSDOF 7
ENDMDL
MODEL 3
REMARK VINA RESULT:      -8.4      2.284      3.469
REMARK  Name = 
REMARK  7 active torsions:
REMARK  status: ('A' for Active; 'I' for Inactive)
REMARK    1  A    between atoms: C_2  and  C_3
REMARK    2  A    between atoms: N_5  and  C_6
REMARK    3  A    between atoms: C_6  and  C_7
REMARK    4  A    between atoms: N_24  and  C_25
REMARK    5  A    between atoms: C_25  and  C_26
REMARK    6  A    between atoms: C_26  and  O_27
REMARK    7  A    between atoms: O_27  and  C_28
REMARK                            x       y       z     vdW  Elec       q    Type
REMARK                         _______ _______ _______ _____ _____    ______ ____
ROOT
ATOM      1  C   UNL     1       2.550   6.184  18.965  0.00  0.00    +0.000 A 
ATOM      2  N   UNL     1       3.402   6.690  18.122  0.00  0.00    +0.000 NA
ATOM      3  N   UNL     1       4.040   5.866  17.222  0.00  0.00    +0.000 N 
ATOM      4  C   UNL     1       3.738   4.518  17.063  0.00  0.00    +0.000 A 
ATOM      5  O   UNL     1       4.256   3.788  16.221  0.00  0.00    +0.000 OA
ATOM      6  C   UNL     1       2.741   3.953  17.988  0.00  0.00    +0.000 A 
ATOM      7  C   UNL     1       2.417   2.589  17.912  0.00  0.00    +0.000 A 
ATOM      8  C   UNL     1       1.484   2.041  18.787  0.00  0.00    +0.000 A 
ATOM      9  C   UNL     1       0.868   2.851  19.736  0.00  0.00    +0.000 A 
ATOM     10  C   UNL     1       1.196   4.210  19.821  0.00  0.00    +0.000 A 
ATOM     11  C   UNL     1       2.141   4.765  18.948  0.00  0.00    +0.000 A 
ENDROOT
BRANCH   1  13
ATOM     12  O   UNL     1       2.233   6.826  21.228  0.00  0.00    +0.000 OA
ATOM     13  C   UNL     1       2.011   7.116  20.055  0.00  0.00    +0.000 C 
ATOM     14  N   UNL     1       1.368   8.284  19.651  0.00  0.00    +0.000 N 
ATOM     15  C   UNL     1       0.799   8.485  18.312  0.00  0.00    +0.000 C 
ATOM     16  C   UNL     1       0.812   9.956  17.876  0.00  0.00    +0.000 C 
ATOM     17  N   UNL     1       0.246  10.891  18.865  0.00  0.00    +0.000 NA
ATOM     18  C   UNL     1       0.930  10.670  20.160  0.00  0.00    +0.000 C 
ATOM     19  C   UNL     1       0.889   9.216  20.672  0.00  0.00    +0.000 C 
BRANCH  17  20
ATOM     20  C   UNL     1      -1.221  10.750  18.941  0.00  0.00    +0.000 C 
BRANCH  20  21
ATOM     21  C   UNL     1      -1.940  12.074  18.668  0.00  0.00    +0.000 C 
BRANCH  21  22
ATOM     22  O   UNL     1      -3.040  11.860  17.778  0.00  0.00    +0.000 OA
BRANCH  22  23
ATOM     23  C   UNL     1      -4.233  11.685  18.432  0.00  0.00    +0.000 A 
ATOM     24  C   UNL     1      -5.248  10.824  18.004  0.00  0.00    +0.000 A 
ATOM     25  C   UNL     1      -6.437  10.723  18.725  0.00  0.00    +0.000 A 
ATOM     26  C   UNL     1      -6.613  11.473  19.886  0.00  0.00    +0.000 A 
ATOM     27  C   UNL     1      -5.595  12.313  20.331  0.00  0.00    +0.000 A 
ATOM     28  C   UNL     1      -4.402  12.415  19.610  0.00  0.00    +0.000 A 
ENDBRANCH  22  23
ENDBRANCH  21  22
ENDBRANCH  20  21
ENDBRANCH  17  20
ENDBRANCH   1  13
BRANCH   3  29
ATOM     29  C   UNL     1       5.146   6.453  16.463  0.00  0.00    +0.000 C 
BRANCH  29  30
ATOM     30  C   UNL     1       6.358   6.765  17.326  0.00  0.00    +0.000 A 
ATOM     31  C   UNL     1       6.830   5.823  18.254  0.00  0.00    +0.000 A 
ATOM     32  C   UNL     1       7.929   6.105  19.070  0.00  0.00    +0.000 A 
ATOM     33  C   UNL     1       8.571   7.337  18.970  0.00  0.00    +0.000 A 
ATOM     34  C   UNL     1       8.123   8.280  18.047  0.00  0.00    +0.000 A 
ATOM     35  C   UNL     1       7.025   7.995  17.228  0.00  0.00    +0.000 A 
ENDBRANCH  29  30
ENDBRANCH   3  29
TORSDOF 7
ENDMDL
MODEL 4
REMARK VINA RESULT:      -8.4      1.829      2.864
REMARK  Name = 
REMARK  7 active torsions:
REMARK  status: ('A' for Active; 'I' for Inactive)
REMARK    1  A    between atoms: C_2  and  C_3
REMARK    2  A    between atoms: N_5  and  C_6
REMARK    3  A    between atoms: C_6  and  C_7
REMARK    4  A    between atoms: N_24  and  C_25
REMARK    5  A    between atoms: C_25  and  C_26
REMARK    6  A    between atoms: C_26  and  O_27
REMARK    7  A    between atoms: O_27  and  C_28
REMARK                            x       y       z     vdW  Elec       q    Type
REMARK                         _______ _______ _______ _____ _____    ______ ____
ROOT
ATOM      1  C   UNL     1       2.473   6.193  18.929  0.00  0.00    +0.000 A 
ATOM      2  N   UNL     1       3.328   6.696  18.088  0.00  0.00    +0.000 NA
ATOM      3  N   UNL     1       4.004   5.862  17.226  0.00  0.00    +0.000 N 
ATOM      4  C   UNL     1       3.739   4.503  17.101  0.00  0.00    +0.000 A 
ATOM      5  O   UNL     1       4.292   3.762  16.291  0.00  0.00    +0.000 OA
ATOM      6  C   UNL     1       2.738   3.940  18.023  0.00  0.00    +0.000 A 
ATOM      7  C   UNL     1       2.450   2.567  17.980  0.00  0.00    +0.000 A 
ATOM      8  C   UNL     1       1.513   2.020  18.853  0.00  0.00    +0.000 A 
ATOM      9  C   UNL     1       0.859   2.842  19.766  0.00  0.00    +0.000 A 
ATOM     10  C   UNL     1       1.151   4.211  19.817  0.00  0.00    +0.000 A 
ATOM     11  C   UNL     1       2.099   4.764  18.946  0.00  0.00    +0.000 A 
ENDROOT
BRANCH   1  13
ATOM     12  O   UNL     1       1.829   6.753  21.144  0.00  0.00    +0.000 OA
ATOM     13  C   UNL     1       1.889   7.142  19.980  0.00  0.00    +0.000 C 
ATOM     14  N   UNL     1       1.532   8.425  19.571  0.00  0.00    +0.000 N 
ATOM     15  C   UNL     1       1.274   8.796  18.173  0.00  0.00    +0.000 C 
ATOM     16  C   UNL     1       1.607  10.264  17.878  0.00  0.00    +0.000 C 
ATOM     17  N   UNL     1       1.016  11.227  18.825  0.00  0.00    +0.000 NA
ATOM     18  C   UNL     1       1.392  10.818  20.199  0.00  0.00    +0.000 C 
ATOM     19  C   UNL     1       1.020   9.368  20.565  0.00  0.00    +0.000 C 
BRANCH  17  20
ATOM     20  C   UNL     1      -0.441  11.339  18.621  0.00  0.00    +0.000 C 
BRANCH  20  21
ATOM     21  C   UNL     1      -0.936  12.776  18.805  0.00  0.00    +0.000 C 
BRANCH  21  22
ATOM     22  O   UNL     1      -0.712  13.203  20.153  0.00  0.00    +0.000 OA
BRANCH  22  23
ATOM     23  C   UNL     1      -1.794  12.992  20.970  0.00  0.00    +0.000 A 
ATOM     24  C   UNL     1      -3.125  13.087  20.554  0.00  0.00    +0.000 A 
ATOM     25  C   UNL     1      -4.163  12.870  21.460  0.00  0.00    +0.000 A 
ATOM     26  C   UNL     1      -3.875  12.544  22.784  0.00  0.00    +0.000 A 
ATOM     27  C   UNL     1      -2.550  12.422  23.197  0.00  0.00    +0.000 A 
ATOM     28  C   UNL     1      -1.508  12.638  22.290  0.00  0.00    +0.000 A 
ENDBRANCH  22  23
ENDBRANCH  21  22
ENDBRANCH  20  21
ENDBRANCH  17  20
ENDBRANCH   1  13
BRANCH   3  29
ATOM     29  C   UNL     1       5.111   6.455  16.471  0.00  0.00    +0.000 C 
BRANCH  29  30
ATOM     30  C   UNL     1       6.313   6.782  17.341  0.00  0.00    +0.000 A 
ATOM     31  C   UNL     1       6.965   8.019  17.216  0.00  0.00    +0.000 A 
ATOM     32  C   UNL     1       8.086   8.324  17.992  0.00  0.00    +0.000 A 
ATOM     33  C   UNL     1       8.573   7.393  18.906  0.00  0.00    +0.000 A 
ATOM     34  C   UNL     1       7.933   6.164  19.051  0.00  0.00    +0.000 A 
ATOM     35  C   UNL     1       6.809   5.860  18.275  0.00  0.00    +0.000 A 
ENDBRANCH  29  30
ENDBRANCH   3  29
TORSDOF 7
ENDMDL
MODEL 5
REMARK VINA RESULT:      -8.4      2.061      3.174
REMARK  Name = 
REMARK  7 active torsions:
REMARK  status: ('A' for Active; 'I' for Inactive)
REMARK    1  A    between atoms: C_2  and  C_3
REMARK    2  A    between atoms: N_5  and  C_6
REMARK    3  A    between atoms: C_6  and  C_7
REMARK    4  A    between atoms: N_24  and  C_25
REMARK    5  A    between atoms: C_25  and  C_26
REMARK    6  A    between atoms: C_26  and  O_27
REMARK    7  A    between atoms: O_27  and  C_28
REMARK                            x       y       z     vdW  Elec       q    Type
REMARK                         _______ _______ _______ _____ _____    ______ ____
ROOT
ATOM      1  C   UNL     1       2.361   6.355  18.993  0.00  0.00    +0.000 A 
ATOM      2  N   UNL     1       3.199   6.839  18.123  0.00  0.00    +0.000 NA
ATOM      3  N   UNL     1       3.907   5.982  17.311  0.00  0.00    +0.000 N 
ATOM      4  C   UNL     1       3.693   4.609  17.266  0.00  0.00    +0.000 A 
ATOM      5  O   UNL     1       4.275   3.843  16.501  0.00  0.00    +0.000 OA
ATOM      6  C   UNL     1       2.711   4.064  18.220  0.00  0.00    +0.000 A 
ATOM      7  C   UNL     1       2.475   2.681  18.258  0.00  0.00    +0.000 A 
ATOM      8  C   UNL     1       1.557   2.152  19.161  0.00  0.00    +0.000 A 
ATOM      9  C   UNL     1       0.871   3.001  20.024  0.00  0.00    +0.000 A 
ATOM     10  C   UNL     1       1.112   4.380  19.995  0.00  0.00    +0.000 A 
ATOM     11  C   UNL     1       2.041   4.916  19.094  0.00  0.00    +0.000 A 
ENDROOT
BRANCH   1  13
ATOM     12  O   UNL     1       1.505   6.946  21.125  0.00  0.00    +0.000 OA
ATOM     13  C   UNL     1       1.741   7.342  19.986  0.00  0.00    +0.000 C 
ATOM     14  N   UNL     1       1.552   8.656  19.565  0.00  0.00    +0.000 N 
ATOM     15  C   UNL     1       1.501   9.065  18.156  0.00  0.00    +0.000 C 
ATOM     16  C   UNL     1       1.996  10.500  17.935  0.00  0.00    +0.000 C 
ATOM     17  N   UNL     1       1.383  11.502  18.826  0.00  0.00    +0.000 NA
ATOM     18  C   UNL     1       1.550  11.045  20.225  0.00  0.00    +0.000 C 
ATOM     19  C   UNL     1       1.008   9.630  20.511  0.00  0.00    +0.000 C 
BRANCH  17  20
ATOM     20  C   UNL     1      -0.023  11.749  18.449  0.00  0.00    +0.000 C 
BRANCH  20  21
ATOM     21  C   UNL     1      -0.992  11.360  19.568  0.00  0.00    +0.000 C 
BRANCH  21  22
ATOM     22  O   UNL     1      -1.776  10.231  19.168  0.00  0.00    +0.000 OA
BRANCH  22  23
ATOM     23  C   UNL     1      -2.504  10.461  18.028  0.00  0.00    +0.000 A 
ATOM     24  C   UNL     1      -3.594  11.334  17.951  0.00  0.00    +0.000 A 
ATOM     25  C   UNL     1      -4.286  11.491  16.751  0.00  0.00    +0.000 A 
ATOM     26  C   UNL     1      -3.884  10.788  15.618  0.00  0.00    +0.000 A 
ATOM     27  C   UNL     1      -2.783   9.937  15.682  0.00  0.00    +0.000 A 
ATOM     28  C   UNL     1      -2.087   9.777  16.884  0.00  0.00    +0.000 A 
ENDBRANCH  22  23
ENDBRANCH  21  22
ENDBRANCH  20  21
ENDBRANCH  17  20
ENDBRANCH   1  13
BRANCH   3  29
ATOM     29  C   UNL     1       4.992   6.571  16.523  0.00  0.00    +0.000 C 
BRANCH  29  30
ATOM     30  C   UNL     1       6.244   6.836  17.343  0.00  0.00    +0.000 A 
ATOM     31  C   UNL     1       6.721   5.871  18.244  0.00  0.00    +0.000 A 
ATOM     32  C   UNL     1       7.857   6.111  19.021  0.00  0.00    +0.000 A 
ATOM     33  C   UNL     1       8.534   7.323  18.908  0.00  0.00    +0.000 A 
ATOM     34  C   UNL     1       8.081   8.288  18.011  0.00  0.00    +0.000 A 
ATOM     35  C   UNL     1       6.945   8.046  17.231  0.00  0.00    +0.000 A 
ENDBRANCH  29  30
ENDBRANCH   3  29
TORSDOF 7
ENDMDL
MODEL 6
REMARK VINA RESULT:      -8.3      1.714      2.296
REMARK  Name = 
REMARK  7 active torsions:
REMARK  status: ('A' for Active; 'I' for Inactive)
REMARK    1  A    between atoms: C_2  and  C_3
REMARK    2  A    between atoms: N_5  and  C_6
REMARK    3  A    between atoms: C_6  and  C_7
REMARK    4  A    between atoms: N_24  and  C_25
REMARK    5  A    between atoms: C_25  and  C_26
REMARK    6  A    between atoms: C_26  and  O_27
REMARK    7  A    between atoms: O_27  and  C_28
REMARK                            x       y       z     vdW  Elec       q    Type
REMARK                         _______ _______ _______ _____ _____    ______ ____
ROOT
ATOM      1  C   UNL     1       2.469   6.188  18.960  0.00  0.00    +0.000 A 
ATOM      2  N   UNL     1       3.319   6.685  18.109  0.00  0.00    +0.000 NA
ATOM      3  N   UNL     1       3.995   5.845  17.253  0.00  0.00    +0.000 N 
ATOM      4  C   UNL     1       3.736   4.483  17.145  0.00  0.00    +0.000 A 
ATOM      5  O   UNL     1       4.289   3.736  16.341  0.00  0.00    +0.000 OA
ATOM      6  C   UNL     1       2.741   3.926  18.077  0.00  0.00    +0.000 A 
ATOM      7  C   UNL     1       2.459   2.551  18.051  0.00  0.00    +0.000 A 
ATOM      8  C   UNL     1       1.528   2.010  18.934  0.00  0.00    +0.000 A 
ATOM      9  C   UNL     1       0.874   2.840  19.841  0.00  0.00    +0.000 A 
ATOM     10  C   UNL     1       1.160   4.210  19.875  0.00  0.00    +0.000 A 
ATOM     11  C   UNL     1       2.102   4.757  18.995  0.00  0.00    +0.000 A 
ENDROOT
BRANCH   1  13
ATOM     12  O   UNL     1       1.838   6.772  21.172  0.00  0.00    +0.000 OA
ATOM     13  C   UNL     1       1.886   7.146  20.002  0.00  0.00    +0.000 C 
ATOM     14  N   UNL     1       1.514   8.421  19.579  0.00  0.00    +0.000 N 
ATOM     15  C   UNL     1       1.243   8.771  18.179  0.00  0.00    +0.000 C 
ATOM     16  C   UNL     1       1.560  10.237  17.861  0.00  0.00    +0.000 C 
ATOM     17  N   UNL     1       0.969  11.208  18.800  0.00  0.00    +0.000 NA
ATOM     18  C   UNL     1       1.359  10.821  20.176  0.00  0.00    +0.000 C 
ATOM     19  C   UNL     1       1.002   9.372  20.564  0.00  0.00    +0.000 C 
BRANCH  17  20
ATOM     20  C   UNL     1      -0.490  11.305  18.606  0.00  0.00    +0.000 C 
BRANCH  20  21
ATOM     21  C   UNL     1      -0.981  12.754  18.665  0.00  0.00    +0.000 C 
BRANCH  21  22
ATOM     22  O   UNL     1      -2.132  12.847  19.512  0.00  0.00    +0.000 OA
BRANCH  22  23
ATOM     23  C   UNL     1      -1.819  13.168  20.809  0.00  0.00    +0.000 A 
ATOM     24  C   UNL     1      -0.707  13.928  21.187  0.00  0.00    +0.000 A 
ATOM     25  C   UNL     1      -0.459  14.190  22.533  0.00  0.00    +0.000 A 
ATOM     26  C   UNL     1      -1.327  13.706  23.509  0.00  0.00    +0.000 A 
ATOM     27  C   UNL     1      -2.450  12.971  23.137  0.00  0.00    +0.000 A 
ATOM     28  C   UNL     1      -2.702  12.707  21.788  0.00  0.00    +0.000 A 
ENDBRANCH  22  23
ENDBRANCH  21  22
ENDBRANCH  20  21
ENDBRANCH  17  20
ENDBRANCH   1  13
BRANCH   3  29
ATOM     29  C   UNL     1       5.095   6.434  16.488  0.00  0.00    +0.000 C 
BRANCH  29  30
ATOM     30  C   UNL     1       6.315   6.739  17.341  0.00  0.00    +0.000 A 
ATOM     31  C   UNL     1       6.775   5.805  18.282  0.00  0.00    +0.000 A 
ATOM     32  C   UNL     1       7.882   6.081  19.090  0.00  0.00    +0.000 A 
ATOM     33  C   UNL     1       8.544   7.300  18.968  0.00  0.00    +0.000 A 
ATOM     34  C   UNL     1       8.108   8.236  18.032  0.00  0.00    +0.000 A 
ATOM     35  C   UNL     1       7.002   7.957  17.222  0.00  0.00    +0.000 A 
ENDBRANCH  29  30
ENDBRANCH   3  29
TORSDOF 7
ENDMDL
MODEL 7
REMARK VINA RESULT:      -8.3      2.153      2.986
REMARK  Name = 
REMARK  7 active torsions:
REMARK  status: ('A' for Active; 'I' for Inactive)
REMARK    1  A    between atoms: C_2  and  C_3
REMARK    2  A    between atoms: N_5  and  C_6
REMARK    3  A    between atoms: C_6  and  C_7
REMARK    4  A    between atoms: N_24  and  C_25
REMARK    5  A    between atoms: C_25  and  C_26
REMARK    6  A    between atoms: C_26  and  O_27
REMARK    7  A    between atoms: O_27  and  C_28
REMARK                            x       y       z     vdW  Elec       q    Type
REMARK                         _______ _______ _______ _____ _____    ______ ____
ROOT
ATOM      1  C   UNL     1       2.416   6.305  19.036  0.00  0.00    +0.000 A 
ATOM      2  N   UNL     1       3.269   6.772  18.170  0.00  0.00    +0.000 NA
ATOM      3  N   UNL     1       3.921   5.904  17.323  0.00  0.00    +0.000 N 
ATOM      4  C   UNL     1       3.633   4.547  17.238  0.00  0.00    +0.000 A 
ATOM      5  O   UNL     1       4.164   3.776  16.442  0.00  0.00    +0.000 OA
ATOM      6  C   UNL     1       2.634   4.025  18.187  0.00  0.00    +0.000 A 
ATOM      7  C   UNL     1       2.324   2.656  18.185  0.00  0.00    +0.000 A 
ATOM      8  C   UNL     1       1.390   2.148  19.083  0.00  0.00    +0.000 A 
ATOM      9  C   UNL     1       0.760   3.005  19.982  0.00  0.00    +0.000 A 
ATOM     10  C   UNL     1       1.074   4.369  19.993  0.00  0.00    +0.000 A 
ATOM     11  C   UNL     1       2.020   4.883  19.096  0.00  0.00    +0.000 A 
ENDROOT
BRANCH   1  13
ATOM     12  O   UNL     1       1.808   6.934  21.242  0.00  0.00    +0.000 OA
ATOM     13  C   UNL     1       1.861   7.292  20.067  0.00  0.00    +0.000 C 
ATOM     14  N   UNL     1       1.521   8.570  19.628  0.00  0.00    +0.000 N 
ATOM     15  C   UNL     1       1.255   8.909  18.225  0.00  0.00    +0.000 C 
ATOM     16  C   UNL     1       1.609  10.363  17.888  0.00  0.00    +0.000 C 
ATOM     17  N   UNL     1       1.046  11.360  18.816  0.00  0.00    +0.000 NA
ATOM     18  C   UNL     1       1.430  10.980  20.195  0.00  0.00    +0.000 C 
ATOM     19  C   UNL     1       1.037   9.547  20.603  0.00  0.00    +0.000 C 
BRANCH  17  20
ATOM     20  C   UNL     1      -0.411  11.493  18.624  0.00  0.00    +0.000 C 
BRANCH  20  21
ATOM     21  C   UNL     1      -1.111  12.001  19.887  0.00  0.00    +0.000 C 
BRANCH  21  22
ATOM     22  O   UNL     1      -2.386  12.558  19.550  0.00  0.00    +0.000 OA
BRANCH  22  23
ATOM     23  C   UNL     1      -3.222  12.678  20.631  0.00  0.00    +0.000 A 
ATOM     24  C   UNL     1      -2.805  12.591  21.963  0.00  0.00    +0.000 A 
ATOM     25  C   UNL     1      -3.730  12.709  22.999  0.00  0.00    +0.000 A 
ATOM     26  C   UNL     1      -5.075  12.928  22.711  0.00  0.00    +0.000 A 
ATOM     27  C   UNL     1      -5.492  13.042  21.387  0.00  0.00    +0.000 A 
ATOM     28  C   UNL     1      -4.567  12.925  20.346  0.00  0.00    +0.000 A 
ENDBRANCH  22  23
ENDBRANCH  21  22
ENDBRANCH  20  21
ENDBRANCH  17  20
ENDBRANCH   1  13
BRANCH   3  29
ATOM     29  C   UNL     1       5.027   6.459  16.540  0.00  0.00    +0.000 C 
BRANCH  29  30
ATOM     30  C   UNL     1       6.267   6.731  17.374  0.00  0.00    +0.000 A 
ATOM     31  C   UNL     1       6.707   5.791  18.320  0.00  0.00    +0.000 A 
ATOM     32  C   UNL     1       7.832   6.037  19.111  0.00  0.00    +0.000 A 
ATOM     33  C   UNL     1       8.535   7.231  18.967  0.00  0.00    +0.000 A 
ATOM     34  C   UNL     1       8.119   8.171  18.026  0.00  0.00    +0.000 A 
ATOM     35  C   UNL     1       6.994   7.922  17.233  0.00  0.00    +0.000 A 
ENDBRANCH  29  30
ENDBRANCH   3  29
TORSDOF 7
ENDMDL
MODEL 8
REMARK VINA RESULT:      -8.1      0.738      1.453
REMARK  Name = 
REMARK  7 active torsions:
REMARK  status: ('A' for Active; 'I' for Inactive)
REMARK    1  A    between atoms: C_2  and  C_3
REMARK    2  A    between atoms: N_5  and  C_6
REMARK    3  A    between atoms: C_6  and  C_7
REMARK    4  A    between atoms: N_24  and  C_25
REMARK    5  A    between atoms: C_25  and  C_26
REMARK    6  A    between atoms: C_26  and  O_27
REMARK    7  A    between atoms: O_27  and  C_28
REMARK                            x       y       z     vdW  Elec       q    Type
REMARK                         _______ _______ _______ _____ _____    ______ ____
ROOT
ATOM      1  C   UNL     1       2.429   6.270  18.980  0.00  0.00    +0.000 A 
ATOM      2  N   UNL     1       3.286   6.773  18.140  0.00  0.00    +0.000 NA
ATOM      3  N   UNL     1       3.968   5.938  17.283  0.00  0.00    +0.000 N 
ATOM      4  C   UNL     1       3.707   4.578  17.161  0.00  0.00    +0.000 A 
ATOM      5  O   UNL     1       4.265   3.836  16.356  0.00  0.00    +0.000 OA
ATOM      6  C   UNL     1       2.703   4.015  18.081  0.00  0.00    +0.000 A 
ATOM      7  C   UNL     1       2.419   2.641  18.041  0.00  0.00    +0.000 A 
ATOM      8  C   UNL     1       1.480   2.095  18.911  0.00  0.00    +0.000 A 
ATOM      9  C   UNL     1       0.820   2.918  19.819  0.00  0.00    +0.000 A 
ATOM     10  C   UNL     1       1.108   4.287  19.868  0.00  0.00    +0.000 A 
ATOM     11  C   UNL     1       2.058   4.840  18.999  0.00  0.00    +0.000 A 
ENDROOT
BRANCH   1  13
ATOM     12  O   UNL     1       1.747   6.824  21.184  0.00  0.00    +0.000 OA
ATOM     13  C   UNL     1       1.838   7.221  20.025  0.00  0.00    +0.000 C 
ATOM     14  N   UNL     1       1.511   8.513  19.619  0.00  0.00    +0.000 N 
ATOM     15  C   UNL     1       1.290   8.899  18.219  0.00  0.00    +0.000 C 
ATOM     16  C   UNL     1       1.653  10.363  17.943  0.00  0.00    +0.000 C 
ATOM     17  N   UNL     1       1.059  11.329  18.885  0.00  0.00    +0.000 NA
ATOM     18  C   UNL     1       1.398  10.903  20.263  0.00  0.00    +0.000 C 
ATOM     19  C   UNL     1       0.994   9.456  20.609  0.00  0.00    +0.000 C 
BRANCH  17  20
ATOM     20  C   UNL     1      -0.392  11.467  18.650  0.00  0.00    +0.000 C 
BRANCH  20  21
ATOM     21  C   UNL     1      -0.760  12.865  18.147  0.00  0.00    +0.000 C 
BRANCH  21  22
ATOM     22  O   UNL     1       0.236  13.810  18.552  0.00  0.00    +0.000 OA
BRANCH  22  23
ATOM     23  C   UNL     1      -0.297  14.960  19.076  0.00  0.00    +0.000 A 
ATOM     24  C   UNL     1      -0.287  16.200  18.429  0.00  0.00    +0.000 A 
ATOM     25  C   UNL     1      -0.839  17.321  19.046  0.00  0.00    +0.000 A 
ATOM     26  C   UNL     1      -1.418  17.207  20.308  0.00  0.00    +0.000 A 
ATOM     27  C   UNL     1      -1.455  15.970  20.947  0.00  0.00    +0.000 A 
ATOM     28  C   UNL     1      -0.902  14.844  20.329  0.00  0.00    +0.000 A 
ENDBRANCH  22  23
ENDBRANCH  21  22
ENDBRANCH  20  21
ENDBRANCH  17  20
ENDBRANCH   1  13
BRANCH   3  29
ATOM     29  C   UNL     1       5.076   6.532  16.532  0.00  0.00    +0.000 C 
BRANCH  29  30
ATOM     30  C   UNL     1       6.297   6.806  17.393  0.00  0.00    +0.000 A 
ATOM     31  C   UNL     1       6.989   8.022  17.279  0.00  0.00    +0.000 A 
ATOM     32  C   UNL     1       8.127   8.279  18.049  0.00  0.00    +0.000 A 
ATOM     33  C   UNL     1       8.591   7.319  18.944  0.00  0.00    +0.000 A 
ATOM     34  C   UNL     1       7.912   6.109  19.078  0.00  0.00    +0.000 A 
ATOM     35  C   UNL     1       6.771   5.855  18.310  0.00  0.00    +0.000 A 
ENDBRANCH  29  30
ENDBRANCH   3  29
TORSDOF 7
ENDMDL
MODEL 9
REMARK VINA RESULT:      -8.1      4.309     10.013
REMARK  Name = 
REMARK  7 active torsions:
REMARK  status: ('A' for Active; 'I' for Inactive)
REMARK    1  A    between atoms: C_2  and  C_3
REMARK    2  A    between atoms: N_5  and  C_6
REMARK    3  A    between atoms: C_6  and  C_7
REMARK    4  A    between atoms: N_24  and  C_25
REMARK    5  A    between atoms: C_25  and  C_26
REMARK    6  A    between atoms: C_26  and  O_27
REMARK    7  A    between atoms: O_27  and  C_28
REMARK                            x       y       z     vdW  Elec       q    Type
REMARK                         _______ _______ _______ _____ _____    ______ ____
ROOT
ATOM      1  C   UNL     1      -3.598  13.335  20.607  0.00  0.00    +0.000 A 
ATOM      2  N   UNL     1      -4.176  12.984  19.495  0.00  0.00    +0.000 NA
ATOM      3  N   UNL     1      -5.416  12.386  19.534  0.00  0.00    +0.000 N 
ATOM      4  C   UNL     1      -6.167  12.241  20.694  0.00  0.00    +0.000 A 
ATOM      5  O   UNL     1      -7.299  11.766  20.731  0.00  0.00    +0.000 OA
ATOM      6  C   UNL     1      -5.531  12.680  21.949  0.00  0.00    +0.000 A 
ATOM      7  C   UNL     1      -6.215  12.526  23.165  0.00  0.00    +0.000 A 
ATOM      8  C   UNL     1      -5.622  12.928  24.358  0.00  0.00    +0.000 A 
ATOM      9  C   UNL     1      -4.347  13.488  24.341  0.00  0.00    +0.000 A 
ATOM     10  C   UNL     1      -3.658  13.633  23.131  0.00  0.00    +0.000 A 
ATOM     11  C   UNL     1      -4.248  13.223  21.928  0.00  0.00    +0.000 A 
ENDROOT
BRANCH   1  13
ATOM     12  O   UNL     1      -1.930  15.021  20.709  0.00  0.00    +0.000 OA
ATOM     13  C   UNL     1      -2.151  13.828  20.513  0.00  0.00    +0.000 C 
ATOM     14  N   UNL     1      -1.154  12.881  20.288  0.00  0.00    +0.000 N 
ATOM     15  C   UNL     1      -1.404  11.548  19.724  0.00  0.00    +0.000 C 
ATOM     16  C   UNL     1      -0.400  10.498  20.216  0.00  0.00    +0.000 C 
ATOM     17  N   UNL     1       1.014  10.897  20.090  0.00  0.00    +0.000 NA
ATOM     18  C   UNL     1       1.186  12.211  20.752  0.00  0.00    +0.000 C 
ATOM     19  C   UNL     1       0.241  13.319  20.245  0.00  0.00    +0.000 C 
BRANCH  17  20
ATOM     20  C   UNL     1       1.438  10.888  18.676  0.00  0.00    +0.000 C 
BRANCH  20  21
ATOM     21  C   UNL     1       1.279   9.505  18.039  0.00  0.00    +0.000 C 
BRANCH  21  22
ATOM     22  O   UNL     1       2.526   9.076  17.482  0.00  0.00    +0.000 OA
BRANCH  22  23
ATOM     23  C   UNL     1       2.932   7.854  17.955  0.00  0.00    +0.000 A 
ATOM     24  C   UNL     1       3.920   7.066  17.357  0.00  0.00    +0.000 A 
ATOM     25  C   UNL     1       4.257   5.827  17.900  0.00  0.00    +0.000 A 
ATOM     26  C   UNL     1       3.618   5.374  19.052  0.00  0.00    +0.000 A 
ATOM     27  C   UNL     1       2.651   6.166  19.667  0.00  0.00    +0.000 A 
ATOM     28  C   UNL     1       2.312   7.409  19.125  0.00  0.00    +0.000 A 
ENDBRANCH  22  23
ENDBRANCH  21  22
ENDBRANCH  20  21
ENDBRANCH  17  20
ENDBRANCH   1  13
BRANCH   3  29
ATOM     29  C   UNL     1      -5.906  11.810  18.279  0.00  0.00    +0.000 C 
BRANCH  29  30
ATOM     30  C   UNL     1      -4.811  11.137  17.468  0.00  0.00    +0.000 A 
ATOM     31  C   UNL     1      -4.113  10.037  17.991  0.00  0.00    +0.000 A 
ATOM     32  C   UNL     1      -3.088   9.423  17.266  0.00  0.00    +0.000 A 
ATOM     33  C   UNL     1      -2.745   9.904  16.004  0.00  0.00    +0.000 A 
ATOM     34  C   UNL     1      -3.434  10.989  15.465  0.00  0.00    +0.000 A 
ATOM     35  C   UNL     1      -4.462  11.600  16.190  0.00  0.00    +0.000 A 
ENDBRANCH  29  30
ENDBRANCH   3  29
TORSDOF 7
ENDMDL
