MODEL 1
REMARK VINA RESULT:      -8.0      0.000      0.000
REMARK  Name = 
REMARK  3 active torsions:
REMARK  status: ('A' for Active; 'I' for Inactive)
REMARK    1  A    between atoms: C_1  and  C_2
REMARK    2  A    between atoms: C_12  and  C_13
REMARK    3  A    between atoms: C_15  and  C_16
REMARK                            x       y       z     vdW  Elec       q    Type
REMARK                         _______ _______ _______ _____ _____    ______ ____
ROOT
ATOM      1  C   UNL     1       3.322  16.599  17.721  0.00  0.00    +0.000 C 
ATOM      2  C   UNL     1       2.785  15.376  18.338  0.00  0.00    +0.000 A 
ATOM      3  C   UNL     1       2.653  14.069  17.940  0.00  0.00    +0.000 A 
ATOM      4  C   UNL     1       2.011  13.428  19.032  0.00  0.00    +0.000 A 
ATOM      5  N   UNL     1       1.648  12.087  19.058  0.00  0.00    +0.000 N 
ATOM      6  C   UNL     1       0.742  11.596  19.961  0.00  0.00    +0.000 C 
ATOM      7  O   UNL     1       0.156  12.282  20.798  0.00  0.00    +0.000 OA
ATOM      8  N   UNL     1       0.459  10.240  19.861  0.00  0.00    +0.000 N 
ATOM      9  C   UNL     1      -0.642   9.720  20.676  0.00  0.00    +0.000 C 
ATOM     10  C   UNL     1      -0.098   8.840  21.790  0.00  0.00    +0.000 C 
ATOM     11  C   UNL     1       0.722   7.696  21.202  0.00  0.00    +0.000 C 
ATOM     12  C   UNL     1       1.834   8.207  20.266  0.00  0.00    +0.000 C 
ATOM     13  C   UNL     1       1.295   9.216  19.230  0.00  0.00    +0.000 C 
ATOM     14  N   UNL     1       1.818  14.298  20.026  0.00  0.00    +0.000 NA
ATOM     15  O   UNL     1       2.286  15.514  19.590  0.00  0.00    +0.000 OA
ATOM     16  H   UNL     1       1.844  11.555  18.228  0.00  0.00    +0.000 HD
ENDROOT
BRANCH  12  17
ATOM     17  C   UNL     1       2.453   7.049  19.572  0.00  0.00    +0.000 A 
ATOM     18  N   UNL     1       3.350   7.046  18.615  0.00  0.00    +0.000 NA
ATOM     19  C   UNL     1       3.425   5.715  18.277  0.00  0.00    +0.000 A 
ATOM     20  N   UNL     1       2.630   4.921  19.013  0.00  0.00    +0.000 NA
ATOM     21  O   UNL     1       1.980   5.808  19.872  0.00  0.00    +0.000 OA
BRANCH  19  22
ATOM     22  C   UNL     1       4.283   5.254  17.191  0.00  0.00    +0.000 A 
ATOM     23  C   UNL     1       4.833   6.185  16.294  0.00  0.00    +0.000 A 
ATOM     24  C   UNL     1       5.645   5.763  15.239  0.00  0.00    +0.000 A 
ATOM     25  C   UNL     1       5.901   4.407  15.075  0.00  0.00    +0.000 A 
ATOM     26  F   UNL     1       6.673   4.002  14.062  0.00  0.00    +0.000 F 
ATOM     27  C   UNL     1       5.369   3.468  15.951  0.00  0.00    +0.000 A 
ATOM     28  C   UNL     1       4.560   3.890  17.011  0.00  0.00    +0.000 A 
ENDBRANCH  19  22
ENDBRANCH  12  17
TORSDOF 2
ENDMDL
MODEL 2
REMARK VINA RESULT:      -7.8      2.762      4.325
REMARK  Name = 
REMARK  3 active torsions:
REMARK  status: ('A' for Active; 'I' for Inactive)
REMARK    1  A    between atoms: C_1  and  C_2
REMARK    2  A    between atoms: C_12  and  C_13
REMARK    3  A    between atoms: C_15  and  C_16
REMARK                            x       y       z     vdW  Elec       q    Type
REMARK                         _______ _______ _______ _____ _____    ______ ____
ROOT
ATOM      1  C   UNL     1      -0.234  13.315  21.339  0.00  0.00    +0.000 C 
ATOM      2  C   UNL     1       0.281  11.946  21.180  0.00  0.00    +0.000 A 
ATOM      3  C   UNL     1       0.749  11.204  20.123  0.00  0.00    +0.000 A 
ATOM      4  C   UNL     1       1.049   9.936  20.685  0.00  0.00    +0.000 A 
ATOM      5  N   UNL     1       1.528   8.848  19.966  0.00  0.00    +0.000 N 
ATOM      6  C   UNL     1       1.478   7.570  20.460  0.00  0.00    +0.000 C 
ATOM      7  O   UNL     1       0.992   7.267  21.549  0.00  0.00    +0.000 OA
ATOM      8  N   UNL     1       1.977   6.578  19.627  0.00  0.00    +0.000 N 
ATOM      9  C   UNL     1       1.763   5.186  20.035  0.00  0.00    +0.000 C 
ATOM     10  C   UNL     1       3.082   4.558  20.458  0.00  0.00    +0.000 C 
ATOM     11  C   UNL     1       4.091   4.635  19.316  0.00  0.00    +0.000 C 
ATOM     12  C   UNL     1       4.270   6.076  18.802  0.00  0.00    +0.000 C 
ATOM     13  C   UNL     1       2.914   6.756  18.516  0.00  0.00    +0.000 C 
ATOM     14  N   UNL     1       0.813   9.947  21.999  0.00  0.00    +0.000 NA
ATOM     15  O   UNL     1       0.321  11.194  22.306  0.00  0.00    +0.000 OA
ATOM     16  H   UNL     1       1.645   8.982  18.977  0.00  0.00    +0.000 HD
ENDROOT
BRANCH  12  17
ATOM     17  C   UNL     1       5.096   6.051  17.568  0.00  0.00    +0.000 A 
ATOM     18  N   UNL     1       4.961   5.299  16.503  0.00  0.00    +0.000 NA
ATOM     19  C   UNL     1       6.084   5.612  15.770  0.00  0.00    +0.000 A 
ATOM     20  N   UNL     1       6.866   6.540  16.345  0.00  0.00    +0.000 NA
ATOM     21  O   UNL     1       6.212   6.830  17.543  0.00  0.00    +0.000 OA
BRANCH  19  22
ATOM     22  C   UNL     1       6.373   4.950  14.503  0.00  0.00    +0.000 A 
ATOM     23  C   UNL     1       5.481   3.988  14.000  0.00  0.00    +0.000 A 
ATOM     24  C   UNL     1       5.747   3.332  12.796  0.00  0.00    +0.000 A 
ATOM     25  C   UNL     1       6.910   3.631  12.098  0.00  0.00    +0.000 A 
ATOM     26  F   UNL     1       7.168   3.000  10.948  0.00  0.00    +0.000 F 
ATOM     27  C   UNL     1       7.807   4.580  12.577  0.00  0.00    +0.000 A 
ATOM     28  C   UNL     1       7.539   5.241  13.779  0.00  0.00    +0.000 A 
ENDBRANCH  19  22
ENDBRANCH  12  17
TORSDOF 2
ENDMDL
MODEL 3
REMARK VINA RESULT:      -7.8      2.480      2.634
REMARK  Name = 
REMARK  3 active torsions:
REMARK  status: ('A' for Active; 'I' for Inactive)
REMARK    1  A    between atoms: C_1  and  C_2
REMARK    2  A    between atoms: C_12  and  C_13
REMARK    3  A    between atoms: C_15  and  C_16
REMARK                            x       y       z     vdW  Elec       q    Type
REMARK                         _______ _______ _______ _____ _____    ______ ____
ROOT
ATOM      1  C   UNL     1       1.711  17.717  18.694  0.00  0.00    +0.000 C 
ATOM      2  C   UNL     1       1.453  16.428  19.355  0.00  0.00    +0.000 A 
ATOM      3  C   UNL     1       1.229  15.145  18.922  0.00  0.00    +0.000 A 
ATOM      4  C   UNL     1       1.019  14.400  20.111  0.00  0.00    +0.000 A 
ATOM      5  N   UNL     1       0.725  13.042  20.151  0.00  0.00    +0.000 N 
ATOM      6  C   UNL     1       0.199  12.444  21.266  0.00  0.00    +0.000 C 
ATOM      7  O   UNL     1      -0.082  13.040  22.305  0.00  0.00    +0.000 OA
ATOM      8  N   UNL     1      -0.063  11.084  21.158  0.00  0.00    +0.000 N 
ATOM      9  C   UNL     1      -0.802  10.452  22.254  0.00  0.00    +0.000 C 
ATOM     10  C   UNL     1       0.116   9.531  23.041  0.00  0.00    +0.000 C 
ATOM     11  C   UNL     1       0.716   8.474  22.119  0.00  0.00    +0.000 C 
ATOM     12  C   UNL     1       1.424   9.106  20.905  0.00  0.00    +0.000 C 
ATOM     13  C   UNL     1       0.533  10.151  20.200  0.00  0.00    +0.000 C 
ATOM     14  N   UNL     1       1.156  15.190  21.179  0.00  0.00    +0.000 NA
ATOM     15  O   UNL     1       1.411  16.456  20.709  0.00  0.00    +0.000 OA
ATOM     16  H   UNL     1       0.639  12.578  19.264  0.00  0.00    +0.000 HD
ENDROOT
BRANCH  12  17
ATOM     17  C   UNL     1       1.799   8.032  19.950  0.00  0.00    +0.000 A 
ATOM     18  N   UNL     1       1.968   6.751  20.176  0.00  0.00    +0.000 NA
ATOM     19  C   UNL     1       2.445   6.293  18.970  0.00  0.00    +0.000 A 
ATOM     20  N   UNL     1       2.540   7.244  18.026  0.00  0.00    +0.000 NA
ATOM     21  O   UNL     1       2.114   8.402  18.678  0.00  0.00    +0.000 OA
BRANCH  19  22
ATOM     22  C   UNL     1       2.828   4.898  18.785  0.00  0.00    +0.000 A 
ATOM     23  C   UNL     1       2.041   4.060  17.975  0.00  0.00    +0.000 A 
ATOM     24  C   UNL     1       2.383   2.718  17.797  0.00  0.00    +0.000 A 
ATOM     25  C   UNL     1       3.508   2.210  18.434  0.00  0.00    +0.000 A 
ATOM     26  F   UNL     1       3.833   0.923  18.268  0.00  0.00    +0.000 F 
ATOM     27  C   UNL     1       4.302   3.020  19.238  0.00  0.00    +0.000 A 
ATOM     28  C   UNL     1       3.964   4.365  19.414  0.00  0.00    +0.000 A 
ENDBRANCH  19  22
ENDBRANCH  12  17
TORSDOF 2
ENDMDL
MODEL 4
REMARK VINA RESULT:      -7.7      2.497      4.220
REMARK  Name = 
REMARK  3 active torsions:
REMARK  status: ('A' for Active; 'I' for Inactive)
REMARK    1  A    between atoms: C_1  and  C_2
REMARK    2  A    between atoms: C_12  and  C_13
REMARK    3  A    between atoms: C_15  and  C_16
REMARK                            x       y       z     vdW  Elec       q    Type
REMARK                         _______ _______ _______ _____ _____    ______ ____
ROOT
ATOM      1  C   UNL     1       0.091  13.177  19.844  0.00  0.00    +0.000 C 
ATOM      2  C   UNL     1       0.530  11.780  19.984  0.00  0.00    +0.000 A 
ATOM      3  C   UNL     1       1.084  10.849  19.140  0.00  0.00    +0.000 A 
ATOM      4  C   UNL     1       1.222   9.684  19.938  0.00  0.00    +0.000 A 
ATOM      5  N   UNL     1       1.720   8.469  19.482  0.00  0.00    +0.000 N 
ATOM      6  C   UNL     1       1.519   7.298  20.165  0.00  0.00    +0.000 C 
ATOM      7  O   UNL     1       0.874   7.206  21.209  0.00  0.00    +0.000 OA
ATOM      8  N   UNL     1       2.058   6.157  19.584  0.00  0.00    +0.000 N 
ATOM      9  C   UNL     1       1.700   4.866  20.179  0.00  0.00    +0.000 C 
ATOM     10  C   UNL     1       2.906   4.263  20.882  0.00  0.00    +0.000 C 
ATOM     11  C   UNL     1       4.060   4.100  19.898  0.00  0.00    +0.000 C 
ATOM     12  C   UNL     1       4.401   5.424  19.187  0.00  0.00    +0.000 C 
ATOM     13  C   UNL     1       3.144   6.103  18.604  0.00  0.00    +0.000 C 
ATOM     14  N   UNL     1       0.815   9.929  21.186  0.00  0.00    +0.000 NA
ATOM     15  O   UNL     1       0.370  11.230  21.212  0.00  0.00    +0.000 OA
ATOM     16  H   UNL     1       1.975   8.428  18.511  0.00  0.00    +0.000 HD
ENDROOT
BRANCH  12  17
ATOM     17  C   UNL     1       5.381   5.153  18.103  0.00  0.00    +0.000 A 
ATOM     18  N   UNL     1       5.215   5.234  16.805  0.00  0.00    +0.000 NA
ATOM     19  C   UNL     1       6.400   4.731  16.319  0.00  0.00    +0.000 A 
ATOM     20  N   UNL     1       7.275   4.381  17.276  0.00  0.00    +0.000 NA
ATOM     21  O   UNL     1       6.597   4.657  18.463  0.00  0.00    +0.000 OA
BRANCH  19  22
ATOM     22  C   UNL     1       6.631   4.582  14.886  0.00  0.00    +0.000 A 
ATOM     23  C   UNL     1       7.665   5.308  14.269  0.00  0.00    +0.000 A 
ATOM     24  C   UNL     1       7.894   5.190  12.896  0.00  0.00    +0.000 A 
ATOM     25  C   UNL     1       7.084   4.354  12.138  0.00  0.00    +0.000 A 
ATOM     26  F   UNL     1       7.299   4.245  10.823  0.00  0.00    +0.000 F 
ATOM     27  C   UNL     1       6.057   3.626  12.728  0.00  0.00    +0.000 A 
ATOM     28  C   UNL     1       5.829   3.739  14.103  0.00  0.00    +0.000 A 
ENDBRANCH  19  22
ENDBRANCH  12  17
TORSDOF 2
ENDMDL
MODEL 5
REMARK VINA RESULT:      -7.7      2.826      3.361
REMARK  Name = 
REMARK  3 active torsions:
REMARK  status: ('A' for Active; 'I' for Inactive)
REMARK    1  A    between atoms: C_1  and  C_2
REMARK    2  A    between atoms: C_12  and  C_13
REMARK    3  A    between atoms: C_15  and  C_16
REMARK                            x       y       z     vdW  Elec       q    Type
REMARK                         _______ _______ _______ _____ _____    ______ ____
ROOT
ATOM      1  C   UNL     1      -1.409  18.438  20.528  0.00  0.00    +0.000 C 
ATOM      2  C   UNL     1      -1.180  17.053  20.968  0.00  0.00    +0.000 A 
ATOM      3  C   UNL     1      -1.168  15.829  20.346  0.00  0.00    +0.000 A 
ATOM      4  C   UNL     1      -0.910  14.903  21.390  0.00  0.00    +0.000 A 
ATOM      5  N   UNL     1      -0.839  13.525  21.223  0.00  0.00    +0.000 N 
ATOM      6  C   UNL     1      -0.933  12.659  22.281  0.00  0.00    +0.000 C 
ATOM      7  O   UNL     1      -1.111  13.006  23.448  0.00  0.00    +0.000 OA
ATOM      8  N   UNL     1      -0.864  11.308  21.966  0.00  0.00    +0.000 N 
ATOM      9  C   UNL     1      -1.154  10.351  23.038  0.00  0.00    +0.000 C 
ATOM     10  C   UNL     1       0.119   9.631  23.455  0.00  0.00    +0.000 C 
ATOM     11  C   UNL     1       0.739   8.922  22.255  0.00  0.00    +0.000 C 
ATOM     12  C   UNL     1       0.973   9.885  21.075  0.00  0.00    +0.000 C 
ATOM     13  C   UNL     1      -0.286  10.719  20.756  0.00  0.00    +0.000 C 
ATOM     14  N   UNL     1      -0.737  15.549  22.546  0.00  0.00    +0.000 NA
ATOM     15  O   UNL     1      -0.919  16.886  22.287  0.00  0.00    +0.000 OA
ATOM     16  H   UNL     1      -1.005  13.179  20.295  0.00  0.00    +0.000 HD
ENDROOT
BRANCH  12  17
ATOM     17  C   UNL     1       1.378   9.100  19.881  0.00  0.00    +0.000 A 
ATOM     18  N   UNL     1       1.961   7.927  19.828  0.00  0.00    +0.000 NA
ATOM     19  C   UNL     1       2.218   7.780  18.483  0.00  0.00    +0.000 A 
ATOM     20  N   UNL     1       1.785   8.806  17.733  0.00  0.00    +0.000 NA
ATOM     21  O   UNL     1       1.229   9.686  18.662  0.00  0.00    +0.000 OA
BRANCH  19  22
ATOM     22  C   UNL     1       2.924   6.613  17.967  0.00  0.00    +0.000 A 
ATOM     23  C   UNL     1       2.360   5.335  18.115  0.00  0.00    +0.000 A 
ATOM     24  C   UNL     1       3.027   4.203  17.641  0.00  0.00    +0.000 A 
ATOM     25  C   UNL     1       4.264   4.348  17.026  0.00  0.00    +0.000 A 
ATOM     26  F   UNL     1       4.906   3.265  16.577  0.00  0.00    +0.000 F 
ATOM     27  C   UNL     1       4.841   5.603  16.867  0.00  0.00    +0.000 A 
ATOM     28  C   UNL     1       4.172   6.737  17.337  0.00  0.00    +0.000 A 
ENDBRANCH  19  22
ENDBRANCH  12  17
TORSDOF 2
ENDMDL
MODEL 6
REMARK VINA RESULT:      -7.6      3.382      5.362
REMARK  Name = 
REMARK  3 active torsions:
REMARK  status: ('A' for Active; 'I' for Inactive)
REMARK    1  A    between atoms: C_1  and  C_2
REMARK    2  A    between atoms: C_12  and  C_13
REMARK    3  A    between atoms: C_15  and  C_16
REMARK                            x       y       z     vdW  Elec       q    Type
REMARK                         _______ _______ _______ _____ _____    ______ ____
ROOT
ATOM      1  C   UNL     1      -5.300  12.863  24.620  0.00  0.00    +0.000 C 
ATOM      2  C   UNL     1      -4.157  12.931  23.697  0.00  0.00    +0.000 A 
ATOM      3  C   UNL     1      -3.108  12.100  23.390  0.00  0.00    +0.000 A 
ATOM      4  C   UNL     1      -2.355  12.818  22.425  0.00  0.00    +0.000 A 
ATOM      5  N   UNL     1      -1.176  12.365  21.848  0.00  0.00    +0.000 N 
ATOM      6  C   UNL     1      -0.313  13.209  21.199  0.00  0.00    +0.000 C 
ATOM      7  O   UNL     1      -0.480  14.423  21.090  0.00  0.00    +0.000 OA
ATOM      8  N   UNL     1       0.837  12.623  20.684  0.00  0.00    +0.000 N 
ATOM      9  C   UNL     1       1.871  13.518  20.158  0.00  0.00    +0.000 C 
ATOM     10  C   UNL     1       1.942  13.400  18.643  0.00  0.00    +0.000 C 
ATOM     11  C   UNL     1       2.225  11.957  18.241  0.00  0.00    +0.000 C 
ATOM     12  C   UNL     1       1.206  10.978  18.855  0.00  0.00    +0.000 C 
ATOM     13  C   UNL     1       1.032  11.205  20.372  0.00  0.00    +0.000 C 
ATOM     14  N   UNL     1      -2.950  13.981  22.151  0.00  0.00    +0.000 NA
ATOM     15  O   UNL     1      -4.064  14.059  22.952  0.00  0.00    +0.000 OA
ATOM     16  H   UNL     1      -0.838  11.473  22.163  0.00  0.00    +0.000 HD
ENDROOT
BRANCH  12  17
ATOM     17  C   UNL     1       1.657   9.586  18.599  0.00  0.00    +0.000 A 
ATOM     18  N   UNL     1       1.629   8.551  19.404  0.00  0.00    +0.000 NA
ATOM     19  C   UNL     1       2.302   7.591  18.683  0.00  0.00    +0.000 A 
ATOM     20  N   UNL     1       2.704   8.005  17.470  0.00  0.00    +0.000 NA
ATOM     21  O   UNL     1       2.279   9.333  17.415  0.00  0.00    +0.000 OA
BRANCH  19  22
ATOM     22  C   UNL     1       2.558   6.266  19.235  0.00  0.00    +0.000 A 
ATOM     23  C   UNL     1       1.881   5.852  20.395  0.00  0.00    +0.000 A 
ATOM     24  C   UNL     1       2.122   4.592  20.948  0.00  0.00    +0.000 A 
ATOM     25  C   UNL     1       3.048   3.749  20.347  0.00  0.00    +0.000 A 
ATOM     26  F   UNL     1       3.284   2.545  20.879  0.00  0.00    +0.000 F 
ATOM     27  C   UNL     1       3.729   4.137  19.198  0.00  0.00    +0.000 A 
ATOM     28  C   UNL     1       3.484   5.396  18.641  0.00  0.00    +0.000 A 
ENDBRANCH  19  22
ENDBRANCH  12  17
TORSDOF 2
ENDMDL
MODEL 7
REMARK VINA RESULT:      -7.5      4.985     10.211
REMARK  Name = 
REMARK  3 active torsions:
REMARK  status: ('A' for Active; 'I' for Inactive)
REMARK    1  A    between atoms: C_1  and  C_2
REMARK    2  A    between atoms: C_12  and  C_13
REMARK    3  A    between atoms: C_15  and  C_16
REMARK                            x       y       z     vdW  Elec       q    Type
REMARK                         _______ _______ _______ _____ _____    ______ ____
ROOT
ATOM      1  C   UNL     1       2.678   2.506  21.156  0.00  0.00    +0.000 C 
ATOM      2  C   UNL     1       2.583   3.907  20.715  0.00  0.00    +0.000 A 
ATOM      3  C   UNL     1       1.638   4.896  20.831  0.00  0.00    +0.000 A 
ATOM      4  C   UNL     1       2.194   6.001  20.134  0.00  0.00    +0.000 A 
ATOM      5  N   UNL     1       1.562   7.227  19.966  0.00  0.00    +0.000 N 
ATOM      6  C   UNL     1       1.965   8.129  19.016  0.00  0.00    +0.000 C 
ATOM      7  O   UNL     1       2.885   7.936  18.222  0.00  0.00    +0.000 OA
ATOM      8  N   UNL     1       1.232   9.307  18.949  0.00  0.00    +0.000 N 
ATOM      9  C   UNL     1       1.506  10.207  17.825  0.00  0.00    +0.000 C 
ATOM     10  C   UNL     1       2.208  11.462  18.320  0.00  0.00    +0.000 C 
ATOM     11  C   UNL     1       1.354  12.161  19.372  0.00  0.00    +0.000 C 
ATOM     12  C   UNL     1       0.971  11.214  20.525  0.00  0.00    +0.000 C 
ATOM     13  C   UNL     1       0.395   9.879  20.005  0.00  0.00    +0.000 C 
ATOM     14  N   UNL     1       3.409   5.691  19.674  0.00  0.00    +0.000 NA
ATOM     15  O   UNL     1       3.646   4.383  20.023  0.00  0.00    +0.000 OA
ATOM     16  H   UNL     1       0.640   7.311  20.356  0.00  0.00    +0.000 HD
ENDROOT
BRANCH  12  17
ATOM     17  C   UNL     1      -0.022  11.890  21.398  0.00  0.00    +0.000 A 
ATOM     18  N   UNL     1      -1.258  11.540  21.662  0.00  0.00    +0.000 NA
ATOM     19  C   UNL     1      -1.721  12.607  22.397  0.00  0.00    +0.000 A 
ATOM     20  N   UNL     1      -0.802  13.564  22.605  0.00  0.00    +0.000 NA
ATOM     21  O   UNL     1       0.328  13.090  21.938  0.00  0.00    +0.000 OA
BRANCH  19  22
ATOM     22  C   UNL     1      -3.102  12.666  22.864  0.00  0.00    +0.000 A 
ATOM     23  C   UNL     1      -3.401  12.340  24.198  0.00  0.00    +0.000 A 
ATOM     24  C   UNL     1      -4.718  12.376  24.662  0.00  0.00    +0.000 A 
ATOM     25  C   UNL     1      -5.738  12.731  23.789  0.00  0.00    +0.000 A 
ATOM     26  F   UNL     1      -7.000  12.760  24.230  0.00  0.00    +0.000 F 
ATOM     27  C   UNL     1      -5.466  13.059  22.465  0.00  0.00    +0.000 A 
ATOM     28  C   UNL     1      -4.148  13.028  22.002  0.00  0.00    +0.000 A 
ENDBRANCH  19  22
ENDBRANCH  12  17
TORSDOF 2
ENDMDL
MODEL 8
REMARK VINA RESULT:      -7.5      1.183      1.679
REMARK  Name = 
REMARK  3 active torsions:
REMARK  status: ('A' for Active; 'I' for Inactive)
REMARK    1  A    between atoms: C_1  and  C_2
REMARK    2  A    between atoms: C_12  and  C_13
REMARK    3  A    between atoms: C_15  and  C_16
REMARK                            x       y       z     vdW  Elec       q    Type
REMARK                         _______ _______ _______ _____ _____    ______ ____
ROOT
ATOM      1  C   UNL     1       3.475  16.700  17.521  0.00  0.00    +0.000 C 
ATOM      2  C   UNL     1       2.846  15.641  18.325  0.00  0.00    +0.000 A 
ATOM      3  C   UNL     1       2.545  14.317  18.117  0.00  0.00    +0.000 A 
ATOM      4  C   UNL     1       1.905  13.906  19.316  0.00  0.00    +0.000 A 
ATOM      5  N   UNL     1       1.398  12.632  19.543  0.00  0.00    +0.000 N 
ATOM      6  C   UNL     1       0.501  12.375  20.546  0.00  0.00    +0.000 C 
ATOM      7  O   UNL     1       0.049  13.229  21.308  0.00  0.00    +0.000 OA
ATOM      8  N   UNL     1       0.064  11.061  20.647  0.00  0.00    +0.000 N 
ATOM      9  C   UNL     1      -1.035  10.786  21.577  0.00  0.00    +0.000 C 
ATOM     10  C   UNL     1      -0.523  10.001  22.774  0.00  0.00    +0.000 C 
ATOM     11  C   UNL     1       0.126   8.701  22.312  0.00  0.00    +0.000 C 
ATOM     12  C   UNL     1       1.227   8.949  21.263  0.00  0.00    +0.000 C 
ATOM     13  C   UNL     1       0.740   9.871  20.125  0.00  0.00    +0.000 C 
ATOM     14  N   UNL     1       1.872  14.915  20.189  0.00  0.00    +0.000 NA
ATOM     15  O   UNL     1       2.444  16.000  19.568  0.00  0.00    +0.000 OA
ATOM     16  H   UNL     1       1.481  11.977  18.786  0.00  0.00    +0.000 HD
ENDROOT
BRANCH  12  17
ATOM     17  C   UNL     1       1.670   7.645  20.706  0.00  0.00    +0.000 A 
ATOM     18  N   UNL     1       2.540   7.410  19.754  0.00  0.00    +0.000 NA
ATOM     19  C   UNL     1       2.426   6.051  19.573  0.00  0.00    +0.000 A 
ATOM     20  N   UNL     1       1.543   5.464  20.397  0.00  0.00    +0.000 NA
ATOM     21  O   UNL     1       1.036   6.524  21.149  0.00  0.00    +0.000 OA
BRANCH  19  22
ATOM     22  C   UNL     1       3.193   5.354  18.546  0.00  0.00    +0.000 A 
ATOM     23  C   UNL     1       2.718   4.138  18.026  0.00  0.00    +0.000 A 
ATOM     24  C   UNL     1       3.445   3.448  17.053  0.00  0.00    +0.000 A 
ATOM     25  C   UNL     1       4.651   3.971  16.604  0.00  0.00    +0.000 A 
ATOM     26  F   UNL     1       5.350   3.308  15.676  0.00  0.00    +0.000 F 
ATOM     27  C   UNL     1       5.140   5.173  17.103  0.00  0.00    +0.000 A 
ATOM     28  C   UNL     1       4.411   5.867  18.074  0.00  0.00    +0.000 A 
ENDBRANCH  19  22
ENDBRANCH  12  17
TORSDOF 2
ENDMDL
MODEL 9
REMARK VINA RESULT:      -7.5      5.036     10.137
REMARK  Name = 
REMARK  3 active torsions:
REMARK  status: ('A' for Active; 'I' for Inactive)
REMARK    1  A    between atoms: C_1  and  C_2
REMARK    2  A    between atoms: C_12  and  C_13
REMARK    3  A    between atoms: C_15  and  C_16
REMARK                            x       y       z     vdW  Elec       q    Type
REMARK                         _______ _______ _______ _____ _____    ______ ____
ROOT
ATOM      1  C   UNL     1       4.117   2.325  20.060  0.00  0.00    +0.000 C 
ATOM      2  C   UNL     1       3.771   3.731  19.797  0.00  0.00    +0.000 A 
ATOM      3  C   UNL     1       2.676   4.522  20.042  0.00  0.00    +0.000 A 
ATOM      4  C   UNL     1       3.014   5.781  19.482  0.00  0.00    +0.000 A 
ATOM      5  N   UNL     1       2.178   6.891  19.473  0.00  0.00    +0.000 N 
ATOM      6  C   UNL     1       2.393   7.957  18.639  0.00  0.00    +0.000 C 
ATOM      7  O   UNL     1       3.308   8.022  17.819  0.00  0.00    +0.000 OA
ATOM      8  N   UNL     1       1.469   8.990  18.724  0.00  0.00    +0.000 N 
ATOM      9  C   UNL     1       1.552  10.052  17.717  0.00  0.00    +0.000 C 
ATOM     10  C   UNL     1       2.045  11.340  18.358  0.00  0.00    +0.000 C 
ATOM     11  C   UNL     1       1.116  11.750  19.496  0.00  0.00    +0.000 C 
ATOM     12  C   UNL     1       0.935  10.619  20.526  0.00  0.00    +0.000 C 
ATOM     13  C   UNL     1       0.579   9.278  19.850  0.00  0.00    +0.000 C 
ATOM     14  N   UNL     1       4.250   5.743  18.977  0.00  0.00    +0.000 NA
ATOM     15  O   UNL     1       4.716   4.463  19.159  0.00  0.00    +0.000 OA
ATOM     16  H   UNL     1       1.267   6.767  19.878  0.00  0.00    +0.000 HD
ENDROOT
BRANCH  12  17
ATOM     17  C   UNL     1      -0.132  11.004  21.485  0.00  0.00    +0.000 A 
ATOM     18  N   UNL     1      -1.202  11.732  21.277  0.00  0.00    +0.000 NA
ATOM     19  C   UNL     1      -1.724  11.869  22.543  0.00  0.00    +0.000 A 
ATOM     20  N   UNL     1      -1.023  11.227  23.491  0.00  0.00    +0.000 NA
ATOM     21  O   UNL     1       0.039  10.655  22.790  0.00  0.00    +0.000 OA
BRANCH  19  22
ATOM     22  C   UNL     1      -2.917  12.671  22.791  0.00  0.00    +0.000 A 
ATOM     23  C   UNL     1      -2.989  13.476  23.941  0.00  0.00    +0.000 A 
ATOM     24  C   UNL     1      -4.128  14.240  24.204  0.00  0.00    +0.000 A 
ATOM     25  C   UNL     1      -5.199  14.193  23.321  0.00  0.00    +0.000 A 
ATOM     26  F   UNL     1      -6.293  14.920  23.576  0.00  0.00    +0.000 F 
ATOM     27  C   UNL     1      -5.150  13.405  22.177  0.00  0.00    +0.000 A 
ATOM     28  C   UNL     1      -4.009  12.643  21.910  0.00  0.00    +0.000 A 
ENDBRANCH  19  22
ENDBRANCH  12  17
TORSDOF 2
ENDMDL
