MODEL 1
REMARK VINA RESULT:      -8.4      0.000      0.000
REMARK  Name = 
REMARK  7 active torsions:
REMARK  status: ('A' for Active; 'I' for Inactive)
REMARK    1  A    between atoms: C_2  and  C_3
REMARK    2  A    between atoms: C_3  and  N_4
REMARK    3  A    between atoms: N_9  and  C_10
REMARK    4  A    between atoms: C_10  and  C_11
REMARK    5  A    between atoms: N_24  and  C_25
REMARK    6  A    between atoms: C_25  and  C_26
REMARK    7  A    between atoms: C_26  and  C_27
REMARK                            x       y       z     vdW  Elec       q    Type
REMARK                         _______ _______ _______ _____ _____    ______ ____
ROOT
ATOM      1  N   UNL     1      -1.388  11.372  19.227  0.00  0.00    +0.000 N 
ATOM      2  C   UNL     1      -2.001  10.832  18.099  0.00  0.00    +0.000 A 
ATOM      3  O   UNL     1      -1.417  10.104  17.301  0.00  0.00    +0.000 OA
ATOM      4  C   UNL     1      -3.477  11.158  17.848  0.00  0.00    +0.000 A 
ATOM      5  O   UNL     1      -3.993  10.762  16.808  0.00  0.00    +0.000 OA
ATOM      6  N   UNL     1      -4.160  11.878  18.824  0.00  0.00    +0.000 N 
ATOM      7  C   UNL     1      -3.465  12.507  19.900  0.00  0.00    +0.000 A 
ATOM      8  C   UNL     1      -4.128  13.390  20.775  0.00  0.00    +0.000 A 
ATOM      9  C   UNL     1      -3.442  14.074  21.779  0.00  0.00    +0.000 A 
ATOM     10  C   UNL     1      -2.084  13.865  21.936  0.00  0.00    +0.000 A 
ATOM     11 CL   UNL     1      -1.223  14.730  23.148  0.00  0.00    +0.000 Cl
ATOM     12  C   UNL     1      -1.410  12.969  21.107  0.00  0.00    +0.000 A 
ATOM     13  C   UNL     1      -2.083  12.278  20.082  0.00  0.00    +0.000 A 
ENDROOT
BRANCH   1  14
ATOM     14  C   UNL     1       0.005  10.991  19.470  0.00  0.00    +0.000 C 
BRANCH  14  16
ATOM     15  O   UNL     1      -0.527   9.389  21.208  0.00  0.00    +0.000 OA
ATOM     16  C   UNL     1       0.184   9.680  20.255  0.00  0.00    +0.000 C 
ATOM     17  N   UNL     1       1.193   8.844  19.803  0.00  0.00    +0.000 N 
ATOM     18  H   UNL     1       1.671   9.067  18.937  0.00  0.00    +0.000 HD
BRANCH  17  19
ATOM     19  C   UNL     1       1.525   7.626  20.530  0.00  0.00    +0.000 C 
BRANCH  19  20
ATOM     20  C   UNL     1       2.519   6.731  19.785  0.00  0.00    +0.000 C 
BRANCH  20  21
ATOM     21  C   UNL     1       1.972   5.343  19.541  0.00  0.00    +0.000 A 
ATOM     22  C   UNL     1       1.490   4.567  20.603  0.00  0.00    +0.000 A 
ATOM     23  C   UNL     1       0.996   3.281  20.376  0.00  0.00    +0.000 A 
ATOM     24  C   UNL     1       0.983   2.752  19.082  0.00  0.00    +0.000 A 
ATOM     25  C   UNL     1       1.462   3.511  18.021  0.00  0.00    +0.000 A 
ATOM     26  C   UNL     1       1.956   4.802  18.246  0.00  0.00    +0.000 A 
ENDBRANCH  20  21
ENDBRANCH  19  20
ENDBRANCH  17  19
ENDBRANCH  14  16
ENDBRANCH   1  14
BRANCH   6  27
ATOM     27  C   UNL     1      -5.601  12.075  18.617  0.00  0.00    +0.000 C 
BRANCH  27  28
ATOM     28  C   UNL     1      -6.470  11.091  19.372  0.00  0.00    +0.000 A 
ATOM     29  C   UNL     1      -7.232  11.494  20.479  0.00  0.00    +0.000 A 
ATOM     30  C   UNL     1      -7.914  10.554  21.250  0.00  0.00    +0.000 A 
ATOM     31  C   UNL     1      -7.877   9.207  20.900  0.00  0.00    +0.000 A 
ATOM     32  C   UNL     1      -7.195   8.803  19.755  0.00  0.00    +0.000 A 
ATOM     33  C   UNL     1      -6.503   9.742  18.986  0.00  0.00    +0.000 A 
ENDBRANCH  27  28
ENDBRANCH   6  27
TORSDOF 7
ENDMDL
MODEL 2
REMARK VINA RESULT:      -8.3      7.660     10.801
REMARK  Name = 
REMARK  7 active torsions:
REMARK  status: ('A' for Active; 'I' for Inactive)
REMARK    1  A    between atoms: C_2  and  C_3
REMARK    2  A    between atoms: C_3  and  N_4
REMARK    3  A    between atoms: N_9  and  C_10
REMARK    4  A    between atoms: C_10  and  C_11
REMARK    5  A    between atoms: N_24  and  C_25
REMARK    6  A    between atoms: C_25  and  C_26
REMARK    7  A    between atoms: C_26  and  C_27
REMARK                            x       y       z     vdW  Elec       q    Type
REMARK                         _______ _______ _______ _____ _____    ______ ____
ROOT
ATOM      1  N   UNL     1       5.892   6.274  16.746  0.00  0.00    +0.000 N 
ATOM      2  C   UNL     1       6.291   4.988  16.389  0.00  0.00    +0.000 A 
ATOM      3  O   UNL     1       7.397   4.734  15.920  0.00  0.00    +0.000 OA
ATOM      4  C   UNL     1       5.303   3.836  16.601  0.00  0.00    +0.000 A 
ATOM      5  O   UNL     1       5.616   2.719  16.201  0.00  0.00    +0.000 OA
ATOM      6  N   UNL     1       4.104   4.116  17.249  0.00  0.00    +0.000 N 
ATOM      7  C   UNL     1       3.691   5.461  17.490  0.00  0.00    +0.000 A 
ATOM      8  C   UNL     1       2.399   5.749  17.970  0.00  0.00    +0.000 A 
ATOM      9  C   UNL     1       1.956   7.061  18.131  0.00  0.00    +0.000 A 
ATOM     10  C   UNL     1       2.811   8.107  17.833  0.00  0.00    +0.000 A 
ATOM     11 CL   UNL     1       2.261   9.729  17.994  0.00  0.00    +0.000 Cl
ATOM     12  C   UNL     1       4.108   7.851  17.391  0.00  0.00    +0.000 A 
ATOM     13  C   UNL     1       4.569   6.533  17.213  0.00  0.00    +0.000 A 
ENDROOT
BRANCH   1  14
ATOM     14  C   UNL     1       6.881   7.342  16.590  0.00  0.00    +0.000 C 
BRANCH  14  16
ATOM     15  O   UNL     1       7.986   6.733  18.659  0.00  0.00    +0.000 OA
ATOM     16  C   UNL     1       7.743   7.608  17.837  0.00  0.00    +0.000 C 
ATOM     17  N   UNL     1       8.236   8.897  17.961  0.00  0.00    +0.000 N 
ATOM     18  H   UNL     1       8.114   9.550  17.196  0.00  0.00    +0.000 HD
BRANCH  17  19
ATOM     19  C   UNL     1       8.975   9.293  19.153  0.00  0.00    +0.000 C 
BRANCH  19  20
ATOM     20  C   UNL     1       8.872  10.791  19.455  0.00  0.00    +0.000 C 
BRANCH  20  21
ATOM     21  C   UNL     1      10.002  11.581  18.834  0.00  0.00    +0.000 A 
ATOM     22  C   UNL     1      11.293  11.529  19.376  0.00  0.00    +0.000 A 
ATOM     23  C   UNL     1      12.332  12.269  18.808  0.00  0.00    +0.000 A 
ATOM     24  C   UNL     1      12.090  13.077  17.694  0.00  0.00    +0.000 A 
ATOM     25  C   UNL     1      10.812  13.140  17.150  0.00  0.00    +0.000 A 
ATOM     26  C   UNL     1       9.769  12.397  17.716  0.00  0.00    +0.000 A 
ENDBRANCH  20  21
ENDBRANCH  19  20
ENDBRANCH  17  19
ENDBRANCH  14  16
ENDBRANCH   1  14
BRANCH   6  27
ATOM     27  C   UNL     1       3.227   2.976  17.546  0.00  0.00    +0.000 C 
BRANCH  27  28
ATOM     28  C   UNL     1       2.701   2.960  18.966  0.00  0.00    +0.000 A 
ATOM     29  C   UNL     1       3.565   2.811  20.061  0.00  0.00    +0.000 A 
ATOM     30  C   UNL     1       3.057   2.656  21.350  0.00  0.00    +0.000 A 
ATOM     31  C   UNL     1       1.682   2.689  21.565  0.00  0.00    +0.000 A 
ATOM     32  C   UNL     1       0.816   2.922  20.500  0.00  0.00    +0.000 A 
ATOM     33  C   UNL     1       1.322   3.069  19.206  0.00  0.00    +0.000 A 
ENDBRANCH  27  28
ENDBRANCH   6  27
TORSDOF 7
ENDMDL
MODEL 3
REMARK VINA RESULT:      -8.3      0.735      1.130
REMARK  Name = 
REMARK  7 active torsions:
REMARK  status: ('A' for Active; 'I' for Inactive)
REMARK    1  A    between atoms: C_2  and  C_3
REMARK    2  A    between atoms: C_3  and  N_4
REMARK    3  A    between atoms: N_9  and  C_10
REMARK    4  A    between atoms: C_10  and  C_11
REMARK    5  A    between atoms: N_24  and  C_25
REMARK    6  A    between atoms: C_25  and  C_26
REMARK    7  A    between atoms: C_26  and  C_27
REMARK                            x       y       z     vdW  Elec       q    Type
REMARK                         _______ _______ _______ _____ _____    ______ ____
ROOT
ATOM      1  N   UNL     1      -1.123  11.637  20.176  0.00  0.00    +0.000 N 
ATOM      2  C   UNL     1      -1.580  11.215  18.930  0.00  0.00    +0.000 A 
ATOM      3  O   UNL     1      -0.903  10.542  18.158  0.00  0.00    +0.000 OA
ATOM      4  C   UNL     1      -3.001  11.603  18.508  0.00  0.00    +0.000 A 
ATOM      5  O   UNL     1      -3.373  11.314  17.375  0.00  0.00    +0.000 OA
ATOM      6  N   UNL     1      -3.803  12.256  19.440  0.00  0.00    +0.000 N 
ATOM      7  C   UNL     1      -3.255  12.769  20.655  0.00  0.00    +0.000 A 
ATOM      8  C   UNL     1      -4.019  13.591  21.505  0.00  0.00    +0.000 A 
ATOM      9  C   UNL     1      -3.471  14.165  22.651  0.00  0.00    +0.000 A 
ATOM     10  C   UNL     1      -2.151  13.905  22.975  0.00  0.00    +0.000 A 
ATOM     11 CL   UNL     1      -1.455  14.637  24.367  0.00  0.00    +0.000 Cl
ATOM     12  C   UNL     1      -1.382  13.064  22.170  0.00  0.00    +0.000 A 
ATOM     13  C   UNL     1      -1.917  12.485  21.004  0.00  0.00    +0.000 A 
ENDROOT
BRANCH   1  14
ATOM     14  C   UNL     1       0.216  11.196  20.574  0.00  0.00    +0.000 C 
BRANCH  14  16
ATOM     15  O   UNL     1      -0.322   9.378  22.083  0.00  0.00    +0.000 OA
ATOM     16  C   UNL     1       0.288   9.748  21.088  0.00  0.00    +0.000 C 
ATOM     17  N   UNL     1       1.078   8.886  20.343  0.00  0.00    +0.000 N 
ATOM     18  H   UNL     1       1.461   9.204  19.460  0.00  0.00    +0.000 HD
BRANCH  17  19
ATOM     19  C   UNL     1       1.307   7.520  20.792  0.00  0.00    +0.000 C 
BRANCH  19  20
ATOM     20  C   UNL     1       2.366   6.784  19.967  0.00  0.00    +0.000 C 
BRANCH  20  21
ATOM     21  C   UNL     1       1.930   5.386  19.587  0.00  0.00    +0.000 A 
ATOM     22  C   UNL     1       2.025   4.943  18.262  0.00  0.00    +0.000 A 
ATOM     23  C   UNL     1       1.612   3.656  17.912  0.00  0.00    +0.000 A 
ATOM     24  C   UNL     1       1.091   2.797  18.885  0.00  0.00    +0.000 A 
ATOM     25  C   UNL     1       0.988   3.228  20.203  0.00  0.00    +0.000 A 
ATOM     26  C   UNL     1       1.405   4.518  20.556  0.00  0.00    +0.000 A 
ENDBRANCH  20  21
ENDBRANCH  19  20
ENDBRANCH  17  19
ENDBRANCH  14  16
ENDBRANCH   1  14
BRANCH   6  27
ATOM     27  C   UNL     1      -5.197  12.511  19.054  0.00  0.00    +0.000 C 
BRANCH  27  28
ATOM     28  C   UNL     1      -6.177  11.480  19.575  0.00  0.00    +0.000 A 
ATOM     29  C   UNL     1      -6.975  11.738  20.699  0.00  0.00    +0.000 A 
ATOM     30  C   UNL     1      -7.767  10.733  21.253  0.00  0.00    +0.000 A 
ATOM     31  C   UNL     1      -7.803   9.471  20.665  0.00  0.00    +0.000 A 
ATOM     32  C   UNL     1      -7.081   9.226  19.498  0.00  0.00    +0.000 A 
ATOM     33  C   UNL     1      -6.280  10.229  18.948  0.00  0.00    +0.000 A 
ENDBRANCH  27  28
ENDBRANCH   6  27
TORSDOF 7
ENDMDL
MODEL 4
REMARK VINA RESULT:      -8.0      7.685     10.692
REMARK  Name = 
REMARK  7 active torsions:
REMARK  status: ('A' for Active; 'I' for Inactive)
REMARK    1  A    between atoms: C_2  and  C_3
REMARK    2  A    between atoms: C_3  and  N_4
REMARK    3  A    between atoms: N_9  and  C_10
REMARK    4  A    between atoms: C_10  and  C_11
REMARK    5  A    between atoms: N_24  and  C_25
REMARK    6  A    between atoms: C_25  and  C_26
REMARK    7  A    between atoms: C_26  and  C_27
REMARK                            x       y       z     vdW  Elec       q    Type
REMARK                         _______ _______ _______ _____ _____    ______ ____
ROOT
ATOM      1  N   UNL     1       5.839   6.238  16.644  0.00  0.00    +0.000 N 
ATOM      2  C   UNL     1       6.257   4.968  16.252  0.00  0.00    +0.000 A 
ATOM      3  O   UNL     1       7.354   4.748  15.747  0.00  0.00    +0.000 OA
ATOM      4  C   UNL     1       5.301   3.791  16.470  0.00  0.00    +0.000 A 
ATOM      5  O   UNL     1       5.627   2.688  16.040  0.00  0.00    +0.000 OA
ATOM      6  N   UNL     1       4.115   4.032  17.157  0.00  0.00    +0.000 N 
ATOM      7  C   UNL     1       3.679   5.363  17.433  0.00  0.00    +0.000 A 
ATOM      8  C   UNL     1       2.395   5.612  17.955  0.00  0.00    +0.000 A 
ATOM      9  C   UNL     1       1.928   6.911  18.152  0.00  0.00    +0.000 A 
ATOM     10  C   UNL     1       2.751   7.982  17.850  0.00  0.00    +0.000 A 
ATOM     11 CL   UNL     1       2.170   9.587  18.056  0.00  0.00    +0.000 Cl
ATOM     12  C   UNL     1       4.040   7.762  17.367  0.00  0.00    +0.000 A 
ATOM     13  C   UNL     1       4.525   6.458  17.152  0.00  0.00    +0.000 A 
ENDROOT
BRANCH   1  14
ATOM     14  C   UNL     1       6.800   7.332  16.479  0.00  0.00    +0.000 C 
BRANCH  14  16
ATOM     15  O   UNL     1       7.949   6.763  18.536  0.00  0.00    +0.000 OA
ATOM     16  C   UNL     1       7.650   7.632  17.726  0.00  0.00    +0.000 C 
ATOM     17  N   UNL     1       8.067   8.947  17.864  0.00  0.00    +0.000 N 
ATOM     18  H   UNL     1       7.903   9.601  17.107  0.00  0.00    +0.000 HD
BRANCH  17  19
ATOM     19  C   UNL     1       8.787   9.371  19.057  0.00  0.00    +0.000 C 
BRANCH  19  20
ATOM     20  C   UNL     1       9.833  10.454  18.776  0.00  0.00    +0.000 C 
BRANCH  20  21
ATOM     21  C   UNL     1       9.835  11.538  19.830  0.00  0.00    +0.000 A 
ATOM     22  C   UNL     1       9.128  11.373  21.028  0.00  0.00    +0.000 A 
ATOM     23  C   UNL     1       9.123  12.381  21.994  0.00  0.00    +0.000 A 
ATOM     24  C   UNL     1       9.820  13.572  21.770  0.00  0.00    +0.000 A 
ATOM     25  C   UNL     1      10.522  13.749  20.583  0.00  0.00    +0.000 A 
ATOM     26  C   UNL     1      10.531  12.738  19.614  0.00  0.00    +0.000 A 
ENDBRANCH  20  21
ENDBRANCH  19  20
ENDBRANCH  17  19
ENDBRANCH  14  16
ENDBRANCH   1  14
BRANCH   6  27
ATOM     27  C   UNL     1       3.273   2.867  17.456  0.00  0.00    +0.000 C 
BRANCH  27  28
ATOM     28  C   UNL     1       2.762   2.830  18.882  0.00  0.00    +0.000 A 
ATOM     29  C   UNL     1       1.396   2.967  19.169  0.00  0.00    +0.000 A 
ATOM     30  C   UNL     1       0.955   3.074  20.488  0.00  0.00    +0.000 A 
ATOM     31  C   UNL     1       1.869   3.001  21.535  0.00  0.00    +0.000 A 
ATOM     32  C   UNL     1       3.218   2.779  21.269  0.00  0.00    +0.000 A 
ATOM     33  C   UNL     1       3.663   2.681  19.948  0.00  0.00    +0.000 A 
ENDBRANCH  27  28
ENDBRANCH   6  27
TORSDOF 7
ENDMDL
MODEL 5
REMARK VINA RESULT:      -7.9      8.371     11.790
REMARK  Name = 
REMARK  7 active torsions:
REMARK  status: ('A' for Active; 'I' for Inactive)
REMARK    1  A    between atoms: C_2  and  C_3
REMARK    2  A    between atoms: C_3  and  N_4
REMARK    3  A    between atoms: N_9  and  C_10
REMARK    4  A    between atoms: C_10  and  C_11
REMARK    5  A    between atoms: N_24  and  C_25
REMARK    6  A    between atoms: C_25  and  C_26
REMARK    7  A    between atoms: C_26  and  C_27
REMARK                            x       y       z     vdW  Elec       q    Type
REMARK                         _______ _______ _______ _____ _____    ______ ____
ROOT
ATOM      1  N   UNL     1       7.135   5.447  17.765  0.00  0.00    +0.000 N 
ATOM      2  C   UNL     1       6.567   4.972  18.945  0.00  0.00    +0.000 A 
ATOM      3  O   UNL     1       6.964   5.296  20.060  0.00  0.00    +0.000 OA
ATOM      4  C   UNL     1       5.382   4.005  18.842  0.00  0.00    +0.000 A 
ATOM      5  O   UNL     1       4.941   3.512  19.875  0.00  0.00    +0.000 OA
ATOM      6  N   UNL     1       4.860   3.746  17.578  0.00  0.00    +0.000 N 
ATOM      7  C   UNL     1       5.546   4.161  16.396  0.00  0.00    +0.000 A 
ATOM      8  C   UNL     1       5.120   3.736  15.123  0.00  0.00    +0.000 A 
ATOM      9  C   UNL     1       5.829   4.067  13.969  0.00  0.00    +0.000 A 
ATOM     10  C   UNL     1       6.966   4.849  14.071  0.00  0.00    +0.000 A 
ATOM     11 CL   UNL     1       7.866   5.232  12.657  0.00  0.00    +0.000 Cl
ATOM     12  C   UNL     1       7.389   5.314  15.316  0.00  0.00    +0.000 A 
ATOM     13  C   UNL     1       6.691   4.982  16.492  0.00  0.00    +0.000 A 
ENDROOT
BRANCH   1  14
ATOM     14  C   UNL     1       8.224   6.418  17.899  0.00  0.00    +0.000 C 
BRANCH  14  16
ATOM     15  O   UNL     1       6.834   8.227  17.086  0.00  0.00    +0.000 OA
ATOM     16  C   UNL     1       7.794   7.889  17.766  0.00  0.00    +0.000 C 
ATOM     17  N   UNL     1       8.555   8.803  18.477  0.00  0.00    +0.000 N 
ATOM     18  H   UNL     1       9.259   8.465  19.124  0.00  0.00    +0.000 HD
BRANCH  17  19
ATOM     19  C   UNL     1       8.307  10.232  18.344  0.00  0.00    +0.000 C 
BRANCH  19  20
ATOM     20  C   UNL     1       9.586  11.049  18.143  0.00  0.00    +0.000 C 
BRANCH  20  21
ATOM     21  C   UNL     1       9.823  12.034  19.267  0.00  0.00    +0.000 A 
ATOM     22  C   UNL     1       9.419  11.736  20.575  0.00  0.00    +0.000 A 
ATOM     23  C   UNL     1       9.628  12.651  21.608  0.00  0.00    +0.000 A 
ATOM     24  C   UNL     1      10.238  13.881  21.344  0.00  0.00    +0.000 A 
ATOM     25  C   UNL     1      10.640  14.189  20.049  0.00  0.00    +0.000 A 
ATOM     26  C   UNL     1      10.433  13.271  19.011  0.00  0.00    +0.000 A 
ENDBRANCH  20  21
ENDBRANCH  19  20
ENDBRANCH  17  19
ENDBRANCH  14  16
ENDBRANCH   1  14
BRANCH   6  27
ATOM     27  C   UNL     1       3.654   2.912  17.516  0.00  0.00    +0.000 C 
BRANCH  27  28
ATOM     28  C   UNL     1       2.579   3.312  18.506  0.00  0.00    +0.000 A 
ATOM     29  C   UNL     1       2.157   4.644  18.623  0.00  0.00    +0.000 A 
ATOM     30  C   UNL     1       1.273   5.023  19.632  0.00  0.00    +0.000 A 
ATOM     31  C   UNL     1       0.768   4.068  20.510  0.00  0.00    +0.000 A 
ATOM     32  C   UNL     1       1.111   2.727  20.352  0.00  0.00    +0.000 A 
ATOM     33  C   UNL     1       2.004   2.347  19.347  0.00  0.00    +0.000 A 
ENDBRANCH  27  28
ENDBRANCH   6  27
TORSDOF 7
ENDMDL
MODEL 6
REMARK VINA RESULT:      -7.8      7.664     10.611
REMARK  Name = 
REMARK  7 active torsions:
REMARK  status: ('A' for Active; 'I' for Inactive)
REMARK    1  A    between atoms: C_2  and  C_3
REMARK    2  A    between atoms: C_3  and  N_4
REMARK    3  A    between atoms: N_9  and  C_10
REMARK    4  A    between atoms: C_10  and  C_11
REMARK    5  A    between atoms: N_24  and  C_25
REMARK    6  A    between atoms: C_25  and  C_26
REMARK    7  A    between atoms: C_26  and  C_27
REMARK                            x       y       z     vdW  Elec       q    Type
REMARK                         _______ _______ _______ _____ _____    ______ ____
ROOT
ATOM      1  N   UNL     1       5.847   6.273  16.667  0.00  0.00    +0.000 N 
ATOM      2  C   UNL     1       6.263   5.005  16.267  0.00  0.00    +0.000 A 
ATOM      3  O   UNL     1       7.364   4.784  15.772  0.00  0.00    +0.000 OA
ATOM      4  C   UNL     1       5.299   3.830  16.464  0.00  0.00    +0.000 A 
ATOM      5  O   UNL     1       5.625   2.730  16.027  0.00  0.00    +0.000 OA
ATOM      6  N   UNL     1       4.107   4.070  17.141  0.00  0.00    +0.000 N 
ATOM      7  C   UNL     1       3.675   5.400  17.426  0.00  0.00    +0.000 A 
ATOM      8  C   UNL     1       2.387   5.651  17.936  0.00  0.00    +0.000 A 
ATOM      9  C   UNL     1       1.923   6.950  18.141  0.00  0.00    +0.000 A 
ATOM     10  C   UNL     1       2.754   8.020  17.858  0.00  0.00    +0.000 A 
ATOM     11 CL   UNL     1       2.179   9.626  18.074  0.00  0.00    +0.000 Cl
ATOM     12  C   UNL     1       4.048   7.799  17.386  0.00  0.00    +0.000 A 
ATOM     13  C   UNL     1       4.528   6.495  17.164  0.00  0.00    +0.000 A 
ENDROOT
BRANCH   1  14
ATOM     14  C   UNL     1       6.815   7.363  16.523  0.00  0.00    +0.000 C 
BRANCH  14  16
ATOM     15  O   UNL     1       7.889   6.784  18.617  0.00  0.00    +0.000 OA
ATOM     16  C   UNL     1       7.653   7.648  17.782  0.00  0.00    +0.000 C 
ATOM     17  N   UNL     1       8.134   8.943  17.901  0.00  0.00    +0.000 N 
ATOM     18  H   UNL     1       8.020   9.587  17.127  0.00  0.00    +0.000 HD
BRANCH  17  19
ATOM     19  C   UNL     1       8.850   9.357  19.100  0.00  0.00    +0.000 C 
BRANCH  19  20
ATOM     20  C   UNL     1       9.876  10.462  18.838  0.00  0.00    +0.000 C 
BRANCH  20  21
ATOM     21  C   UNL     1       9.281  11.845  18.977  0.00  0.00    +0.000 A 
ATOM     22  C   UNL     1       9.180  12.456  20.234  0.00  0.00    +0.000 A 
ATOM     23  C   UNL     1       8.620  13.728  20.362  0.00  0.00    +0.000 A 
ATOM     24  C   UNL     1       8.146  14.403  19.233  0.00  0.00    +0.000 A 
ATOM     25  C   UNL     1       8.238  13.806  17.981  0.00  0.00    +0.000 A 
ATOM     26  C   UNL     1       8.802  12.530  17.851  0.00  0.00    +0.000 A 
ENDBRANCH  20  21
ENDBRANCH  19  20
ENDBRANCH  17  19
ENDBRANCH  14  16
ENDBRANCH   1  14
BRANCH   6  27
ATOM     27  C   UNL     1       3.256   2.906  17.420  0.00  0.00    +0.000 C 
BRANCH  27  28
ATOM     28  C   UNL     1       2.791   2.818  18.860  0.00  0.00    +0.000 A 
ATOM     29  C   UNL     1       1.432   2.909  19.192  0.00  0.00    +0.000 A 
ATOM     30  C   UNL     1       1.030   2.969  20.526  0.00  0.00    +0.000 A 
ATOM     31  C   UNL     1       1.978   2.895  21.543  0.00  0.00    +0.000 A 
ATOM     32  C   UNL     1       3.324   2.717  21.229  0.00  0.00    +0.000 A 
ATOM     33  C   UNL     1       3.729   2.667  19.893  0.00  0.00    +0.000 A 
ENDBRANCH  27  28
ENDBRANCH   6  27
TORSDOF 7
ENDMDL
MODEL 7
REMARK VINA RESULT:      -7.8      3.989      5.941
REMARK  Name = 
REMARK  7 active torsions:
REMARK  status: ('A' for Active; 'I' for Inactive)
REMARK    1  A    between atoms: C_2  and  C_3
REMARK    2  A    between atoms: C_3  and  N_4
REMARK    3  A    between atoms: N_9  and  C_10
REMARK    4  A    between atoms: C_10  and  C_11
REMARK    5  A    between atoms: N_24  and  C_25
REMARK    6  A    between atoms: C_25  and  C_26
REMARK    7  A    between atoms: C_26  and  C_27
REMARK                            x       y       z     vdW  Elec       q    Type
REMARK                         _______ _______ _______ _____ _____    ______ ____
ROOT
ATOM      1  N   UNL     1       0.878  11.291  19.230  0.00  0.00    +0.000 N 
ATOM      2  C   UNL     1       1.911  11.787  18.438  0.00  0.00    +0.000 A 
ATOM      3  O   UNL     1       2.452  11.131  17.552  0.00  0.00    +0.000 OA
ATOM      4  C   UNL     1       2.387  13.223  18.680  0.00  0.00    +0.000 A 
ATOM      5  O   UNL     1       3.358  13.629  18.049  0.00  0.00    +0.000 OA
ATOM      6  N   UNL     1       1.683  13.997  19.597  0.00  0.00    +0.000 N 
ATOM      7  C   UNL     1       0.711  13.413  20.465  0.00  0.00    +0.000 A 
ATOM      8  C   UNL     1       0.140  14.154  21.518  0.00  0.00    +0.000 A 
ATOM      9  C   UNL     1      -0.748  13.571  22.422  0.00  0.00    +0.000 A 
ATOM     10  C   UNL     1      -1.094  12.240  22.271  0.00  0.00    +0.000 A 
ATOM     11 CL   UNL     1      -2.160  11.503  23.402  0.00  0.00    +0.000 Cl
ATOM     12  C   UNL     1      -0.571  11.493  21.215  0.00  0.00    +0.000 A 
ATOM     13  C   UNL     1       0.334  12.062  20.300  0.00  0.00    +0.000 A 
ENDROOT
BRANCH   1  14
ATOM     14  C   UNL     1       0.405   9.937  18.931  0.00  0.00    +0.000 C 
BRANCH  14  16
ATOM     15  O   UNL     1       1.543   8.562  20.569  0.00  0.00    +0.000 OA
ATOM     16  C   UNL     1       1.350   8.812  19.386  0.00  0.00    +0.000 C 
ATOM     17  N   UNL     1       1.956   8.090  18.370  0.00  0.00    +0.000 N 
ATOM     18  H   UNL     1       1.669   8.249  17.410  0.00  0.00    +0.000 HD
BRANCH  17  19
ATOM     19  C   UNL     1       2.950   7.071  18.679  0.00  0.00    +0.000 C 
BRANCH  19  20
ATOM     20  C   UNL     1       2.589   5.690  18.123  0.00  0.00    +0.000 C 
BRANCH  20  21
ATOM     21  C   UNL     1       2.518   4.636  19.205  0.00  0.00    +0.000 A 
ATOM     22  C   UNL     1       3.584   3.751  19.413  0.00  0.00    +0.000 A 
ATOM     23  C   UNL     1       3.511   2.772  20.405  0.00  0.00    +0.000 A 
ATOM     24  C   UNL     1       2.366   2.660  21.198  0.00  0.00    +0.000 A 
ATOM     25  C   UNL     1       1.300   3.530  20.999  0.00  0.00    +0.000 A 
ATOM     26  C   UNL     1       1.372   4.515  20.006  0.00  0.00    +0.000 A 
ENDBRANCH  20  21
ENDBRANCH  19  20
ENDBRANCH  17  19
ENDBRANCH  14  16
ENDBRANCH   1  14
BRANCH   6  27
ATOM     27  C   UNL     1       2.084  15.404  19.725  0.00  0.00    +0.000 C 
BRANCH  27  28
ATOM     28  C   UNL     1       1.433  16.322  18.710  0.00  0.00    +0.000 A 
ATOM     29  C   UNL     1       2.202  17.065  17.803  0.00  0.00    +0.000 A 
ATOM     30  C   UNL     1       1.603  18.010  16.972  0.00  0.00    +0.000 A 
ATOM     31  C   UNL     1       0.223  18.193  17.007  0.00  0.00    +0.000 A 
ATOM     32  C   UNL     1      -0.563  17.402  17.841  0.00  0.00    +0.000 A 
ATOM     33  C   UNL     1       0.037  16.461  18.681  0.00  0.00    +0.000 A 
ENDBRANCH  27  28
ENDBRANCH   6  27
TORSDOF 7
ENDMDL
MODEL 8
REMARK VINA RESULT:      -7.8      7.664     10.682
REMARK  Name = 
REMARK  7 active torsions:
REMARK  status: ('A' for Active; 'I' for Inactive)
REMARK    1  A    between atoms: C_2  and  C_3
REMARK    2  A    between atoms: C_3  and  N_4
REMARK    3  A    between atoms: N_9  and  C_10
REMARK    4  A    between atoms: C_10  and  C_11
REMARK    5  A    between atoms: N_24  and  C_25
REMARK    6  A    between atoms: C_25  and  C_26
REMARK    7  A    between atoms: C_26  and  C_27
REMARK                            x       y       z     vdW  Elec       q    Type
REMARK                         _______ _______ _______ _____ _____    ______ ____
ROOT
ATOM      1  N   UNL     1       5.894   6.289  16.686  0.00  0.00    +0.000 N 
ATOM      2  C   UNL     1       6.290   5.005  16.322  0.00  0.00    +0.000 A 
ATOM      3  O   UNL     1       7.389   4.754  15.835  0.00  0.00    +0.000 OA
ATOM      4  C   UNL     1       5.309   3.850  16.549  0.00  0.00    +0.000 A 
ATOM      5  O   UNL     1       5.618   2.734  16.143  0.00  0.00    +0.000 OA
ATOM      6  N   UNL     1       4.119   4.127  17.216  0.00  0.00    +0.000 N 
ATOM      7  C   UNL     1       3.707   5.471  17.465  0.00  0.00    +0.000 A 
ATOM      8  C   UNL     1       2.422   5.756  17.966  0.00  0.00    +0.000 A 
ATOM      9  C   UNL     1       1.979   7.067  18.134  0.00  0.00    +0.000 A 
ATOM     10  C   UNL     1       2.827   8.115  17.824  0.00  0.00    +0.000 A 
ATOM     11 CL   UNL     1       2.276   9.736  17.995  0.00  0.00    +0.000 Cl
ATOM     12  C   UNL     1       4.117   7.862  17.360  0.00  0.00    +0.000 A 
ATOM     13  C   UNL     1       4.578   6.545  17.174  0.00  0.00    +0.000 A 
ENDROOT
BRANCH   1  14
ATOM     14  C   UNL     1       6.878   7.360  16.515  0.00  0.00    +0.000 C 
BRANCH  14  16
ATOM     15  O   UNL     1       7.954   6.844  18.623  0.00  0.00    +0.000 OA
ATOM     16  C   UNL     1       7.696   7.689  17.776  0.00  0.00    +0.000 C 
ATOM     17  N   UNL     1       8.134   9.000  17.882  0.00  0.00    +0.000 N 
ATOM     18  H   UNL     1       8.005   9.630  17.098  0.00  0.00    +0.000 HD
BRANCH  17  19
ATOM     19  C   UNL     1       8.826   9.453  19.081  0.00  0.00    +0.000 C 
BRANCH  19  20
ATOM     20  C   UNL     1       9.912  10.493  18.793  0.00  0.00    +0.000 C 
BRANCH  20  21
ATOM     21  C   UNL     1       9.669  11.794  19.523  0.00  0.00    +0.000 A 
ATOM     22  C   UNL     1      10.113  11.969  20.841  0.00  0.00    +0.000 A 
ATOM     23  C   UNL     1       9.878  13.168  21.516  0.00  0.00    +0.000 A 
ATOM     24  C   UNL     1       9.189  14.206  20.884  0.00  0.00    +0.000 A 
ATOM     25  C   UNL     1       8.740  14.044  19.578  0.00  0.00    +0.000 A 
ATOM     26  C   UNL     1       8.977  12.843  18.898  0.00  0.00    +0.000 A 
ENDBRANCH  20  21
ENDBRANCH  19  20
ENDBRANCH  17  19
ENDBRANCH  14  16
ENDBRANCH   1  14
BRANCH   6  27
ATOM     27  C   UNL     1       3.250   2.985  17.526  0.00  0.00    +0.000 C 
BRANCH  27  28
ATOM     28  C   UNL     1       2.756   2.960  18.958  0.00  0.00    +0.000 A 
ATOM     29  C   UNL     1       3.641   2.771  20.030  0.00  0.00    +0.000 A 
ATOM     30  C   UNL     1       3.159   2.608  21.328  0.00  0.00    +0.000 A 
ATOM     31  C   UNL     1       1.791   2.675  21.576  0.00  0.00    +0.000 A 
ATOM     32  C   UNL     1       0.907   2.948  20.535  0.00  0.00    +0.000 A 
ATOM     33  C   UNL     1       1.387   3.102  19.232  0.00  0.00    +0.000 A 
ENDBRANCH  27  28
ENDBRANCH   6  27
TORSDOF 7
ENDMDL
MODEL 9
REMARK VINA RESULT:      -7.8      8.317     11.859
REMARK  Name = 
REMARK  7 active torsions:
REMARK  status: ('A' for Active; 'I' for Inactive)
REMARK    1  A    between atoms: C_2  and  C_3
REMARK    2  A    between atoms: C_3  and  N_4
REMARK    3  A    between atoms: N_9  and  C_10
REMARK    4  A    between atoms: C_10  and  C_11
REMARK    5  A    between atoms: N_24  and  C_25
REMARK    6  A    between atoms: C_25  and  C_26
REMARK    7  A    between atoms: C_26  and  C_27
REMARK                            x       y       z     vdW  Elec       q    Type
REMARK                         _______ _______ _______ _____ _____    ______ ____
ROOT
ATOM      1  N   UNL     1       7.170   5.296  17.832  0.00  0.00    +0.000 N 
ATOM      2  C   UNL     1       6.564   4.805  18.985  0.00  0.00    +0.000 A 
ATOM      3  O   UNL     1       6.981   5.041  20.116  0.00  0.00    +0.000 OA
ATOM      4  C   UNL     1       5.310   3.937  18.834  0.00  0.00    +0.000 A 
ATOM      5  O   UNL     1       4.830   3.426  19.840  0.00  0.00    +0.000 OA
ATOM      6  N   UNL     1       4.775   3.783  17.558  0.00  0.00    +0.000 N 
ATOM      7  C   UNL     1       5.493   4.204  16.399  0.00  0.00    +0.000 A 
ATOM      8  C   UNL     1       5.041   3.878  15.106  0.00  0.00    +0.000 A 
ATOM      9  C   UNL     1       5.777   4.212  13.970  0.00  0.00    +0.000 A 
ATOM     10  C   UNL     1       6.968   4.901  14.111  0.00  0.00    +0.000 A 
ATOM     11 CL   UNL     1       7.900   5.287  12.718  0.00  0.00    +0.000 Cl
ATOM     12  C   UNL     1       7.421   5.269  15.378  0.00  0.00    +0.000 A 
ATOM     13  C   UNL     1       6.697   4.931  16.537  0.00  0.00    +0.000 A 
ENDROOT
BRANCH   1  14
ATOM     14  C   UNL     1       8.329   6.174  18.014  0.00  0.00    +0.000 C 
BRANCH  14  16
ATOM     15  O   UNL     1       7.142   8.123  17.201  0.00  0.00    +0.000 OA
ATOM     16  C   UNL     1       8.014   7.678  17.936  0.00  0.00    +0.000 C 
ATOM     17  N   UNL     1       8.771   8.493  18.762  0.00  0.00    +0.000 N 
ATOM     18  H   UNL     1       9.391   8.068  19.443  0.00  0.00    +0.000 HD
BRANCH  17  19
ATOM     19  C   UNL     1       8.635   9.941  18.697  0.00  0.00    +0.000 C 
BRANCH  19  20
ATOM     20  C   UNL     1       9.341  10.665  19.846  0.00  0.00    +0.000 C 
BRANCH  20  21
ATOM     21  C   UNL     1       9.993  11.954  19.400  0.00  0.00    +0.000 A 
ATOM     22  C   UNL     1      11.054  12.509  20.129  0.00  0.00    +0.000 A 
ATOM     23  C   UNL     1      11.647  13.705  19.721  0.00  0.00    +0.000 A 
ATOM     24  C   UNL     1      11.181  14.367  18.582  0.00  0.00    +0.000 A 
ATOM     25  C   UNL     1      10.126  13.828  17.853  0.00  0.00    +0.000 A 
ATOM     26  C   UNL     1       9.531  12.627  18.259  0.00  0.00    +0.000 A 
ENDBRANCH  20  21
ENDBRANCH  19  20
ENDBRANCH  17  19
ENDBRANCH  14  16
ENDBRANCH   1  14
BRANCH   6  27
ATOM     27  C   UNL     1       3.509   3.045  17.455  0.00  0.00    +0.000 C 
BRANCH  27  28
ATOM     28  C   UNL     1       2.470   3.463  18.475  0.00  0.00    +0.000 A 
ATOM     29  C   UNL     1       2.170   4.815  18.697  0.00  0.00    +0.000 A 
ATOM     30  C   UNL     1       1.319   5.192  19.735  0.00  0.00    +0.000 A 
ATOM     31  C   UNL     1       0.725   4.220  20.536  0.00  0.00    +0.000 A 
ATOM     32  C   UNL     1       0.946   2.870  20.273  0.00  0.00    +0.000 A 
ATOM     33  C   UNL     1       1.805   2.491  19.240  0.00  0.00    +0.000 A 
ENDBRANCH  27  28
ENDBRANCH   6  27
TORSDOF 7
ENDMDL
