MODEL 1
REMARK VINA RESULT:      -7.9      0.000      0.000
REMARK  Name = 
REMARK  4 active torsions:
REMARK  status: ('A' for Active; 'I' for Inactive)
REMARK    1  A    between atoms: C_2  and  C_3
REMARK    2  A    between atoms: C_3  and  C_4
REMARK    3  A    between atoms: N_18  and  C_19
REMARK    4  A    between atoms: C_19  and  C_20
REMARK                            x       y       z     vdW  Elec       q    Type
REMARK                         _______ _______ _______ _____ _____    ______ ____
ROOT
ATOM      1  O   UNL     1       0.817  13.522  21.919  0.00  0.00    +0.000 OA
ATOM      2  C   UNL     1       0.111  13.229  20.949  0.00  0.00    +0.000 C 
ATOM      3  N   UNL     1      -0.866  12.224  21.025  0.00  0.00    +0.000 N 
ATOM      4  C   UNL     1      -1.049  11.543  22.306  0.00  0.00    +0.000 C 
ATOM      5  C   UNL     1      -0.587  10.104  22.335  0.00  0.00    +0.000 C 
ATOM      6  C   UNL     1       0.720   9.934  21.604  0.00  0.00    +0.000 C 
ATOM      7  O   UNL     1       1.764   9.770  22.239  0.00  0.00    +0.000 OA
ATOM      8  N   UNL     1       0.639   9.861  20.210  0.00  0.00    +0.000 N 
ATOM      9  C   UNL     1      -0.494  10.340  19.467  0.00  0.00    +0.000 A 
ATOM     10  C   UNL     1      -0.888   9.692  18.287  0.00  0.00    +0.000 A 
ATOM     11  C   UNL     1      -1.984  10.141  17.543  0.00  0.00    +0.000 A 
ATOM     12  C   UNL     1      -2.708  11.252  17.966  0.00  0.00    +0.000 A 
ATOM     13  C   UNL     1      -2.342  11.913  19.133  0.00  0.00    +0.000 A 
ATOM     14  C   UNL     1      -1.236  11.473  19.876  0.00  0.00    +0.000 A 
ENDROOT
BRANCH   2  15
ATOM     15  C   UNL     1       0.190  14.058  19.670  0.00  0.00    +0.000 C 
BRANCH  15  16
ATOM     16  C   UNL     1       1.489  13.944  18.940  0.00  0.00    +0.000 A 
ATOM     17  C   UNL     1       1.931  12.851  18.217  0.00  0.00    +0.000 A 
ATOM     18  N   UNL     1       3.200  13.106  17.776  0.00  0.00    +0.000 N 
ATOM     19  C   UNL     1       3.613  14.343  18.211  0.00  0.00    +0.000 A 
ATOM     20  C   UNL     1       4.839  14.996  18.032  0.00  0.00    +0.000 A 
ATOM     21  C   UNL     1       4.989  16.261  18.606  0.00  0.00    +0.000 A 
ATOM     22  C   UNL     1       3.952  16.849  19.325  0.00  0.00    +0.000 A 
ATOM     23  C   UNL     1       2.734  16.180  19.497  0.00  0.00    +0.000 A 
ATOM     24  C   UNL     1       2.556  14.900  18.932  0.00  0.00    +0.000 A 
ATOM     25  H   UNL     1       3.764  12.469  17.231  0.00  0.00    +0.000 HD
ENDBRANCH  15  16
ENDBRANCH   2  15
BRANCH   8  26
ATOM     26  C   UNL     1       1.824   9.396  19.480  0.00  0.00    +0.000 C 
BRANCH  26  27
ATOM     27  C   UNL     1       1.945   7.884  19.395  0.00  0.00    +0.000 A 
ATOM     28  C   UNL     1       1.678   7.084  20.519  0.00  0.00    +0.000 A 
ATOM     29  C   UNL     1       1.809   5.694  20.454  0.00  0.00    +0.000 A 
ATOM     30  C   UNL     1       2.189   5.083  19.262  0.00  0.00    +0.000 A 
ATOM     31  C   UNL     1       2.421   5.858  18.129  0.00  0.00    +0.000 A 
ATOM     32  C   UNL     1       2.295   7.247  18.195  0.00  0.00    +0.000 A 
ENDBRANCH  26  27
ENDBRANCH   8  26
TORSDOF 4
ENDMDL
MODEL 2
REMARK VINA RESULT:      -7.9      3.283      6.971
REMARK  Name = 
REMARK  4 active torsions:
REMARK  status: ('A' for Active; 'I' for Inactive)
REMARK    1  A    between atoms: C_2  and  C_3
REMARK    2  A    between atoms: C_3  and  C_4
REMARK    3  A    between atoms: N_18  and  C_19
REMARK    4  A    between atoms: C_19  and  C_20
REMARK                            x       y       z     vdW  Elec       q    Type
REMARK                         _______ _______ _______ _____ _____    ______ ____
ROOT
ATOM      1  O   UNL     1      -2.106  14.532  20.790  0.00  0.00    +0.000 OA
ATOM      2  C   UNL     1      -2.002  13.415  21.308  0.00  0.00    +0.000 C 
ATOM      3  N   UNL     1      -0.798  12.978  21.881  0.00  0.00    +0.000 N 
ATOM      4  C   UNL     1       0.338  13.899  21.874  0.00  0.00    +0.000 C 
ATOM      5  C   UNL     1       1.467  13.514  20.946  0.00  0.00    +0.000 C 
ATOM      6  C   UNL     1       0.942  13.000  19.629  0.00  0.00    +0.000 C 
ATOM      7  O   UNL     1       1.008  13.708  18.622  0.00  0.00    +0.000 OA
ATOM      8  N   UNL     1       0.503  11.673  19.619  0.00  0.00    +0.000 N 
ATOM      9  C   UNL     1       0.147  10.958  20.813  0.00  0.00    +0.000 A 
ATOM     10  C   UNL     1       0.387   9.579  20.907  0.00  0.00    +0.000 A 
ATOM     11  C   UNL     1       0.046   8.859  22.057  0.00  0.00    +0.000 A 
ATOM     12  C   UNL     1      -0.546   9.506  23.138  0.00  0.00    +0.000 A 
ATOM     13  C   UNL     1      -0.794  10.873  23.074  0.00  0.00    +0.000 A 
ATOM     14  C   UNL     1      -0.464  11.597  21.918  0.00  0.00    +0.000 A 
ENDROOT
BRANCH   2  15
ATOM     15  C   UNL     1      -3.235  12.529  21.463  0.00  0.00    +0.000 C 
BRANCH  15  16
ATOM     16  C   UNL     1      -4.132  12.912  22.596  0.00  0.00    +0.000 A 
ATOM     17  C   UNL     1      -3.942  12.607  23.931  0.00  0.00    +0.000 A 
ATOM     18  N   UNL     1      -5.022  13.059  24.638  0.00  0.00    +0.000 N 
ATOM     19  C   UNL     1      -5.933  13.641  23.790  0.00  0.00    +0.000 A 
ATOM     20  C   UNL     1      -7.187  14.202  24.064  0.00  0.00    +0.000 A 
ATOM     21  C   UNL     1      -7.915  14.718  22.989  0.00  0.00    +0.000 A 
ATOM     22  C   UNL     1      -7.406  14.678  21.693  0.00  0.00    +0.000 A 
ATOM     23  C   UNL     1      -6.152  14.111  21.437  0.00  0.00    +0.000 A 
ATOM     24  C   UNL     1      -5.397  13.579  22.503  0.00  0.00    +0.000 A 
ATOM     25  H   UNL     1      -5.147  12.957  25.635  0.00  0.00    +0.000 HD
ENDBRANCH  15  16
ENDBRANCH   2  15
BRANCH   8  26
ATOM     26  C   UNL     1       0.273  11.039  18.315  0.00  0.00    +0.000 C 
BRANCH  26  27
ATOM     27  C   UNL     1      -1.193  10.885  17.951  0.00  0.00    +0.000 A 
ATOM     28  C   UNL     1      -2.103  11.923  18.208  0.00  0.00    +0.000 A 
ATOM     29  C   UNL     1      -3.458  11.780  17.896  0.00  0.00    +0.000 A 
ATOM     30  C   UNL     1      -3.918  10.606  17.305  0.00  0.00    +0.000 A 
ATOM     31  C   UNL     1      -3.024   9.582  17.010  0.00  0.00    +0.000 A 
ATOM     32  C   UNL     1      -1.670   9.723  17.326  0.00  0.00    +0.000 A 
ENDBRANCH  26  27
ENDBRANCH   8  26
TORSDOF 4
ENDMDL
MODEL 3
REMARK VINA RESULT:      -7.7      3.168      6.995
REMARK  Name = 
REMARK  4 active torsions:
REMARK  status: ('A' for Active; 'I' for Inactive)
REMARK    1  A    between atoms: C_2  and  C_3
REMARK    2  A    between atoms: C_3  and  C_4
REMARK    3  A    between atoms: N_18  and  C_19
REMARK    4  A    between atoms: C_19  and  C_20
REMARK                            x       y       z     vdW  Elec       q    Type
REMARK                         _______ _______ _______ _____ _____    ______ ____
ROOT
ATOM      1  O   UNL     1      -1.718  14.398  20.341  0.00  0.00    +0.000 OA
ATOM      2  C   UNL     1      -1.702  13.330  20.962  0.00  0.00    +0.000 C 
ATOM      3  N   UNL     1      -0.522  12.829  21.534  0.00  0.00    +0.000 N 
ATOM      4  C   UNL     1       0.697  13.625  21.399  0.00  0.00    +0.000 C 
ATOM      5  C   UNL     1       1.742  13.041  20.476  0.00  0.00    +0.000 C 
ATOM      6  C   UNL     1       1.113  12.463  19.234  0.00  0.00    +0.000 C 
ATOM      7  O   UNL     1       1.205  13.063  18.161  0.00  0.00    +0.000 OA
ATOM      8  N   UNL     1       0.546  11.192  19.367  0.00  0.00    +0.000 N 
ATOM      9  C   UNL     1       0.173  10.631  20.637  0.00  0.00    +0.000 A 
ATOM     10  C   UNL     1       0.282   9.250  20.856  0.00  0.00    +0.000 A 
ATOM     11  C   UNL     1      -0.078   8.679  22.082  0.00  0.00    +0.000 A 
ATOM     12  C   UNL     1      -0.557   9.482  23.114  0.00  0.00    +0.000 A 
ATOM     13  C   UNL     1      -0.672  10.855  22.925  0.00  0.00    +0.000 A 
ATOM     14  C   UNL     1      -0.323  11.430  21.694  0.00  0.00    +0.000 A 
ENDROOT
BRANCH   2  15
ATOM     15  C   UNL     1      -3.007  12.592  21.244  0.00  0.00    +0.000 C 
BRANCH  15  16
ATOM     16  C   UNL     1      -3.843  13.206  22.319  0.00  0.00    +0.000 A 
ATOM     17  C   UNL     1      -3.382  13.918  23.411  0.00  0.00    +0.000 A 
ATOM     18  N   UNL     1      -4.449  14.237  24.204  0.00  0.00    +0.000 N 
ATOM     19  C   UNL     1      -5.608  13.732  23.665  0.00  0.00    +0.000 A 
ATOM     20  C   UNL     1      -6.922  13.784  24.148  0.00  0.00    +0.000 A 
ATOM     21  C   UNL     1      -7.917  13.163  23.386  0.00  0.00    +0.000 A 
ATOM     22  C   UNL     1      -7.608  12.523  22.189  0.00  0.00    +0.000 A 
ATOM     23  C   UNL     1      -6.288  12.479  21.723  0.00  0.00    +0.000 A 
ATOM     24  C   UNL     1      -5.264  13.093  22.473  0.00  0.00    +0.000 A 
ATOM     25  H   UNL     1      -4.394  14.747  25.075  0.00  0.00    +0.000 HD
ENDBRANCH  15  16
ENDBRANCH   2  15
BRANCH   8  26
ATOM     26  C   UNL     1       0.200  10.466  18.140  0.00  0.00    +0.000 C 
BRANCH  26  27
ATOM     27  C   UNL     1      -1.255  10.608  17.725  0.00  0.00    +0.000 A 
ATOM     28  C   UNL     1      -1.836   9.685  16.840  0.00  0.00    +0.000 A 
ATOM     29  C   UNL     1      -3.167   9.823  16.436  0.00  0.00    +0.000 A 
ATOM     30  C   UNL     1      -3.941  10.871  16.927  0.00  0.00    +0.000 A 
ATOM     31  C   UNL     1      -3.391  11.773  17.834  0.00  0.00    +0.000 A 
ATOM     32  C   UNL     1      -2.060  11.639  18.233  0.00  0.00    +0.000 A 
ENDBRANCH  26  27
ENDBRANCH   8  26
TORSDOF 4
ENDMDL
MODEL 4
REMARK VINA RESULT:      -7.7      1.024      1.108
REMARK  Name = 
REMARK  4 active torsions:
REMARK  status: ('A' for Active; 'I' for Inactive)
REMARK    1  A    between atoms: C_2  and  C_3
REMARK    2  A    between atoms: C_3  and  C_4
REMARK    3  A    between atoms: N_18  and  C_19
REMARK    4  A    between atoms: C_19  and  C_20
REMARK                            x       y       z     vdW  Elec       q    Type
REMARK                         _______ _______ _______ _____ _____    ______ ____
ROOT
ATOM      1  O   UNL     1       0.351  13.612  22.571  0.00  0.00    +0.000 OA
ATOM      2  C   UNL     1      -0.338  13.376  21.573  0.00  0.00    +0.000 C 
ATOM      3  N   UNL     1      -1.235  12.298  21.535  0.00  0.00    +0.000 N 
ATOM      4  C   UNL     1      -1.357  11.465  22.731  0.00  0.00    +0.000 C 
ATOM      5  C   UNL     1      -0.787  10.071  22.599  0.00  0.00    +0.000 C 
ATOM      6  C   UNL     1       0.524  10.085  21.855  0.00  0.00    +0.000 C 
ATOM      7  O   UNL     1       1.582   9.931  22.469  0.00  0.00    +0.000 OA
ATOM      8  N   UNL     1       0.439  10.163  20.462  0.00  0.00    +0.000 N 
ATOM      9  C   UNL     1      -0.732  10.635  19.775  0.00  0.00    +0.000 A 
ATOM     10  C   UNL     1      -1.084  10.095  18.530  0.00  0.00    +0.000 A 
ATOM     11  C   UNL     1      -2.217  10.539  17.839  0.00  0.00    +0.000 A 
ATOM     12  C   UNL     1      -3.021  11.537  18.383  0.00  0.00    +0.000 A 
ATOM     13  C   UNL     1      -2.697  12.089  19.618  0.00  0.00    +0.000 A 
ATOM     14  C   UNL     1      -1.555  11.654  20.308  0.00  0.00    +0.000 A 
ENDROOT
BRANCH   2  15
ATOM     15  C   UNL     1      -0.332  14.347  20.396  0.00  0.00    +0.000 C 
BRANCH  15  16
ATOM     16  C   UNL     1       0.929  14.336  19.594  0.00  0.00    +0.000 A 
ATOM     17  C   UNL     1       1.889  13.341  19.589  0.00  0.00    +0.000 A 
ATOM     18  N   UNL     1       2.927  13.741  18.794  0.00  0.00    +0.000 N 
ATOM     19  C   UNL     1       2.679  14.995  18.287  0.00  0.00    +0.000 A 
ATOM     20  C   UNL     1       3.471  15.806  17.465  0.00  0.00    +0.000 A 
ATOM     21  C   UNL     1       2.965  17.060  17.110  0.00  0.00    +0.000 A 
ATOM     22  C   UNL     1       1.716  17.481  17.557  0.00  0.00    +0.000 A 
ATOM     23  C   UNL     1       0.939  16.658  18.381  0.00  0.00    +0.000 A 
ATOM     24  C   UNL     1       1.426  15.389  18.758  0.00  0.00    +0.000 A 
ATOM     25  H   UNL     1       3.767  13.208  18.623  0.00  0.00    +0.000 HD
ENDBRANCH  15  16
ENDBRANCH   2  15
BRANCH   8  26
ATOM     26  C   UNL     1       1.651   9.874  19.685  0.00  0.00    +0.000 C 
BRANCH  26  27
ATOM     27  C   UNL     1       1.885   8.395  19.431  0.00  0.00    +0.000 A 
ATOM     28  C   UNL     1       1.730   7.461  20.468  0.00  0.00    +0.000 A 
ATOM     29  C   UNL     1       1.966   6.101  20.247  0.00  0.00    +0.000 A 
ATOM     30  C   UNL     1       2.340   5.654  18.982  0.00  0.00    +0.000 A 
ATOM     31  C   UNL     1       2.463   6.561  17.934  0.00  0.00    +0.000 A 
ATOM     32  C   UNL     1       2.232   7.921  18.156  0.00  0.00    +0.000 A 
ENDBRANCH  26  27
ENDBRANCH   8  26
TORSDOF 4
ENDMDL
MODEL 5
REMARK VINA RESULT:      -7.6      3.596      6.893
REMARK  Name = 
REMARK  4 active torsions:
REMARK  status: ('A' for Active; 'I' for Inactive)
REMARK    1  A    between atoms: C_2  and  C_3
REMARK    2  A    between atoms: C_3  and  C_4
REMARK    3  A    between atoms: N_18  and  C_19
REMARK    4  A    between atoms: C_19  and  C_20
REMARK                            x       y       z     vdW  Elec       q    Type
REMARK                         _______ _______ _______ _____ _____    ______ ____
ROOT
ATOM      1  O   UNL     1      -5.112  14.874  20.406  0.00  0.00    +0.000 OA
ATOM      2  C   UNL     1      -4.495  13.921  20.894  0.00  0.00    +0.000 C 
ATOM      3  N   UNL     1      -3.512  14.106  21.879  0.00  0.00    +0.000 N 
ATOM      4  C   UNL     1      -3.252  15.469  22.340  0.00  0.00    +0.000 C 
ATOM      5  C   UNL     1      -1.920  16.044  21.915  0.00  0.00    +0.000 C 
ATOM      6  C   UNL     1      -1.603  15.690  20.484  0.00  0.00    +0.000 C 
ATOM      7  O   UNL     1      -1.700  16.545  19.602  0.00  0.00    +0.000 OA
ATOM      8  N   UNL     1      -1.098  14.404  20.268  0.00  0.00    +0.000 N 
ATOM      9  C   UNL     1      -1.261  13.331  21.209  0.00  0.00    +0.000 A 
ATOM     10  C   UNL     1      -0.259  12.360  21.352  0.00  0.00    +0.000 A 
ATOM     11  C   UNL     1      -0.396  11.303  22.258  0.00  0.00    +0.000 A 
ATOM     12  C   UNL     1      -1.542  11.196  23.040  0.00  0.00    +0.000 A 
ATOM     13  C   UNL     1      -2.551  12.146  22.922  0.00  0.00    +0.000 A 
ATOM     14  C   UNL     1      -2.423  13.201  22.006  0.00  0.00    +0.000 A 
ENDROOT
BRANCH   2  15
ATOM     15  C   UNL     1      -4.890  12.492  20.533  0.00  0.00    +0.000 C 
BRANCH  15  16
ATOM     16  C   UNL     1      -4.957  12.223  19.064  0.00  0.00    +0.000 A 
ATOM     17  C   UNL     1      -6.050  12.424  18.242  0.00  0.00    +0.000 A 
ATOM     18  N   UNL     1      -5.739  11.978  16.987  0.00  0.00    +0.000 N 
ATOM     19  C   UNL     1      -4.462  11.467  16.970  0.00  0.00    +0.000 A 
ATOM     20  C   UNL     1      -3.745  10.874  15.923  0.00  0.00    +0.000 A 
ATOM     21  C   UNL     1      -2.450  10.426  16.197  0.00  0.00    +0.000 A 
ATOM     22  C   UNL     1      -1.896  10.570  17.466  0.00  0.00    +0.000 A 
ATOM     23  C   UNL     1      -2.628  11.163  18.501  0.00  0.00    +0.000 A 
ATOM     24  C   UNL     1      -3.939  11.621  18.254  0.00  0.00    +0.000 A 
ATOM     25  H   UNL     1      -6.363  11.995  16.193  0.00  0.00    +0.000 HD
ENDBRANCH  15  16
ENDBRANCH   2  15
BRANCH   8  26
ATOM     26  C   UNL     1      -0.494  14.118  18.961  0.00  0.00    +0.000 C 
BRANCH  26  27
ATOM     27  C   UNL     1       1.016  14.285  18.927  0.00  0.00    +0.000 A 
ATOM     28  C   UNL     1       1.818  13.360  18.238  0.00  0.00    +0.000 A 
ATOM     29  C   UNL     1       3.209  13.494  18.221  0.00  0.00    +0.000 A 
ATOM     30  C   UNL     1       3.816  14.565  18.873  0.00  0.00    +0.000 A 
ATOM     31  C   UNL     1       3.033  15.511  19.528  0.00  0.00    +0.000 A 
ATOM     32  C   UNL     1       1.643  15.374  19.550  0.00  0.00    +0.000 A 
ENDBRANCH  26  27
ENDBRANCH   8  26
TORSDOF 4
ENDMDL
MODEL 6
REMARK VINA RESULT:      -7.5      2.201      7.753
REMARK  Name = 
REMARK  4 active torsions:
REMARK  status: ('A' for Active; 'I' for Inactive)
REMARK    1  A    between atoms: C_2  and  C_3
REMARK    2  A    between atoms: C_3  and  C_4
REMARK    3  A    between atoms: N_18  and  C_19
REMARK    4  A    between atoms: C_19  and  C_20
REMARK                            x       y       z     vdW  Elec       q    Type
REMARK                         _______ _______ _______ _____ _____    ______ ____
ROOT
ATOM      1  O   UNL     1       1.946   9.381  17.393  0.00  0.00    +0.000 OA
ATOM      2  C   UNL     1       1.567   9.079  18.530  0.00  0.00    +0.000 C 
ATOM      3  N   UNL     1       0.285   9.415  18.992  0.00  0.00    +0.000 N 
ATOM      4  C   UNL     1      -0.612  10.115  18.074  0.00  0.00    +0.000 C 
ATOM      5  C   UNL     1      -0.885  11.559  18.425  0.00  0.00    +0.000 C 
ATOM      6  C   UNL     1       0.370  12.257  18.885  0.00  0.00    +0.000 C 
ATOM      7  O   UNL     1       0.938  13.056  18.138  0.00  0.00    +0.000 OA
ATOM      8  N   UNL     1       0.751  12.025  20.210  0.00  0.00    +0.000 N 
ATOM      9  C   UNL     1       0.287  10.898  20.971  0.00  0.00    +0.000 A 
ATOM     10  C   UNL     1       0.079  11.018  22.353  0.00  0.00    +0.000 A 
ATOM     11  C   UNL     1      -0.368   9.935  23.117  0.00  0.00    +0.000 A 
ATOM     12  C   UNL     1      -0.614   8.706  22.511  0.00  0.00    +0.000 A 
ATOM     13  C   UNL     1      -0.419   8.558  21.142  0.00  0.00    +0.000 A 
ATOM     14  C   UNL     1       0.040   9.639  20.375  0.00  0.00    +0.000 A 
ENDROOT
BRANCH   2  15
ATOM     15  C   UNL     1       2.445   8.202  19.418  0.00  0.00    +0.000 C 
BRANCH  15  16
ATOM     16  C   UNL     1       2.735   6.849  18.855  0.00  0.00    +0.000 A 
ATOM     17  C   UNL     1       3.478   6.573  17.722  0.00  0.00    +0.000 A 
ATOM     18  N   UNL     1       3.439   5.226  17.493  0.00  0.00    +0.000 N 
ATOM     19  C   UNL     1       2.666   4.606  18.446  0.00  0.00    +0.000 A 
ATOM     20  C   UNL     1       2.320   3.256  18.585  0.00  0.00    +0.000 A 
ATOM     21  C   UNL     1       1.496   2.905  19.658  0.00  0.00    +0.000 A 
ATOM     22  C   UNL     1       1.042   3.866  20.557  0.00  0.00    +0.000 A 
ATOM     23  C   UNL     1       1.395   5.212  20.401  0.00  0.00    +0.000 A 
ATOM     24  C   UNL     1       2.222   5.595  19.325  0.00  0.00    +0.000 A 
ATOM     25  H   UNL     1       3.889   4.755  16.721  0.00  0.00    +0.000 HD
ENDBRANCH  15  16
ENDBRANCH   2  15
BRANCH   8  26
ATOM     26  C   UNL     1       1.773  12.904  20.791  0.00  0.00    +0.000 C 
BRANCH  26  27
ATOM     27  C   UNL     1       1.267  14.292  21.145  0.00  0.00    +0.000 A 
ATOM     28  C   UNL     1       0.225  14.454  22.072  0.00  0.00    +0.000 A 
ATOM     29  C   UNL     1      -0.261  15.727  22.386  0.00  0.00    +0.000 A 
ATOM     30  C   UNL     1       0.302  16.855  21.795  0.00  0.00    +0.000 A 
ATOM     31  C   UNL     1       1.360  16.714  20.902  0.00  0.00    +0.000 A 
ATOM     32  C   UNL     1       1.842  15.442  20.584  0.00  0.00    +0.000 A 
ENDBRANCH  26  27
ENDBRANCH   8  26
TORSDOF 4
ENDMDL
MODEL 7
REMARK VINA RESULT:      -7.5      3.244      6.977
REMARK  Name = 
REMARK  4 active torsions:
REMARK  status: ('A' for Active; 'I' for Inactive)
REMARK    1  A    between atoms: C_2  and  C_3
REMARK    2  A    between atoms: C_3  and  C_4
REMARK    3  A    between atoms: N_18  and  C_19
REMARK    4  A    between atoms: C_19  and  C_20
REMARK                            x       y       z     vdW  Elec       q    Type
REMARK                         _______ _______ _______ _____ _____    ______ ____
ROOT
ATOM      1  O   UNL     1      -1.985  14.556  21.322  0.00  0.00    +0.000 OA
ATOM      2  C   UNL     1      -1.866  13.386  21.700  0.00  0.00    +0.000 C 
ATOM      3  N   UNL     1      -0.615  12.844  22.034  0.00  0.00    +0.000 N 
ATOM      4  C   UNL     1       0.555  13.717  21.950  0.00  0.00    +0.000 C 
ATOM      5  C   UNL     1       1.512  13.394  20.826  0.00  0.00    +0.000 C 
ATOM      6  C   UNL     1       0.772  13.049  19.558  0.00  0.00    +0.000 C 
ATOM      7  O   UNL     1       0.727  13.861  18.632  0.00  0.00    +0.000 OA
ATOM      8  N   UNL     1       0.266  11.749  19.477  0.00  0.00    +0.000 N 
ATOM      9  C   UNL     1       0.052  10.919  20.632  0.00  0.00    +0.000 A 
ATOM     10  C   UNL     1       0.230   9.531  20.545  0.00  0.00    +0.000 A 
ATOM     11  C   UNL     1       0.024   8.701  21.652  0.00  0.00    +0.000 A 
ATOM     12  C   UNL     1      -0.366   9.247  22.872  0.00  0.00    +0.000 A 
ATOM     13  C   UNL     1      -0.547  10.621  22.988  0.00  0.00    +0.000 A 
ATOM     14  C   UNL     1      -0.353  11.455  21.876  0.00  0.00    +0.000 A 
ENDROOT
BRANCH   2  15
ATOM     15  C   UNL     1      -3.108  12.535  21.949  0.00  0.00    +0.000 C 
BRANCH  15  16
ATOM     16  C   UNL     1      -4.228  13.260  22.622  0.00  0.00    +0.000 A 
ATOM     17  C   UNL     1      -4.371  13.468  23.981  0.00  0.00    +0.000 A 
ATOM     18  N   UNL     1      -5.566  14.095  24.201  0.00  0.00    +0.000 N 
ATOM     19  C   UNL     1      -6.227  14.288  23.011  0.00  0.00    +0.000 A 
ATOM     20  C   UNL     1      -7.484  14.851  22.761  0.00  0.00    +0.000 A 
ATOM     21  C   UNL     1      -7.917  14.907  21.434  0.00  0.00    +0.000 A 
ATOM     22  C   UNL     1      -7.119  14.425  20.399  0.00  0.00    +0.000 A 
ATOM     23  C   UNL     1      -5.866  13.863  20.668  0.00  0.00    +0.000 A 
ATOM     24  C   UNL     1      -5.406  13.789  21.999  0.00  0.00    +0.000 A 
ATOM     25  H   UNL     1      -5.927  14.355  25.108  0.00  0.00    +0.000 HD
ENDBRANCH  15  16
ENDBRANCH   2  15
BRANCH   8  26
ATOM     26  C   UNL     1      -0.187  11.272  18.165  0.00  0.00    +0.000 C 
BRANCH  26  27
ATOM     27  C   UNL     1      -1.686  11.042  18.073  0.00  0.00    +0.000 A 
ATOM     28  C   UNL     1      -2.190   9.815  17.612  0.00  0.00    +0.000 A 
ATOM     29  C   UNL     1      -3.568   9.604  17.504  0.00  0.00    +0.000 A 
ATOM     30  C   UNL     1      -4.459  10.608  17.873  0.00  0.00    +0.000 A 
ATOM     31  C   UNL     1      -3.976  11.816  18.367  0.00  0.00    +0.000 A 
ATOM     32  C   UNL     1      -2.600  12.029  18.471  0.00  0.00    +0.000 A 
ENDBRANCH  26  27
ENDBRANCH   8  26
TORSDOF 4
ENDMDL
MODEL 8
REMARK VINA RESULT:      -7.5      3.336      7.366
REMARK  Name = 
REMARK  4 active torsions:
REMARK  status: ('A' for Active; 'I' for Inactive)
REMARK    1  A    between atoms: C_2  and  C_3
REMARK    2  A    between atoms: C_3  and  C_4
REMARK    3  A    between atoms: N_18  and  C_19
REMARK    4  A    between atoms: C_19  and  C_20
REMARK                            x       y       z     vdW  Elec       q    Type
REMARK                         _______ _______ _______ _____ _____    ______ ____
ROOT
ATOM      1  O   UNL     1       0.715  12.676  21.803  0.00  0.00    +0.000 OA
ATOM      2  C   UNL     1      -0.190  12.249  21.079  0.00  0.00    +0.000 C 
ATOM      3  N   UNL     1      -1.024  13.115  20.354  0.00  0.00    +0.000 N 
ATOM      4  C   UNL     1      -0.774  14.552  20.457  0.00  0.00    +0.000 C 
ATOM      5  C   UNL     1      -1.823  15.330  21.217  0.00  0.00    +0.000 C 
ATOM      6  C   UNL     1      -2.274  14.582  22.447  0.00  0.00    +0.000 C 
ATOM      7  O   UNL     1      -1.897  14.948  23.562  0.00  0.00    +0.000 OA
ATOM      8  N   UNL     1      -3.206  13.562  22.238  0.00  0.00    +0.000 N 
ATOM      9  C   UNL     1      -3.416  12.944  20.957  0.00  0.00    +0.000 A 
ATOM     10  C   UNL     1      -4.694  12.499  20.591  0.00  0.00    +0.000 A 
ATOM     11  C   UNL     1      -4.924  11.891  19.352  0.00  0.00    +0.000 A 
ATOM     12  C   UNL     1      -3.875  11.715  18.454  0.00  0.00    +0.000 A 
ATOM     13  C   UNL     1      -2.597  12.149  18.790  0.00  0.00    +0.000 A 
ATOM     14  C   UNL     1      -2.361  12.749  20.036  0.00  0.00    +0.000 A 
ENDROOT
BRANCH   2  15
ATOM     15  C   UNL     1      -0.335  10.748  20.844  0.00  0.00    +0.000 C 
BRANCH  15  16
ATOM     16  C   UNL     1       0.532  10.208  19.753  0.00  0.00    +0.000 A 
ATOM     17  C   UNL     1       0.751  10.787  18.517  0.00  0.00    +0.000 A 
ATOM     18  N   UNL     1       1.533   9.945  17.775  0.00  0.00    +0.000 N 
ATOM     19  C   UNL     1       1.818   8.808  18.493  0.00  0.00    +0.000 A 
ATOM     20  C   UNL     1       2.547   7.671  18.124  0.00  0.00    +0.000 A 
ATOM     21  C   UNL     1       2.668   6.645  19.065  0.00  0.00    +0.000 A 
ATOM     22  C   UNL     1       2.087   6.757  20.325  0.00  0.00    +0.000 A 
ATOM     23  C   UNL     1       1.359   7.900  20.676  0.00  0.00    +0.000 A 
ATOM     24  C   UNL     1       1.218   8.949  19.744  0.00  0.00    +0.000 A 
ATOM     25  H   UNL     1       1.835  10.119  16.827  0.00  0.00    +0.000 HD
ENDBRANCH  15  16
ENDBRANCH   2  15
BRANCH   8  26
ATOM     26  C   UNL     1      -3.898  13.017  23.412  0.00  0.00    +0.000 C 
BRANCH  26  27
ATOM     27  C   UNL     1      -5.301  13.565  23.615  0.00  0.00    +0.000 A 
ATOM     28  C   UNL     1      -5.562  14.934  23.439  0.00  0.00    +0.000 A 
ATOM     29  C   UNL     1      -6.844  15.449  23.645  0.00  0.00    +0.000 A 
ATOM     30  C   UNL     1      -7.888  14.601  24.009  0.00  0.00    +0.000 A 
ATOM     31  C   UNL     1      -7.654  13.237  24.151  0.00  0.00    +0.000 A 
ATOM     32  C   UNL     1      -6.371  12.722  23.950  0.00  0.00    +0.000 A 
ENDBRANCH  26  27
ENDBRANCH   8  26
TORSDOF 4
ENDMDL
MODEL 9
REMARK VINA RESULT:      -7.5      2.469      7.158
REMARK  Name = 
REMARK  4 active torsions:
REMARK  status: ('A' for Active; 'I' for Inactive)
REMARK    1  A    between atoms: C_2  and  C_3
REMARK    2  A    between atoms: C_3  and  C_4
REMARK    3  A    between atoms: N_18  and  C_19
REMARK    4  A    between atoms: C_19  and  C_20
REMARK                            x       y       z     vdW  Elec       q    Type
REMARK                         _______ _______ _______ _____ _____    ______ ____
ROOT
ATOM      1  O   UNL     1       1.427  11.780  20.888  0.00  0.00    +0.000 OA
ATOM      2  C   UNL     1       0.657  11.209  20.109  0.00  0.00    +0.000 C 
ATOM      3  N   UNL     1       0.059  11.886  19.035  0.00  0.00    +0.000 N 
ATOM      4  C   UNL     1       0.395  13.296  18.842  0.00  0.00    +0.000 C 
ATOM      5  C   UNL     1      -0.722  14.267  19.148  0.00  0.00    +0.000 C 
ATOM      6  C   UNL     1      -1.470  13.865  20.393  0.00  0.00    +0.000 C 
ATOM      7  O   UNL     1      -1.300  14.489  21.443  0.00  0.00    +0.000 OA
ATOM      8  N   UNL     1      -2.419  12.849  20.239  0.00  0.00    +0.000 N 
ATOM      9  C   UNL     1      -2.412  11.935  19.130  0.00  0.00    +0.000 A 
ATOM     10  C   UNL     1      -3.620  11.446  18.613  0.00  0.00    +0.000 A 
ATOM     11  C   UNL     1      -3.641  10.552  17.536  0.00  0.00    +0.000 A 
ATOM     12  C   UNL     1      -2.448  10.129  16.956  0.00  0.00    +0.000 A 
ATOM     13  C   UNL     1      -1.235  10.600  17.446  0.00  0.00    +0.000 A 
ATOM     14  C   UNL     1      -1.210  11.487  18.533  0.00  0.00    +0.000 A 
ENDROOT
BRANCH   2  15
ATOM     15  C   UNL     1       0.445   9.701  20.215  0.00  0.00    +0.000 C 
BRANCH  15  16
ATOM     16  C   UNL     1       1.413   8.885  19.423  0.00  0.00    +0.000 A 
ATOM     17  C   UNL     1       2.011   9.249  18.231  0.00  0.00    +0.000 A 
ATOM     18  N   UNL     1       2.761   8.199  17.781  0.00  0.00    +0.000 N 
ATOM     19  C   UNL     1       2.655   7.136  18.646  0.00  0.00    +0.000 A 
ATOM     20  C   UNL     1       3.215   5.854  18.571  0.00  0.00    +0.000 A 
ATOM     21  C   UNL     1       2.922   4.957  19.602  0.00  0.00    +0.000 A 
ATOM     22  C   UNL     1       2.106   5.331  20.666  0.00  0.00    +0.000 A 
ATOM     23  C   UNL     1       1.552   6.615  20.724  0.00  0.00    +0.000 A 
ATOM     24  C   UNL     1       1.828   7.540  19.695  0.00  0.00    +0.000 A 
ATOM     25  H   UNL     1       3.296   8.192  16.924  0.00  0.00    +0.000 HD
ENDBRANCH  15  16
ENDBRANCH   2  15
BRANCH   8  26
ATOM     26  C   UNL     1      -3.375  12.635  21.331  0.00  0.00    +0.000 C 
BRANCH  26  27
ATOM     27  C   UNL     1      -4.765  13.182  21.053  0.00  0.00    +0.000 A 
ATOM     28  C   UNL     1      -5.901  12.386  21.277  0.00  0.00    +0.000 A 
ATOM     29  C   UNL     1      -7.181  12.874  21.002  0.00  0.00    +0.000 A 
ATOM     30  C   UNL     1      -7.346  14.170  20.521  0.00  0.00    +0.000 A 
ATOM     31  C   UNL     1      -6.234  14.985  20.330  0.00  0.00    +0.000 A 
ATOM     32  C   UNL     1      -4.954  14.496  20.599  0.00  0.00    +0.000 A 
ENDBRANCH  26  27
ENDBRANCH   8  26
TORSDOF 4
ENDMDL
