MODEL 1
REMARK VINA RESULT:      -9.5      0.000      0.000
REMARK  Name = 
REMARK  4 active torsions:
REMARK  status: ('A' for Active; 'I' for Inactive)
REMARK    1  A    between atoms: C_1  and  C_2
REMARK    2  A    between atoms: N_9  and  C_10
REMARK    3  A    between atoms: C_14  and  C_16
REMARK    4  A    between atoms: C_22  and  C_23
REMARK                            x       y       z     vdW  Elec       q    Type
REMARK                         _______ _______ _______ _____ _____    ______ ____
ROOT
ATOM      1  C   UNL     1       7.616   6.773  17.445  0.00  0.00    +0.000 C 
ATOM      2  C   UNL     1       7.202   5.974  16.198  0.00  0.00    +0.000 C 
ATOM      3  C   UNL     1       5.816   5.445  16.535  0.00  0.00    +0.000 C 
ATOM      4  N   UNL     1       5.958   5.125  17.935  0.00  0.00    +0.000 N 
ATOM      5  C   UNL     1       5.366   4.130  18.678  0.00  0.00    +0.000 C 
ATOM      6  O   UNL     1       5.815   3.832  19.782  0.00  0.00    +0.000 OA
ATOM      7  C   UNL     1       6.804   6.121  18.582  0.00  0.00    +0.000 C 
ENDROOT
BRANCH   1  16
ATOM      8  C   UNL     1       8.165  13.484  17.468  0.00  0.00    +0.000 C 
ATOM      9  C   UNL     1       8.804  12.524  18.417  0.00  0.00    +0.000 A 
ATOM     10  C   UNL     1       9.620  12.973  19.476  0.00  0.00    +0.000 A 
ATOM     11  C   UNL     1      10.247  12.087  20.361  0.00  0.00    +0.000 A 
ATOM     12  C   UNL     1      10.101  10.701  20.219  0.00  0.00    +0.000 A 
ATOM     13  C   UNL     1       9.276  10.229  19.194  0.00  0.00    +0.000 A 
ATOM     14  N   UNL     1       8.933   8.949  18.849  0.00  0.00    +0.000 NA
ATOM     15  C   UNL     1       8.064   9.114  17.880  0.00  0.00    +0.000 A 
ATOM     16  N   UNL     1       7.329   8.187  17.252  0.00  0.00    +0.000 N 
ATOM     17  O   UNL     1       7.856  10.412  17.501  0.00  0.00    +0.000 OA
ATOM     18  C   UNL     1       8.648  11.136  18.354  0.00  0.00    +0.000 A 
ATOM     19  H   UNL     1       6.580   8.476  16.639  0.00  0.00    +0.000 HD
ENDBRANCH   1  16
BRANCH   5  20
ATOM     20  C   UNL     1       4.109   3.611  18.219  0.00  0.00    +0.000 A 
ATOM     21  N   UNL     1       3.600   3.504  16.956  0.00  0.00    +0.000 N 
ATOM     22  N   UNL     1       2.285   3.196  16.917  0.00  0.00    +0.000 NA
ATOM     23  C   UNL     1       1.988   2.983  18.203  0.00  0.00    +0.000 A 
ATOM     24  C   UNL     1       3.107   3.130  19.034  0.00  0.00    +0.000 A 
ATOM     25  C   UNL     1       3.039   3.002  20.508  0.00  0.00    +0.000 C 
ATOM     26  C   UNL     1       1.726   3.630  21.001  0.00  0.00    +0.000 C 
ATOM     27  C   UNL     1       1.823   5.162  20.940  0.00  0.00    +0.000 C 
ATOM     28  C   UNL     1       0.486   3.070  20.246  0.00  0.00    +0.000 C 
ATOM     29  C   UNL     1       0.621   2.740  18.732  0.00  0.00    +0.000 C 
ATOM     30  H   UNL     1       4.070   3.674  16.076  0.00  0.00    +0.000 HD
ENDBRANCH   5  20
TORSDOF 2
ENDMDL
MODEL 2
REMARK VINA RESULT:      -9.0      4.094      6.962
REMARK  Name = 
REMARK  4 active torsions:
REMARK  status: ('A' for Active; 'I' for Inactive)
REMARK    1  A    between atoms: C_1  and  C_2
REMARK    2  A    between atoms: N_9  and  C_10
REMARK    3  A    between atoms: C_14  and  C_16
REMARK    4  A    between atoms: C_22  and  C_23
REMARK                            x       y       z     vdW  Elec       q    Type
REMARK                         _______ _______ _______ _____ _____    ______ ____
ROOT
ATOM      1  C   UNL     1       7.001   6.011  16.600  0.00  0.00    +0.000 C 
ATOM      2  C   UNL     1       7.184   5.653  18.085  0.00  0.00    +0.000 C 
ATOM      3  C   UNL     1       5.807   5.184  18.530  0.00  0.00    +0.000 C 
ATOM      4  N   UNL     1       4.944   6.091  17.812  0.00  0.00    +0.000 N 
ATOM      5  C   UNL     1       3.720   6.612  18.165  0.00  0.00    +0.000 C 
ATOM      6  O   UNL     1       3.264   7.582  17.563  0.00  0.00    +0.000 OA
ATOM      7  C   UNL     1       5.503   6.356  16.491  0.00  0.00    +0.000 C 
ENDROOT
BRANCH   1  16
ATOM      8  C   UNL     1       7.499   1.727  11.429  0.00  0.00    +0.000 C 
ATOM      9  C   UNL     1       6.313   2.554  11.804  0.00  0.00    +0.000 A 
ATOM     10  C   UNL     1       5.113   2.493  11.065  0.00  0.00    +0.000 A 
ATOM     11  C   UNL     1       3.999   3.277  11.387  0.00  0.00    +0.000 A 
ATOM     12  C   UNL     1       4.036   4.179  12.459  0.00  0.00    +0.000 A 
ATOM     13  C   UNL     1       5.204   4.240  13.225  0.00  0.00    +0.000 A 
ATOM     14  N   UNL     1       5.502   4.993  14.329  0.00  0.00    +0.000 NA
ATOM     15  C   UNL     1       6.694   4.569  14.678  0.00  0.00    +0.000 A 
ATOM     16  N   UNL     1       7.411   4.895  15.761  0.00  0.00    +0.000 N 
ATOM     17  O   UNL     1       7.247   3.637  13.842  0.00  0.00    +0.000 OA
ATOM     18  C   UNL     1       6.278   3.428  12.895  0.00  0.00    +0.000 A 
ATOM     19  H   UNL     1       8.242   4.366  15.986  0.00  0.00    +0.000 HD
ENDBRANCH   1  16
BRANCH   5  20
ATOM     20  C   UNL     1       2.923   5.871  19.100  0.00  0.00    +0.000 A 
ATOM     21  N   UNL     1       2.758   6.028  20.447  0.00  0.00    +0.000 N 
ATOM     22  N   UNL     1       2.125   4.995  21.047  0.00  0.00    +0.000 NA
ATOM     23  C   UNL     1       1.774   4.219  20.018  0.00  0.00    +0.000 A 
ATOM     24  C   UNL     1       2.158   4.769  18.787  0.00  0.00    +0.000 A 
ATOM     25  C   UNL     1       1.937   4.082  17.493  0.00  0.00    +0.000 C 
ATOM     26  C   UNL     1       2.179   2.577  17.682  0.00  0.00    +0.000 C 
ATOM     27  C   UNL     1       3.686   2.300  17.798  0.00  0.00    +0.000 C 
ATOM     28  C   UNL     1       1.362   1.994  18.871  0.00  0.00    +0.000 C 
ATOM     29  C   UNL     1       1.160   2.871  20.139  0.00  0.00    +0.000 C 
ATOM     30  H   UNL     1       3.090   6.782  21.034  0.00  0.00    +0.000 HD
ENDBRANCH   5  20
TORSDOF 2
ENDMDL
MODEL 3
REMARK VINA RESULT:      -8.9      6.523      9.650
REMARK  Name = 
REMARK  4 active torsions:
REMARK  status: ('A' for Active; 'I' for Inactive)
REMARK    1  A    between atoms: C_1  and  C_2
REMARK    2  A    between atoms: N_9  and  C_10
REMARK    3  A    between atoms: C_14  and  C_16
REMARK    4  A    between atoms: C_22  and  C_23
REMARK                            x       y       z     vdW  Elec       q    Type
REMARK                         _______ _______ _______ _____ _____    ______ ____
ROOT
ATOM      1  C   UNL     1       1.561   8.428  21.026  0.00  0.00    +0.000 C 
ATOM      2  C   UNL     1       0.809   8.985  22.246  0.00  0.00    +0.000 C 
ATOM      3  C   UNL     1      -0.398   9.695  21.651  0.00  0.00    +0.000 C 
ATOM      4  N   UNL     1       0.167  10.284  20.461  0.00  0.00    +0.000 N 
ATOM      5  C   UNL     1      -0.150  11.461  19.822  0.00  0.00    +0.000 C 
ATOM      6  O   UNL     1       0.619  11.941  18.992  0.00  0.00    +0.000 OA
ATOM      7  C   UNL     1       1.146   9.372  19.880  0.00  0.00    +0.000 C 
ENDROOT
BRANCH   1  16
ATOM      8  C   UNL     1       1.806   1.955  19.189  0.00  0.00    +0.000 C 
ATOM      9  C   UNL     1       2.558   3.093  18.582  0.00  0.00    +0.000 A 
ATOM     10  C   UNL     1       3.431   2.897  17.491  0.00  0.00    +0.000 A 
ATOM     11  C   UNL     1       4.162   3.947  16.924  0.00  0.00    +0.000 A 
ATOM     12  C   UNL     1       4.069   5.250  17.433  0.00  0.00    +0.000 A 
ATOM     13  C   UNL     1       3.191   5.478  18.496  0.00  0.00    +0.000 A 
ATOM     14  N   UNL     1       2.881   6.635  19.158  0.00  0.00    +0.000 NA
ATOM     15  C   UNL     1       1.934   6.270  19.991  0.00  0.00    +0.000 A 
ATOM     16  N   UNL     1       1.197   7.037  20.804  0.00  0.00    +0.000 N 
ATOM     17  O   UNL     1       1.639   4.934  19.985  0.00  0.00    +0.000 OA
ATOM     18  C   UNL     1       2.460   4.419  19.015  0.00  0.00    +0.000 A 
ATOM     19  H   UNL     1       0.391   6.641  21.267  0.00  0.00    +0.000 HD
ENDBRANCH   1  16
BRANCH   5  20
ATOM     20  C   UNL     1      -1.474  11.984  20.003  0.00  0.00    +0.000 A 
ATOM     21  N   UNL     1      -2.097  12.458  21.122  0.00  0.00    +0.000 N 
ATOM     22  N   UNL     1      -3.428  12.638  20.976  0.00  0.00    +0.000 NA
ATOM     23  C   UNL     1      -3.626  12.381  19.680  0.00  0.00    +0.000 A 
ATOM     24  C   UNL     1      -2.432  12.070  19.015  0.00  0.00    +0.000 A 
ATOM     25  C   UNL     1      -2.380  11.691  17.584  0.00  0.00    +0.000 C 
ATOM     26  C   UNL     1      -3.599  10.816  17.258  0.00  0.00    +0.000 C 
ATOM     27  C   UNL     1      -3.405   9.408  17.841  0.00  0.00    +0.000 C 
ATOM     28  C   UNL     1      -4.935  11.478  17.703  0.00  0.00    +0.000 C 
ATOM     29  C   UNL     1      -4.955  12.305  19.019  0.00  0.00    +0.000 C 
ATOM     30  H   UNL     1      -1.695  12.636  22.033  0.00  0.00    +0.000 HD
ENDBRANCH   5  20
TORSDOF 2
ENDMDL
MODEL 4
REMARK VINA RESULT:      -8.7      5.993      8.244
REMARK  Name = 
REMARK  4 active torsions:
REMARK  status: ('A' for Active; 'I' for Inactive)
REMARK    1  A    between atoms: C_1  and  C_2
REMARK    2  A    between atoms: N_9  and  C_10
REMARK    3  A    between atoms: C_14  and  C_16
REMARK    4  A    between atoms: C_22  and  C_23
REMARK                            x       y       z     vdW  Elec       q    Type
REMARK                         _______ _______ _______ _____ _____    ______ ____
ROOT
ATOM      1  C   UNL     1       1.269   9.592  19.190  0.00  0.00    +0.000 C 
ATOM      2  C   UNL     1       2.146   9.679  17.930  0.00  0.00    +0.000 C 
ATOM      3  C   UNL     1       2.305   8.233  17.483  0.00  0.00    +0.000 C 
ATOM      4  N   UNL     1       2.423   7.548  18.748  0.00  0.00    +0.000 N 
ATOM      5  C   UNL     1       3.139   6.420  19.077  0.00  0.00    +0.000 C 
ATOM      6  O   UNL     1       3.349   6.143  20.257  0.00  0.00    +0.000 OA
ATOM      7  C   UNL     1       1.543   8.174  19.728  0.00  0.00    +0.000 C 
ENDROOT
BRANCH   1  16
ATOM      8  C   UNL     1      -4.847  12.383  18.806  0.00  0.00    +0.000 C 
ATOM      9  C   UNL     1      -3.859  12.525  19.918  0.00  0.00    +0.000 A 
ATOM     10  C   UNL     1      -4.150  13.296  21.063  0.00  0.00    +0.000 A 
ATOM     11  C   UNL     1      -3.228  13.459  22.104  0.00  0.00    +0.000 A 
ATOM     12  C   UNL     1      -1.958  12.871  22.043  0.00  0.00    +0.000 A 
ATOM     13  C   UNL     1      -1.653  12.079  20.931  0.00  0.00    +0.000 A 
ATOM     14  N   UNL     1      -0.522  11.371  20.630  0.00  0.00    +0.000 NA
ATOM     15  C   UNL     1      -0.836  10.747  19.519  0.00  0.00    +0.000 A 
ATOM     16  N   UNL     1      -0.126   9.832  18.847  0.00  0.00    +0.000 N 
ATOM     17  O   UNL     1      -2.072  11.046  19.015  0.00  0.00    +0.000 OA
ATOM     18  C   UNL     1      -2.601  11.915  19.933  0.00  0.00    +0.000 A 
ATOM     19  H   UNL     1      -0.562   9.314  18.097  0.00  0.00    +0.000 HD
ENDBRANCH   1  16
BRANCH   5  20
ATOM     20  C   UNL     1       3.441   5.489  18.027  0.00  0.00    +0.000 A 
ATOM     21  N   UNL     1       2.814   4.333  17.659  0.00  0.00    +0.000 N 
ATOM     22  N   UNL     1       3.518   3.582  16.783  0.00  0.00    +0.000 NA
ATOM     23  C   UNL     1       4.570   4.356  16.501  0.00  0.00    +0.000 A 
ATOM     24  C   UNL     1       4.515   5.586  17.170  0.00  0.00    +0.000 A 
ATOM     25  C   UNL     1       5.585   6.605  17.073  0.00  0.00    +0.000 C 
ATOM     26  C   UNL     1       6.947   5.895  17.049  0.00  0.00    +0.000 C 
ATOM     27  C   UNL     1       7.293   5.377  18.453  0.00  0.00    +0.000 C 
ATOM     28  C   UNL     1       7.012   4.785  15.960  0.00  0.00    +0.000 C 
ATOM     29  C   UNL     1       5.737   3.941  15.678  0.00  0.00    +0.000 C 
ATOM     30  H   UNL     1       1.935   3.963  17.995  0.00  0.00    +0.000 HD
ENDBRANCH   5  20
TORSDOF 2
ENDMDL
MODEL 5
REMARK VINA RESULT:      -8.5      6.338      8.530
REMARK  Name = 
REMARK  4 active torsions:
REMARK  status: ('A' for Active; 'I' for Inactive)
REMARK    1  A    between atoms: C_1  and  C_2
REMARK    2  A    between atoms: N_9  and  C_10
REMARK    3  A    between atoms: C_14  and  C_16
REMARK    4  A    between atoms: C_22  and  C_23
REMARK                            x       y       z     vdW  Elec       q    Type
REMARK                         _______ _______ _______ _____ _____    ______ ____
ROOT
ATOM      1  C   UNL     1       0.972  10.273  19.461  0.00  0.00    +0.000 C 
ATOM      2  C   UNL     1       1.835  10.178  18.192  0.00  0.00    +0.000 C 
ATOM      3  C   UNL     1       1.811   8.701  17.831  0.00  0.00    +0.000 C 
ATOM      4  N   UNL     1       1.865   8.082  19.133  0.00  0.00    +0.000 N 
ATOM      5  C   UNL     1       2.443   6.895  19.523  0.00  0.00    +0.000 C 
ATOM      6  O   UNL     1       2.636   6.664  20.715  0.00  0.00    +0.000 OA
ATOM      7  C   UNL     1       1.082   8.866  20.081  0.00  0.00    +0.000 C 
ENDROOT
BRANCH   1  16
ATOM      8  C   UNL     1      -5.104  13.170  19.630  0.00  0.00    +0.000 C 
ATOM      9  C   UNL     1      -4.220  12.861  20.794  0.00  0.00    +0.000 A 
ATOM     10  C   UNL     1      -4.615  13.157  22.114  0.00  0.00    +0.000 A 
ATOM     11  C   UNL     1      -3.791  12.897  23.215  0.00  0.00    +0.000 A 
ATOM     12  C   UNL     1      -2.516  12.339  23.047  0.00  0.00    +0.000 A 
ATOM     13  C   UNL     1      -2.109  12.011  21.751  0.00  0.00    +0.000 A 
ATOM     14  N   UNL     1      -0.950  11.435  21.304  0.00  0.00    +0.000 NA
ATOM     15  C   UNL     1      -1.160  11.279  20.018  0.00  0.00    +0.000 A 
ATOM     16  N   UNL     1      -0.388  10.660  19.116  0.00  0.00    +0.000 N 
ATOM     17  O   UNL     1      -2.349  11.776  19.559  0.00  0.00    +0.000 OA
ATOM     18  C   UNL     1      -2.963  12.256  20.686  0.00  0.00    +0.000 A 
ATOM     19  H   UNL     1      -0.752  10.471  18.193  0.00  0.00    +0.000 HD
ENDBRANCH   1  16
BRANCH   5  20
ATOM     20  C   UNL     1       2.614   5.875  18.528  0.00  0.00    +0.000 A 
ATOM     21  N   UNL     1       1.834   4.799  18.217  0.00  0.00    +0.000 N 
ATOM     22  N   UNL     1       2.428   3.910  17.390  0.00  0.00    +0.000 NA
ATOM     23  C   UNL     1       3.578   4.514  17.076  0.00  0.00    +0.000 A 
ATOM     24  C   UNL     1       3.693   5.775  17.676  0.00  0.00    +0.000 A 
ATOM     25  C   UNL     1       4.895   6.629  17.535  0.00  0.00    +0.000 C 
ATOM     26  C   UNL     1       6.144   5.736  17.562  0.00  0.00    +0.000 C 
ATOM     27  C   UNL     1       6.413   5.253  18.996  0.00  0.00    +0.000 C 
ATOM     28  C   UNL     1       6.056   4.570  16.535  0.00  0.00    +0.000 C 
ATOM     29  C   UNL     1       4.676   3.897  16.288  0.00  0.00    +0.000 C 
ATOM     30  H   UNL     1       0.911   4.574  18.565  0.00  0.00    +0.000 HD
ENDBRANCH   5  20
TORSDOF 2
ENDMDL
MODEL 6
REMARK VINA RESULT:      -8.4      6.538     10.050
REMARK  Name = 
REMARK  4 active torsions:
REMARK  status: ('A' for Active; 'I' for Inactive)
REMARK    1  A    between atoms: C_1  and  C_2
REMARK    2  A    between atoms: N_9  and  C_10
REMARK    3  A    between atoms: C_14  and  C_16
REMARK    4  A    between atoms: C_22  and  C_23
REMARK                            x       y       z     vdW  Elec       q    Type
REMARK                         _______ _______ _______ _____ _____    ______ ____
ROOT
ATOM      1  C   UNL     1       0.617   9.666  19.161  0.00  0.00    +0.000 C 
ATOM      2  C   UNL     1      -0.513  10.350  18.372  0.00  0.00    +0.000 C 
ATOM      3  C   UNL     1      -0.257  11.837  18.563  0.00  0.00    +0.000 C 
ATOM      4  N   UNL     1       0.184  11.884  19.936  0.00  0.00    +0.000 N 
ATOM      5  C   UNL     1       0.014  12.866  20.885  0.00  0.00    +0.000 C 
ATOM      6  O   UNL     1       0.208  12.618  22.073  0.00  0.00    +0.000 OA
ATOM      7  C   UNL     1       0.998  10.710  20.230  0.00  0.00    +0.000 C 
ENDROOT
BRANCH   1  16
ATOM      8  C   UNL     1       5.298   6.142  15.842  0.00  0.00    +0.000 C 
ATOM      9  C   UNL     1       4.715   5.830  17.183  0.00  0.00    +0.000 A 
ATOM     10  C   UNL     1       5.134   4.703  17.920  0.00  0.00    +0.000 A 
ATOM     11  C   UNL     1       4.584   4.382  19.166  0.00  0.00    +0.000 A 
ATOM     12  C   UNL     1       3.569   5.166  19.732  0.00  0.00    +0.000 A 
ATOM     13  C   UNL     1       3.153   6.304  19.034  0.00  0.00    +0.000 A 
ATOM     14  N   UNL     1       2.221   7.251  19.359  0.00  0.00    +0.000 NA
ATOM     15  C   UNL     1       2.321   8.128  18.387  0.00  0.00    +0.000 A 
ATOM     16  N   UNL     1       1.710   9.313  18.267  0.00  0.00    +0.000 N 
ATOM     17  O   UNL     1       3.203   7.797  17.396  0.00  0.00    +0.000 OA
ATOM     18  C   UNL     1       3.741   6.608  17.816  0.00  0.00    +0.000 A 
ATOM     19  H   UNL     1       2.008   9.957  17.548  0.00  0.00    +0.000 HD
ENDBRANCH   1  16
BRANCH   5  20
ATOM     20  C   UNL     1      -0.186  14.211  20.426  0.00  0.00    +0.000 A 
ATOM     21  N   UNL     1      -1.328  14.861  20.053  0.00  0.00    +0.000 N 
ATOM     22  N   UNL     1      -1.111  16.046  19.440  0.00  0.00    +0.000 NA
ATOM     23  C   UNL     1       0.213  16.199  19.542  0.00  0.00    +0.000 A 
ATOM     24  C   UNL     1       0.815  15.138  20.232  0.00  0.00    +0.000 A 
ATOM     25  C   UNL     1       2.279  15.036  20.435  0.00  0.00    +0.000 C 
ATOM     26  C   UNL     1       2.991  15.526  19.165  0.00  0.00    +0.000 C 
ATOM     27  C   UNL     1       2.871  14.469  18.056  0.00  0.00    +0.000 C 
ATOM     28  C   UNL     1       2.498  16.933  18.719  0.00  0.00    +0.000 C 
ATOM     29  C   UNL     1       0.996  17.289  18.903  0.00  0.00    +0.000 C 
ATOM     30  H   UNL     1      -2.285  14.542  20.136  0.00  0.00    +0.000 HD
ENDBRANCH   5  20
TORSDOF 2
ENDMDL
MODEL 7
REMARK VINA RESULT:      -8.3      6.835      9.508
REMARK  Name = 
REMARK  4 active torsions:
REMARK  status: ('A' for Active; 'I' for Inactive)
REMARK    1  A    between atoms: C_1  and  C_2
REMARK    2  A    between atoms: N_9  and  C_10
REMARK    3  A    between atoms: C_14  and  C_16
REMARK    4  A    between atoms: C_22  and  C_23
REMARK                            x       y       z     vdW  Elec       q    Type
REMARK                         _______ _______ _______ _____ _____    ______ ____
ROOT
ATOM      1  C   UNL     1       1.767   8.813  20.051  0.00  0.00    +0.000 C 
ATOM      2  C   UNL     1       0.918   9.064  21.309  0.00  0.00    +0.000 C 
ATOM      3  C   UNL     1      -0.410   9.576  20.770  0.00  0.00    +0.000 C 
ATOM      4  N   UNL     1       0.021  10.398  19.665  0.00  0.00    +0.000 N 
ATOM      5  C   UNL     1      -0.531  11.550  19.153  0.00  0.00    +0.000 C 
ATOM      6  O   UNL     1       0.123  12.266  18.398  0.00  0.00    +0.000 OA
ATOM      7  C   UNL     1       1.165   9.776  19.008  0.00  0.00    +0.000 C 
ENDROOT
BRANCH   1  16
ATOM      8  C   UNL     1       3.377   2.741  17.626  0.00  0.00    +0.000 C 
ATOM      9  C   UNL     1       3.927   4.061  17.191  0.00  0.00    +0.000 A 
ATOM     10  C   UNL     1       4.882   4.153  16.158  0.00  0.00    +0.000 A 
ATOM     11  C   UNL     1       5.426   5.378  15.753  0.00  0.00    +0.000 A 
ATOM     12  C   UNL     1       5.051   6.576  16.376  0.00  0.00    +0.000 A 
ATOM     13  C   UNL     1       4.085   6.516  17.385  0.00  0.00    +0.000 A 
ATOM     14  N   UNL     1       3.517   7.516  18.129  0.00  0.00    +0.000 NA
ATOM     15  C   UNL     1       2.613   6.890  18.846  0.00  0.00    +0.000 A 
ATOM     16  N   UNL     1       1.694   7.411  19.669  0.00  0.00    +0.000 N 
ATOM     17  O   UNL     1       2.586   5.531  18.689  0.00  0.00    +0.000 OA
ATOM     18  C   UNL     1       3.547   5.289  17.741  0.00  0.00    +0.000 A 
ATOM     19  H   UNL     1       0.956   6.822  20.028  0.00  0.00    +0.000 HD
ENDBRANCH   1  16
BRANCH   5  20
ATOM     20  C   UNL     1      -1.934  11.768  19.361  0.00  0.00    +0.000 A 
ATOM     21  N   UNL     1      -3.010  11.419  18.596  0.00  0.00    +0.000 N 
ATOM     22  N   UNL     1      -4.168  12.004  18.975  0.00  0.00    +0.000 NA
ATOM     23  C   UNL     1      -3.825  12.650  20.094  0.00  0.00    +0.000 A 
ATOM     24  C   UNL     1      -2.479  12.452  20.427  0.00  0.00    +0.000 A 
ATOM     25  C   UNL     1      -1.832  13.101  21.590  0.00  0.00    +0.000 C 
ATOM     26  C   UNL     1      -2.372  14.533  21.723  0.00  0.00    +0.000 C 
ATOM     27  C   UNL     1      -1.761  15.427  20.633  0.00  0.00    +0.000 C 
ATOM     28  C   UNL     1      -3.927  14.576  21.742  0.00  0.00    +0.000 C 
ATOM     29  C   UNL     1      -4.712  13.574  20.848  0.00  0.00    +0.000 C 
ATOM     30  H   UNL     1      -3.027  10.829  17.773  0.00  0.00    +0.000 HD
ENDBRANCH   5  20
TORSDOF 2
ENDMDL
MODEL 8
REMARK VINA RESULT:      -8.3      1.882      2.620
REMARK  Name = 
REMARK  4 active torsions:
REMARK  status: ('A' for Active; 'I' for Inactive)
REMARK    1  A    between atoms: C_1  and  C_2
REMARK    2  A    between atoms: N_9  and  C_10
REMARK    3  A    between atoms: C_14  and  C_16
REMARK    4  A    between atoms: C_22  and  C_23
REMARK                            x       y       z     vdW  Elec       q    Type
REMARK                         _______ _______ _______ _____ _____    ______ ____
ROOT
ATOM      1  C   UNL     1       8.571   7.981  18.287  0.00  0.00    +0.000 C 
ATOM      2  C   UNL     1       7.530   8.501  17.282  0.00  0.00    +0.000 C 
ATOM      3  C   UNL     1       6.221   7.874  17.738  0.00  0.00    +0.000 C 
ATOM      4  N   UNL     1       6.655   6.561  18.150  0.00  0.00    +0.000 N 
ATOM      5  C   UNL     1       5.993   5.356  18.097  0.00  0.00    +0.000 C 
ATOM      6  O   UNL     1       6.615   4.303  18.227  0.00  0.00    +0.000 OA
ATOM      7  C   UNL     1       7.965   6.654  18.786  0.00  0.00    +0.000 C 
ENDROOT
BRANCH   1  16
ATOM      8  C   UNL     1       9.678  13.794  21.502  0.00  0.00    +0.000 C 
ATOM      9  C   UNL     1      10.094  13.438  20.111  0.00  0.00    +0.000 A 
ATOM     10  C   UNL     1      10.814  14.346  19.307  0.00  0.00    +0.000 A 
ATOM     11  C   UNL     1      11.192  14.040  17.994  0.00  0.00    +0.000 A 
ATOM     12  C   UNL     1      10.852  12.811  17.413  0.00  0.00    +0.000 A 
ATOM     13  C   UNL     1      10.163  11.882  18.197  0.00  0.00    +0.000 A 
ATOM     14  N   UNL     1       9.739  10.614  17.903  0.00  0.00    +0.000 NA
ATOM     15  C   UNL     1       9.240  10.185  19.039  0.00  0.00    +0.000 A 
ATOM     16  N   UNL     1       8.785   8.963  19.341  0.00  0.00    +0.000 N 
ATOM     17  O   UNL     1       9.233  11.103  20.053  0.00  0.00    +0.000 OA
ATOM     18  C   UNL     1       9.830  12.207  19.503  0.00  0.00    +0.000 A 
ATOM     19  H   UNL     1       8.584   8.729  20.303  0.00  0.00    +0.000 HD
ENDBRANCH   1  16
BRANCH   5  20
ATOM     20  C   UNL     1       4.558   5.380  18.096  0.00  0.00    +0.000 A 
ATOM     21  N   UNL     1       3.687   6.373  18.443  0.00  0.00    +0.000 N 
ATOM     22  N   UNL     1       2.404   5.964  18.555  0.00  0.00    +0.000 NA
ATOM     23  C   UNL     1       2.457   4.693  18.146  0.00  0.00    +0.000 A 
ATOM     24  C   UNL     1       3.750   4.317  17.756  0.00  0.00    +0.000 A 
ATOM     25  C   UNL     1       4.092   2.946  17.314  0.00  0.00    +0.000 C 
ATOM     26  C   UNL     1       3.309   1.938  18.169  0.00  0.00    +0.000 C 
ATOM     27  C   UNL     1       3.925   1.851  19.573  0.00  0.00    +0.000 C 
ATOM     28  C   UNL     1       1.784   2.247  18.193  0.00  0.00    +0.000 C 
ATOM     29  C   UNL     1       1.324   3.732  18.201  0.00  0.00    +0.000 C 
ATOM     30  H   UNL     1       3.895   7.337  18.666  0.00  0.00    +0.000 HD
ENDBRANCH   5  20
TORSDOF 2
ENDMDL
MODEL 9
REMARK VINA RESULT:      -8.3      3.771     10.408
REMARK  Name = 
REMARK  4 active torsions:
REMARK  status: ('A' for Active; 'I' for Inactive)
REMARK    1  A    between atoms: C_1  and  C_2
REMARK    2  A    between atoms: N_9  and  C_10
REMARK    3  A    between atoms: C_14  and  C_16
REMARK    4  A    between atoms: C_22  and  C_23
REMARK                            x       y       z     vdW  Elec       q    Type
REMARK                         _______ _______ _______ _____ _____    ______ ____
ROOT
ATOM      1  C   UNL     1       9.724  10.305  19.129  0.00  0.00    +0.000 C 
ATOM      2  C   UNL     1       9.059  10.758  20.440  0.00  0.00    +0.000 C 
ATOM      3  C   UNL     1       9.047  12.276  20.349  0.00  0.00    +0.000 C 
ATOM      4  N   UNL     1      10.318  12.542  19.721  0.00  0.00    +0.000 N 
ATOM      5  C   UNL     1      11.172  13.610  19.872  0.00  0.00    +0.000 C 
ATOM      6  O   UNL     1      12.333  13.535  19.476  0.00  0.00    +0.000 OA
ATOM      7  C   UNL     1      10.601  11.509  18.730  0.00  0.00    +0.000 C 
ENDROOT
BRANCH   1  16
ATOM      8  C   UNL     1       4.798   7.089  15.853  0.00  0.00    +0.000 C 
ATOM      9  C   UNL     1       5.830   6.485  16.749  0.00  0.00    +0.000 A 
ATOM     10  C   UNL     1       5.869   5.095  16.989  0.00  0.00    +0.000 A 
ATOM     11  C   UNL     1       6.813   4.514  17.843  0.00  0.00    +0.000 A 
ATOM     12  C   UNL     1       7.759   5.299  18.516  0.00  0.00    +0.000 A 
ATOM     13  C   UNL     1       7.759   6.676  18.276  0.00  0.00    +0.000 A 
ATOM     14  N   UNL     1       8.575   7.661  18.763  0.00  0.00    +0.000 NA
ATOM     15  C   UNL     1       8.176   8.736  18.124  0.00  0.00    +0.000 A 
ATOM     16  N   UNL     1       8.709   9.964  18.143  0.00  0.00    +0.000 N 
ATOM     17  O   UNL     1       7.100   8.554  17.298  0.00  0.00    +0.000 OA
ATOM     18  C   UNL     1       6.828   7.215  17.401  0.00  0.00    +0.000 A 
ATOM     19  H   UNL     1       8.396  10.654  17.474  0.00  0.00    +0.000 HD
ENDBRANCH   1  16
BRANCH   5  20
ATOM     20  C   UNL     1      10.611  14.858  20.306  0.00  0.00    +0.000 A 
ATOM     21  N   UNL     1      10.578  15.433  21.544  0.00  0.00    +0.000 N 
ATOM     22  N   UNL     1       9.749  16.497  21.634  0.00  0.00    +0.000 NA
ATOM     23  C   UNL     1       9.341  16.667  20.373  0.00  0.00    +0.000 A 
ATOM     24  C   UNL     1       9.926  15.740  19.500  0.00  0.00    +0.000 A 
ATOM     25  C   UNL     1       9.600  15.677  18.056  0.00  0.00    +0.000 C 
ATOM     26  C   UNL     1       8.099  15.946  17.873  0.00  0.00    +0.000 C 
ATOM     27  C   UNL     1       7.289  14.717  18.312  0.00  0.00    +0.000 C 
ATOM     28  C   UNL     1       7.646  17.256  18.580  0.00  0.00    +0.000 C 
ATOM     29  C   UNL     1       8.301  17.635  19.939  0.00  0.00    +0.000 C 
ATOM     30  H   UNL     1      11.049  15.131  22.387  0.00  0.00    +0.000 HD
ENDBRANCH   5  20
TORSDOF 2
ENDMDL
