MODEL 1
REMARK VINA RESULT:      -8.9      0.000      0.000
REMARK  Name = 
REMARK  2 active torsions:
REMARK  status: ('A' for Active; 'I' for Inactive)
REMARK    1  A    between atoms: C_7  and  C_8
REMARK    2  A    between atoms: N_11  and  C_12
REMARK                            x       y       z     vdW  Elec       q    Type
REMARK                         _______ _______ _______ _____ _____    ______ ____
ROOT
ATOM      1  C   UNL     1       5.432   4.251  18.519  0.00  0.00    +0.000 A 
ATOM      2  N   UNL     1       6.208   4.988  19.354  0.00  0.00    +0.000 NA
ATOM      3  C   UNL     1       7.291   5.624  18.854  0.00  0.00    +0.000 A 
ATOM      4  N   UNL     1       7.720   5.670  17.579  0.00  0.00    +0.000 NA
ATOM      5  C   UNL     1       6.918   4.976  16.737  0.00  0.00    +0.000 A 
ATOM      6  C   UNL     1       5.806   4.278  17.175  0.00  0.00    +0.000 A 
ATOM      7  O   UNL     1       5.172   3.680  16.126  0.00  0.00    +0.000 OA
ATOM      8  C   UNL     1       5.870   4.009  15.008  0.00  0.00    +0.000 A 
ATOM      9  C   UNL     1       5.531   3.615  13.717  0.00  0.00    +0.000 A 
ATOM     10  C   UNL     1       6.368   4.061  12.691  0.00  0.00    +0.000 A 
ATOM     11  C   UNL     1       7.488   4.851  12.964  0.00  0.00    +0.000 A 
ATOM     12  C   UNL     1       7.806   5.231  14.280  0.00  0.00    +0.000 A 
ATOM     13  C   UNL     1       6.970   4.800  15.327  0.00  0.00    +0.000 A 
ENDROOT
BRANCH   1  17
ATOM     14  C   UNL     1       2.954   3.829  19.240  0.00  0.00    +0.000 C 
ATOM     15  C   UNL     1       3.072   2.897  20.456  0.00  0.00    +0.000 C 
ATOM     16  C   UNL     1       4.343   2.362  19.798  0.00  0.00    +0.000 C 
ATOM     17  N   UNL     1       4.324   3.521  18.959  0.00  0.00    +0.000 N 
BRANCH  14  24
ATOM     18  F   UNL     1       3.253   5.934  17.158  0.00  0.00    +0.000 F 
ATOM     19  C   UNL     1       2.716   6.297  18.333  0.00  0.00    +0.000 A 
ATOM     20  C   UNL     1       2.353   7.638  18.491  0.00  0.00    +0.000 A 
ATOM     21  C   UNL     1       1.805   8.077  19.693  0.00  0.00    +0.000 A 
ATOM     22  C   UNL     1       1.630   7.172  20.731  0.00  0.00    +0.000 A 
ATOM     23  C   UNL     1       1.997   5.835  20.556  0.00  0.00    +0.000 A 
ATOM     24  C   UNL     1       2.551   5.343  19.349  0.00  0.00    +0.000 A 
ENDBRANCH  14  24
ENDBRANCH   1  17
TORSDOF 2
ENDMDL
MODEL 2
REMARK VINA RESULT:      -8.8      0.982      1.383
REMARK  Name = 
REMARK  2 active torsions:
REMARK  status: ('A' for Active; 'I' for Inactive)
REMARK    1  A    between atoms: C_7  and  C_8
REMARK    2  A    between atoms: N_11  and  C_12
REMARK                            x       y       z     vdW  Elec       q    Type
REMARK                         _______ _______ _______ _____ _____    ______ ____
ROOT
ATOM      1  C   UNL     1       5.463   4.305  18.175  0.00  0.00    +0.000 A 
ATOM      2  N   UNL     1       6.254   5.054  18.985  0.00  0.00    +0.000 NA
ATOM      3  C   UNL     1       7.337   5.669  18.460  0.00  0.00    +0.000 A 
ATOM      4  N   UNL     1       7.753   5.683  17.180  0.00  0.00    +0.000 NA
ATOM      5  C   UNL     1       6.936   4.978  16.362  0.00  0.00    +0.000 A 
ATOM      6  C   UNL     1       5.824   4.299  16.827  0.00  0.00    +0.000 A 
ATOM      7  O   UNL     1       5.174   3.683  15.799  0.00  0.00    +0.000 OA
ATOM      8  C   UNL     1       5.863   3.980  14.667  0.00  0.00    +0.000 A 
ATOM      9  C   UNL     1       5.507   3.561  13.388  0.00  0.00    +0.000 A 
ATOM     10  C   UNL     1       6.336   3.976  12.343  0.00  0.00    +0.000 A 
ATOM     11  C   UNL     1       7.466   4.763  12.587  0.00  0.00    +0.000 A 
ATOM     12  C   UNL     1       7.800   5.170  13.891  0.00  0.00    +0.000 A 
ATOM     13  C   UNL     1       6.972   4.770  14.956  0.00  0.00    +0.000 A 
ENDROOT
BRANCH   1  17
ATOM     14  C   UNL     1       2.999   3.928  18.963  0.00  0.00    +0.000 C 
ATOM     15  C   UNL     1       3.132   2.988  20.172  0.00  0.00    +0.000 C 
ATOM     16  C   UNL     1       4.374   2.431  19.477  0.00  0.00    +0.000 C 
ATOM     17  N   UNL     1       4.354   3.594  18.643  0.00  0.00    +0.000 N 
BRANCH  14  24
ATOM     18  F   UNL     1       1.929   5.338  21.356  0.00  0.00    +0.000 F 
ATOM     19  C   UNL     1       2.124   6.064  20.245  0.00  0.00    +0.000 A 
ATOM     20  C   UNL     1       1.795   7.422  20.294  0.00  0.00    +0.000 A 
ATOM     21  C   UNL     1       1.961   8.223  19.169  0.00  0.00    +0.000 A 
ATOM     22  C   UNL     1       2.448   7.658  17.998  0.00  0.00    +0.000 A 
ATOM     23  C   UNL     1       2.774   6.300  17.966  0.00  0.00    +0.000 A 
ATOM     24  C   UNL     1       2.628   5.448  19.089  0.00  0.00    +0.000 A 
ENDBRANCH  14  24
ENDBRANCH   1  17
TORSDOF 2
ENDMDL
MODEL 3
REMARK VINA RESULT:      -8.2      3.011      7.309
REMARK  Name = 
REMARK  2 active torsions:
REMARK  status: ('A' for Active; 'I' for Inactive)
REMARK    1  A    between atoms: C_7  and  C_8
REMARK    2  A    between atoms: N_11  and  C_12
REMARK                            x       y       z     vdW  Elec       q    Type
REMARK                         _______ _______ _______ _____ _____    ______ ____
ROOT
ATOM      1  C   UNL     1       2.406   6.864  19.384  0.00  0.00    +0.000 A 
ATOM      2  N   UNL     1       2.832   7.246  18.153  0.00  0.00    +0.000 NA
ATOM      3  C   UNL     1       2.481   8.464  17.684  0.00  0.00    +0.000 A 
ATOM      4  N   UNL     1       1.766   9.423  18.301  0.00  0.00    +0.000 NA
ATOM      5  C   UNL     1       1.383   9.063  19.549  0.00  0.00    +0.000 A 
ATOM      6  C   UNL     1       1.681   7.824  20.089  0.00  0.00    +0.000 A 
ATOM      7  O   UNL     1       1.190   7.725  21.358  0.00  0.00    +0.000 OA
ATOM      8  C   UNL     1       0.589   8.910  21.639  0.00  0.00    +0.000 A 
ATOM      9  C   UNL     1      -0.017   9.225  22.851  0.00  0.00    +0.000 A 
ATOM     10  C   UNL     1      -0.576  10.501  22.956  0.00  0.00    +0.000 A 
ATOM     11  C   UNL     1      -0.529  11.400  21.886  0.00  0.00    +0.000 A 
ATOM     12  C   UNL     1       0.089  11.052  20.672  0.00  0.00    +0.000 A 
ATOM     13  C   UNL     1       0.666   9.774  20.550  0.00  0.00    +0.000 A 
ENDROOT
BRANCH   1  17
ATOM     14  C   UNL     1       3.790   4.701  19.875  0.00  0.00    +0.000 C 
ATOM     15  C   UNL     1       2.762   3.564  19.757  0.00  0.00    +0.000 C 
ATOM     16  C   UNL     1       1.728   4.583  20.236  0.00  0.00    +0.000 C 
ATOM     17  N   UNL     1       2.680   5.605  19.924  0.00  0.00    +0.000 N 
BRANCH  14  24
ATOM     18  F   UNL     1       3.658   4.170  16.950  0.00  0.00    +0.000 F 
ATOM     19  C   UNL     1       4.793   4.698  17.433  0.00  0.00    +0.000 A 
ATOM     20  C   UNL     1       5.829   4.942  16.527  0.00  0.00    +0.000 A 
ATOM     21  C   UNL     1       7.036   5.475  16.972  0.00  0.00    +0.000 A 
ATOM     22  C   UNL     1       7.200   5.752  18.322  0.00  0.00    +0.000 A 
ATOM     23  C   UNL     1       6.154   5.503  19.214  0.00  0.00    +0.000 A 
ATOM     24  C   UNL     1       4.907   4.969  18.806  0.00  0.00    +0.000 A 
ENDBRANCH  14  24
ENDBRANCH   1  17
TORSDOF 2
ENDMDL
MODEL 4
REMARK VINA RESULT:      -8.2      3.133      7.366
REMARK  Name = 
REMARK  2 active torsions:
REMARK  status: ('A' for Active; 'I' for Inactive)
REMARK    1  A    between atoms: C_7  and  C_8
REMARK    2  A    between atoms: N_11  and  C_12
REMARK                            x       y       z     vdW  Elec       q    Type
REMARK                         _______ _______ _______ _____ _____    ______ ____
ROOT
ATOM      1  C   UNL     1       2.396   6.857  19.449  0.00  0.00    +0.000 A 
ATOM      2  N   UNL     1       2.850   7.217  18.222  0.00  0.00    +0.000 NA
ATOM      3  C   UNL     1       2.518   8.431  17.729  0.00  0.00    +0.000 A 
ATOM      4  N   UNL     1       1.797   9.404  18.317  0.00  0.00    +0.000 NA
ATOM      5  C   UNL     1       1.387   9.065  19.561  0.00  0.00    +0.000 A 
ATOM      6  C   UNL     1       1.664   7.832  20.125  0.00  0.00    +0.000 A 
ATOM      7  O   UNL     1       1.147   7.755  21.385  0.00  0.00    +0.000 OA
ATOM      8  C   UNL     1       0.549   8.948  21.636  0.00  0.00    +0.000 A 
ATOM      9  C   UNL     1      -0.079   9.285  22.832  0.00  0.00    +0.000 A 
ATOM     10  C   UNL     1      -0.630  10.567  22.906  0.00  0.00    +0.000 A 
ATOM     11  C   UNL     1      -0.555  11.449  21.824  0.00  0.00    +0.000 A 
ATOM     12  C   UNL     1       0.085  11.079  20.629  0.00  0.00    +0.000 A 
ATOM     13  C   UNL     1       0.655   9.796  20.537  0.00  0.00    +0.000 A 
ENDROOT
BRANCH   1  17
ATOM     14  C   UNL     1       3.650   4.594  19.833  0.00  0.00    +0.000 C 
ATOM     15  C   UNL     1       2.522   3.559  19.963  0.00  0.00    +0.000 C 
ATOM     16  C   UNL     1       1.681   4.694  20.546  0.00  0.00    +0.000 C 
ATOM     17  N   UNL     1       2.649   5.603  20.013  0.00  0.00    +0.000 N 
BRANCH  14  24
ATOM     18  F   UNL     1       6.410   5.701  19.716  0.00  0.00    +0.000 F 
ATOM     19  C   UNL     1       5.880   5.237  18.574  0.00  0.00    +0.000 A 
ATOM     20  C   UNL     1       6.660   5.324  17.417  0.00  0.00    +0.000 A 
ATOM     21  C   UNL     1       6.158   4.873  16.200  0.00  0.00    +0.000 A 
ATOM     22  C   UNL     1       4.875   4.344  16.147  0.00  0.00    +0.000 A 
ATOM     23  C   UNL     1       4.109   4.263  17.313  0.00  0.00    +0.000 A 
ATOM     24  C   UNL     1       4.582   4.703  18.575  0.00  0.00    +0.000 A 
ENDBRANCH  14  24
ENDBRANCH   1  17
TORSDOF 2
ENDMDL
MODEL 5
REMARK VINA RESULT:      -8.1      2.044      5.769
REMARK  Name = 
REMARK  2 active torsions:
REMARK  status: ('A' for Active; 'I' for Inactive)
REMARK    1  A    between atoms: C_7  and  C_8
REMARK    2  A    between atoms: N_11  and  C_12
REMARK                            x       y       z     vdW  Elec       q    Type
REMARK                         _______ _______ _______ _____ _____    ______ ____
ROOT
ATOM      1  C   UNL     1       3.830   4.126  18.532  0.00  0.00    +0.000 A 
ATOM      2  N   UNL     1       3.661   3.274  19.576  0.00  0.00    +0.000 NA
ATOM      3  C   UNL     1       3.035   3.715  20.690  0.00  0.00    +0.000 A 
ATOM      4  N   UNL     1       2.492   4.925  20.921  0.00  0.00    +0.000 NA
ATOM      5  C   UNL     1       2.615   5.759  19.861  0.00  0.00    +0.000 A 
ATOM      6  C   UNL     1       3.265   5.390  18.696  0.00  0.00    +0.000 A 
ATOM      7  O   UNL     1       3.236   6.408  17.790  0.00  0.00    +0.000 OA
ATOM      8  C   UNL     1       2.552   7.429  18.368  0.00  0.00    +0.000 A 
ATOM      9  C   UNL     1       2.278   8.649  17.756  0.00  0.00    +0.000 A 
ATOM     10  C   UNL     1       1.551   9.574  18.509  0.00  0.00    +0.000 A 
ATOM     11  C   UNL     1       1.137   9.279  19.812  0.00  0.00    +0.000 A 
ATOM     12  C   UNL     1       1.430   8.038  20.404  0.00  0.00    +0.000 A 
ATOM     13  C   UNL     1       2.153   7.089  19.658  0.00  0.00    +0.000 A 
ENDROOT
BRANCH   1  17
ATOM     14  C   UNL     1       5.784   4.088  16.795  0.00  0.00    +0.000 C 
ATOM     15  C   UNL     1       5.074   4.154  15.433  0.00  0.00    +0.000 C 
ATOM     16  C   UNL     1       3.922   3.412  16.109  0.00  0.00    +0.000 C 
ATOM     17  N   UNL     1       4.509   3.768  17.364  0.00  0.00    +0.000 N 
BRANCH  14  24
ATOM     18  F   UNL     1       5.737   6.931  15.914  0.00  0.00    +0.000 F 
ATOM     19  C   UNL     1       6.523   6.618  16.955  0.00  0.00    +0.000 A 
ATOM     20  C   UNL     1       7.269   7.649  17.534  0.00  0.00    +0.000 A 
ATOM     21  C   UNL     1       8.113   7.382  18.608  0.00  0.00    +0.000 A 
ATOM     22  C   UNL     1       8.212   6.084  19.090  0.00  0.00    +0.000 A 
ATOM     23  C   UNL     1       7.458   5.066  18.501  0.00  0.00    +0.000 A 
ATOM     24  C   UNL     1       6.580   5.292  17.412  0.00  0.00    +0.000 A 
ENDBRANCH  14  24
ENDBRANCH   1  17
TORSDOF 2
ENDMDL
MODEL 6
REMARK VINA RESULT:      -7.9      1.974      5.918
REMARK  Name = 
REMARK  2 active torsions:
REMARK  status: ('A' for Active; 'I' for Inactive)
REMARK    1  A    between atoms: C_7  and  C_8
REMARK    2  A    between atoms: N_11  and  C_12
REMARK                            x       y       z     vdW  Elec       q    Type
REMARK                         _______ _______ _______ _____ _____    ______ ____
ROOT
ATOM      1  C   UNL     1       4.348   4.271  18.033  0.00  0.00    +0.000 A 
ATOM      2  N   UNL     1       4.252   3.271  18.946  0.00  0.00    +0.000 NA
ATOM      3  C   UNL     1       3.575   3.493  20.095  0.00  0.00    +0.000 A 
ATOM      4  N   UNL     1       2.914   4.603  20.475  0.00  0.00    +0.000 NA
ATOM      5  C   UNL     1       2.967   5.583  19.543  0.00  0.00    +0.000 A 
ATOM      6  C   UNL     1       3.662   5.442  18.354  0.00  0.00    +0.000 A 
ATOM      7  O   UNL     1       3.545   6.568  17.594  0.00  0.00    +0.000 OA
ATOM      8  C   UNL     1       2.759   7.430  18.291  0.00  0.00    +0.000 A 
ATOM      9  C   UNL     1       2.375   8.691  17.845  0.00  0.00    +0.000 A 
ATOM     10  C   UNL     1       1.555   9.431  18.700  0.00  0.00    +0.000 A 
ATOM     11  C   UNL     1       1.157   8.921  19.940  0.00  0.00    +0.000 A 
ATOM     12  C   UNL     1       1.563   7.643  20.363  0.00  0.00    +0.000 A 
ATOM     13  C   UNL     1       2.382   6.879  19.512  0.00  0.00    +0.000 A 
ENDROOT
BRANCH   1  17
ATOM     14  C   UNL     1       6.334   4.624  16.369  0.00  0.00    +0.000 C 
ATOM     15  C   UNL     1       5.649   4.864  15.014  0.00  0.00    +0.000 C 
ATOM     16  C   UNL     1       4.532   3.958  15.531  0.00  0.00    +0.000 C 
ATOM     17  N   UNL     1       5.071   4.144  16.843  0.00  0.00    +0.000 N 
BRANCH  14  24
ATOM     18  F   UNL     1       7.773   4.352  18.960  0.00  0.00    +0.000 F 
ATOM     19  C   UNL     1       7.708   5.575  18.413  0.00  0.00    +0.000 A 
ATOM     20  C   UNL     1       8.308   6.628  19.111  0.00  0.00    +0.000 A 
ATOM     21  C   UNL     1       8.260   7.922  18.601  0.00  0.00    +0.000 A 
ATOM     22  C   UNL     1       7.605   8.156  17.399  0.00  0.00    +0.000 A 
ATOM     23  C   UNL     1       7.012   7.092  16.713  0.00  0.00    +0.000 A 
ATOM     24  C   UNL     1       7.042   5.758  17.190  0.00  0.00    +0.000 A 
ENDBRANCH  14  24
ENDBRANCH   1  17
TORSDOF 2
ENDMDL
MODEL 7
REMARK VINA RESULT:      -7.6      1.819      6.305
REMARK  Name = 
REMARK  2 active torsions:
REMARK  status: ('A' for Active; 'I' for Inactive)
REMARK    1  A    between atoms: C_7  and  C_8
REMARK    2  A    between atoms: N_11  and  C_12
REMARK                            x       y       z     vdW  Elec       q    Type
REMARK                         _______ _______ _______ _____ _____    ______ ____
ROOT
ATOM      1  C   UNL     1       5.083   6.211  18.089  0.00  0.00    +0.000 A 
ATOM      2  N   UNL     1       4.517   7.270  17.456  0.00  0.00    +0.000 NA
ATOM      3  C   UNL     1       3.172   7.404  17.472  0.00  0.00    +0.000 A 
ATOM      4  N   UNL     1       2.261   6.625  18.085  0.00  0.00    +0.000 NA
ATOM      5  C   UNL     1       2.828   5.597  18.760  0.00  0.00    +0.000 A 
ATOM      6  C   UNL     1       4.194   5.378  18.769  0.00  0.00    +0.000 A 
ATOM      7  O   UNL     1       4.499   4.287  19.529  0.00  0.00    +0.000 OA
ATOM      8  C   UNL     1       3.325   3.814  20.022  0.00  0.00    +0.000 A 
ATOM      9  C   UNL     1       3.205   2.718  20.872  0.00  0.00    +0.000 A 
ATOM     10  C   UNL     1       1.912   2.387  21.283  0.00  0.00    +0.000 A 
ATOM     11  C   UNL     1       0.805   3.121  20.846  0.00  0.00    +0.000 A 
ATOM     12  C   UNL     1       0.958   4.223  19.986  0.00  0.00    +0.000 A 
ATOM     13  C   UNL     1       2.254   4.579  19.569  0.00  0.00    +0.000 A 
ENDROOT
BRANCH   1  17
ATOM     14  C   UNL     1       7.402   5.519  17.099  0.00  0.00    +0.000 C 
ATOM     15  C   UNL     1       8.052   4.686  18.216  0.00  0.00    +0.000 C 
ATOM     16  C   UNL     1       7.264   5.560  19.190  0.00  0.00    +0.000 C 
ATOM     17  N   UNL     1       6.459   5.968  18.079  0.00  0.00    +0.000 N 
BRANCH  14  24
ATOM     18  F   UNL     1       5.347   3.382  16.836  0.00  0.00    +0.000 F 
ATOM     19  C   UNL     1       5.867   3.884  15.706  0.00  0.00    +0.000 A 
ATOM     20  C   UNL     1       5.414   3.352  14.494  0.00  0.00    +0.000 A 
ATOM     21  C   UNL     1       5.928   3.822  13.289  0.00  0.00    +0.000 A 
ATOM     22  C   UNL     1       6.898   4.815  13.304  0.00  0.00    +0.000 A 
ATOM     23  C   UNL     1       7.339   5.336  14.524  0.00  0.00    +0.000 A 
ATOM     24  C   UNL     1       6.839   4.894  15.773  0.00  0.00    +0.000 A 
ENDBRANCH  14  24
ENDBRANCH   1  17
TORSDOF 2
ENDMDL
MODEL 8
REMARK VINA RESULT:      -7.6      5.517      8.586
REMARK  Name = 
REMARK  2 active torsions:
REMARK  status: ('A' for Active; 'I' for Inactive)
REMARK    1  A    between atoms: C_7  and  C_8
REMARK    2  A    between atoms: N_11  and  C_12
REMARK                            x       y       z     vdW  Elec       q    Type
REMARK                         _______ _______ _______ _____ _____    ______ ____
ROOT
ATOM      1  C   UNL     1       0.142  11.249  21.008  0.00  0.00    +0.000 A 
ATOM      2  N   UNL     1      -0.302  11.172  22.289  0.00  0.00    +0.000 NA
ATOM      3  C   UNL     1      -0.221   9.993  22.943  0.00  0.00    +0.000 A 
ATOM      4  N   UNL     1       0.295   8.828  22.508  0.00  0.00    +0.000 NA
ATOM      5  C   UNL     1       0.784   8.916  21.249  0.00  0.00    +0.000 A 
ATOM      6  C   UNL     1       0.715  10.081  20.504  0.00  0.00    +0.000 A 
ATOM      7  O   UNL     1       1.288   9.901  19.280  0.00  0.00    +0.000 OA
ATOM      8  C   UNL     1       1.741   8.621  19.244  0.00  0.00    +0.000 A 
ATOM      9  C   UNL     1       2.416   8.048  18.170  0.00  0.00    +0.000 A 
ATOM     10  C   UNL     1       2.814   6.718  18.323  0.00  0.00    +0.000 A 
ATOM     11  C   UNL     1       2.532   6.009  19.495  0.00  0.00    +0.000 A 
ATOM     12  C   UNL     1       1.847   6.616  20.563  0.00  0.00    +0.000 A 
ATOM     13  C   UNL     1       1.446   7.959  20.432  0.00  0.00    +0.000 A 
ENDROOT
BRANCH   1  17
ATOM     14  C   UNL     1      -0.828  12.881  19.210  0.00  0.00    +0.000 C 
ATOM     15  C   UNL     1       0.418  13.455  18.516  0.00  0.00    +0.000 C 
ATOM     16  C   UNL     1       1.128  13.272  19.856  0.00  0.00    +0.000 C 
ATOM     17  N   UNL     1       0.050  12.414  20.241  0.00  0.00    +0.000 N 
BRANCH  14  24
ATOM     18  F   UNL     1      -3.766  12.615  19.597  0.00  0.00    +0.000 F 
ATOM     19  C   UNL     1      -3.172  11.755  18.756  0.00  0.00    +0.000 A 
ATOM     20  C   UNL     1      -3.977  10.793  18.140  0.00  0.00    +0.000 A 
ATOM     21  C   UNL     1      -3.415   9.864  17.269  0.00  0.00    +0.000 A 
ATOM     22  C   UNL     1      -2.048   9.900  17.026  0.00  0.00    +0.000 A 
ATOM     23  C   UNL     1      -1.258  10.869  17.649  0.00  0.00    +0.000 A 
ATOM     24  C   UNL     1      -1.788  11.838  18.537  0.00  0.00    +0.000 A 
ENDBRANCH  14  24
ENDBRANCH   1  17
TORSDOF 2
ENDMDL
MODEL 9
REMARK VINA RESULT:      -7.3      2.067      6.280
REMARK  Name = 
REMARK  2 active torsions:
REMARK  status: ('A' for Active; 'I' for Inactive)
REMARK    1  A    between atoms: C_7  and  C_8
REMARK    2  A    between atoms: N_11  and  C_12
REMARK                            x       y       z     vdW  Elec       q    Type
REMARK                         _______ _______ _______ _____ _____    ______ ____
ROOT
ATOM      1  C   UNL     1       5.119   6.190  17.956  0.00  0.00    +0.000 A 
ATOM      2  N   UNL     1       4.551   7.274  17.368  0.00  0.00    +0.000 NA
ATOM      3  C   UNL     1       3.213   7.442  17.454  0.00  0.00    +0.000 A 
ATOM      4  N   UNL     1       2.313   6.676  18.100  0.00  0.00    +0.000 NA
ATOM      5  C   UNL     1       2.885   5.623  18.729  0.00  0.00    +0.000 A 
ATOM      6  C   UNL     1       4.244   5.368  18.666  0.00  0.00    +0.000 A 
ATOM      7  O   UNL     1       4.557   4.258  19.393  0.00  0.00    +0.000 OA
ATOM      8  C   UNL     1       3.397   3.806  19.937  0.00  0.00    +0.000 A 
ATOM      9  C   UNL     1       3.291   2.700  20.775  0.00  0.00    +0.000 A 
ATOM     10  C   UNL     1       2.011   2.394  21.244  0.00  0.00    +0.000 A 
ATOM     11  C   UNL     1       0.903   3.164  20.875  0.00  0.00    +0.000 A 
ATOM     12  C   UNL     1       1.043   4.276  20.026  0.00  0.00    +0.000 A 
ATOM     13  C   UNL     1       2.325   4.605  19.550  0.00  0.00    +0.000 A 
ENDROOT
BRANCH   1  17
ATOM     14  C   UNL     1       7.364   5.435  16.847  0.00  0.00    +0.000 C 
ATOM     15  C   UNL     1       8.052   4.592  17.932  0.00  0.00    +0.000 C 
ATOM     16  C   UNL     1       7.339   5.489  18.943  0.00  0.00    +0.000 C 
ATOM     17  N   UNL     1       6.487   5.912  17.874  0.00  0.00    +0.000 N 
BRANCH  14  24
ATOM     18  F   UNL     1       8.347   5.655  14.047  0.00  0.00    +0.000 F 
ATOM     19  C   UNL     1       7.221   4.955  14.255  0.00  0.00    +0.000 A 
ATOM     20  C   UNL     1       6.591   4.398  13.138  0.00  0.00    +0.000 A 
ATOM     21  C   UNL     1       5.412   3.674  13.290  0.00  0.00    +0.000 A 
ATOM     22  C   UNL     1       4.867   3.519  14.557  0.00  0.00    +0.000 A 
ATOM     23  C   UNL     1       5.510   4.081  15.663  0.00  0.00    +0.000 A 
ATOM     24  C   UNL     1       6.715   4.819  15.557  0.00  0.00    +0.000 A 
ENDBRANCH  14  24
ENDBRANCH   1  17
TORSDOF 2
ENDMDL
