MODEL 1
REMARK VINA RESULT:      -7.5      0.000      0.000
REMARK  Name = 
REMARK  3 active torsions:
REMARK  status: ('A' for Active; 'I' for Inactive)
REMARK    1  A    between atoms: C_2  and  C_18
REMARK    2  A    between atoms: C_6  and  N_7
REMARK    3  A    between atoms: C_18  and  C_19
REMARK                            x       y       z     vdW  Elec       q    Type
REMARK                         _______ _______ _______ _____ _____    ______ ____
ROOT
ATOM      1  O   UNL     1       5.327   4.176  19.446  0.00  0.00    +0.000 OA
ATOM      2  C   UNL     1       5.309   5.092  18.633  0.00  0.00    +0.000 C 
ATOM      3  N   UNL     1       4.258   5.978  18.500  0.00  0.00    +0.000 N 
ATOM      4  C   UNL     1       3.108   5.954  19.382  0.00  0.00    +0.000 C 
ATOM      5  C   UNL     1       1.985   6.542  18.541  0.00  0.00    +0.000 C 
ATOM      6  C   UNL     1       2.688   7.576  17.658  0.00  0.00    +0.000 C 
ATOM      7  C   UNL     1       4.072   6.939  17.422  0.00  0.00    +0.000 C 
ENDROOT
BRANCH   6   8
ATOM      8  N   UNL     1       2.793   8.882  18.323  0.00  0.00    +0.000 N 
ATOM      9  C   UNL     1       1.740   9.781  18.325  0.00  0.00    +0.000 A 
ATOM     10  C   UNL     1       2.058  11.237  18.497  0.00  0.00    +0.000 A 
ATOM     11  C   UNL     1       1.061  12.131  18.473  0.00  0.00    +0.000 A 
ATOM     12  C   UNL     1      -0.260  11.675  18.310  0.00  0.00    +0.000 A 
ATOM     13  N   UNL     1      -1.403  12.321  18.252  0.00  0.00    +0.000 NA
ATOM     14  C   UNL     1      -2.356  11.345  18.080  0.00  0.00    +0.000 A 
ATOM     15  C   UNL     1      -1.779  10.098  18.026  0.00  0.00    +0.000 A 
ATOM     16  N   UNL     1      -0.435  10.308  18.173  0.00  0.00    +0.000 N 
ATOM     17  N   UNL     1       0.519   9.338  18.166  0.00  0.00    +0.000 NA
ATOM     18  H   UNL     1       3.718   9.296  18.280  0.00  0.00    +0.000 HD
ENDBRANCH   6   8
BRANCH   2  19
ATOM     19  C   UNL     1       6.516   5.340  17.751  0.00  0.00    +0.000 C 
ATOM     20  C   UNL     1       7.920   5.212  18.377  0.00  0.00    +0.000 C 
ATOM     21  C   UNL     1       7.344   6.564  18.158  0.00  0.00    +0.000 C 
BRANCH  19  22
ATOM     22  C   UNL     1       6.508   4.763  16.328  0.00  0.00    +0.000 A 
ATOM     23  C   UNL     1       7.382   5.279  15.349  0.00  0.00    +0.000 A 
ATOM     24  C   UNL     1       7.239   4.961  13.994  0.00  0.00    +0.000 A 
ATOM     25  C   UNL     1       6.222   4.105  13.583  0.00  0.00    +0.000 A 
ATOM     26  C   UNL     1       5.393   3.519  14.535  0.00  0.00    +0.000 A 
ATOM     27  C   UNL     1       5.555   3.831  15.885  0.00  0.00    +0.000 A 
ATOM     28  F   UNL     1       4.733   3.246  16.768  0.00  0.00    +0.000 F 
ENDBRANCH  19  22
ENDBRANCH   2  19
TORSDOF 3
ENDMDL
MODEL 2
REMARK VINA RESULT:      -7.3      3.856      8.856
REMARK  Name = 
REMARK  3 active torsions:
REMARK  status: ('A' for Active; 'I' for Inactive)
REMARK    1  A    between atoms: C_2  and  C_18
REMARK    2  A    between atoms: C_6  and  N_7
REMARK    3  A    between atoms: C_18  and  C_19
REMARK                            x       y       z     vdW  Elec       q    Type
REMARK                         _______ _______ _______ _____ _____    ______ ____
ROOT
ATOM      1  O   UNL     1      -1.562  11.363  21.596  0.00  0.00    +0.000 OA
ATOM      2  C   UNL     1      -0.852  10.974  20.678  0.00  0.00    +0.000 C 
ATOM      3  N   UNL     1       0.026   9.913  20.783  0.00  0.00    +0.000 N 
ATOM      4  C   UNL     1       0.121   9.101  21.981  0.00  0.00    +0.000 C 
ATOM      5  C   UNL     1       1.545   8.569  21.956  0.00  0.00    +0.000 C 
ATOM      6  C   UNL     1       1.846   8.390  20.465  0.00  0.00    +0.000 C 
ATOM      7  C   UNL     1       1.049   9.541  19.817  0.00  0.00    +0.000 C 
ENDROOT
BRANCH   6   8
ATOM      8  N   UNL     1       1.409   7.077  19.973  0.00  0.00    +0.000 N 
ATOM      9  C   UNL     1       2.279   6.225  19.311  0.00  0.00    +0.000 A 
ATOM     10  C   UNL     1       1.693   5.212  18.374  0.00  0.00    +0.000 A 
ATOM     11  C   UNL     1       2.513   4.395  17.699  0.00  0.00    +0.000 A 
ATOM     12  C   UNL     1       3.900   4.498  17.907  0.00  0.00    +0.000 A 
ATOM     13  N   UNL     1       4.910   3.836  17.388  0.00  0.00    +0.000 NA
ATOM     14  C   UNL     1       6.030   4.378  17.972  0.00  0.00    +0.000 A 
ATOM     15  C   UNL     1       5.691   5.384  18.846  0.00  0.00    +0.000 A 
ATOM     16  N   UNL     1       4.326   5.462  18.806  0.00  0.00    +0.000 N 
ATOM     17  N   UNL     1       3.566   6.340  19.514  0.00  0.00    +0.000 NA
ATOM     18  H   UNL     1       0.448   7.053  19.650  0.00  0.00    +0.000 HD
ENDBRANCH   6   8
BRANCH   2  19
ATOM     19  C   UNL     1      -0.961  11.625  19.313  0.00  0.00    +0.000 C 
ATOM     20  C   UNL     1       0.339  12.010  18.579  0.00  0.00    +0.000 C 
ATOM     21  C   UNL     1      -0.445  13.067  19.269  0.00  0.00    +0.000 C 
BRANCH  19  22
ATOM     22  C   UNL     1      -1.994  11.068  18.323  0.00  0.00    +0.000 A 
ATOM     23  C   UNL     1      -1.604  10.127  17.347  0.00  0.00    +0.000 A 
ATOM     24  C   UNL     1      -2.441   9.784  16.280  0.00  0.00    +0.000 A 
ATOM     25  C   UNL     1      -3.700  10.365  16.168  0.00  0.00    +0.000 A 
ATOM     26  C   UNL     1      -4.143  11.237  17.158  0.00  0.00    +0.000 A 
ATOM     27  C   UNL     1      -3.305  11.560  18.226  0.00  0.00    +0.000 A 
ATOM     28  F   UNL     1      -3.771  12.407  19.156  0.00  0.00    +0.000 F 
ENDBRANCH  19  22
ENDBRANCH   2  19
TORSDOF 3
ENDMDL
MODEL 3
REMARK VINA RESULT:      -7.3      3.755      8.834
REMARK  Name = 
REMARK  3 active torsions:
REMARK  status: ('A' for Active; 'I' for Inactive)
REMARK    1  A    between atoms: C_2  and  C_18
REMARK    2  A    between atoms: C_6  and  N_7
REMARK    3  A    between atoms: C_18  and  C_19
REMARK                            x       y       z     vdW  Elec       q    Type
REMARK                         _______ _______ _______ _____ _____    ______ ____
ROOT
ATOM      1  O   UNL     1      -1.558  11.217  21.065  0.00  0.00    +0.000 OA
ATOM      2  C   UNL     1      -0.744  10.768  20.269  0.00  0.00    +0.000 C 
ATOM      3  N   UNL     1       0.067   9.681  20.532  0.00  0.00    +0.000 N 
ATOM      4  C   UNL     1      -0.039   8.914  21.758  0.00  0.00    +0.000 C 
ATOM      5  C   UNL     1       1.352   8.331  21.951  0.00  0.00    +0.000 C 
ATOM      6  C   UNL     1       1.850   8.083  20.524  0.00  0.00    +0.000 C 
ATOM      7  C   UNL     1       1.199   9.235  19.732  0.00  0.00    +0.000 C 
ENDROOT
BRANCH   6   8
ATOM      8  N   UNL     1       1.433   6.768  20.019  0.00  0.00    +0.000 N 
ATOM      9  C   UNL     1       2.278   5.986  19.249  0.00  0.00    +0.000 A 
ATOM     10  C   UNL     1       1.657   4.979  18.327  0.00  0.00    +0.000 A 
ATOM     11  C   UNL     1       2.450   4.229  17.549  0.00  0.00    +0.000 A 
ATOM     12  C   UNL     1       3.844   4.395  17.636  0.00  0.00    +0.000 A 
ATOM     13  N   UNL     1       4.832   3.804  17.003  0.00  0.00    +0.000 NA
ATOM     14  C   UNL     1       5.974   4.381  17.506  0.00  0.00    +0.000 A 
ATOM     15  C   UNL     1       5.669   5.336  18.447  0.00  0.00    +0.000 A 
ATOM     16  N   UNL     1       4.304   5.347  18.532  0.00  0.00    +0.000 N 
ATOM     17  N   UNL     1       3.571   6.158  19.340  0.00  0.00    +0.000 NA
ATOM     18  H   UNL     1       0.449   6.707  19.783  0.00  0.00    +0.000 HD
ENDBRANCH   6   8
BRANCH   2  19
ATOM     19  C   UNL     1      -0.636  11.369  18.882  0.00  0.00    +0.000 C 
ATOM     20  C   UNL     1      -1.921  11.505  18.041  0.00  0.00    +0.000 C 
ATOM     21  C   UNL     1      -0.980  10.392  17.752  0.00  0.00    +0.000 C 
BRANCH  19  22
ATOM     22  C   UNL     1       0.265  12.596  18.689  0.00  0.00    +0.000 A 
ATOM     23  C   UNL     1       1.563  12.447  18.158  0.00  0.00    +0.000 A 
ATOM     24  C   UNL     1       2.498  13.487  18.196  0.00  0.00    +0.000 A 
ATOM     25  C   UNL     1       2.154  14.713  18.757  0.00  0.00    +0.000 A 
ATOM     26  C   UNL     1       0.856  14.916  19.218  0.00  0.00    +0.000 A 
ATOM     27  C   UNL     1      -0.072  13.875  19.160  0.00  0.00    +0.000 A 
ATOM     28  F   UNL     1      -1.310  14.114  19.618  0.00  0.00    +0.000 F 
ENDBRANCH  19  22
ENDBRANCH   2  19
TORSDOF 3
ENDMDL
MODEL 4
REMARK VINA RESULT:      -7.2      2.225      2.515
REMARK  Name = 
REMARK  3 active torsions:
REMARK  status: ('A' for Active; 'I' for Inactive)
REMARK    1  A    between atoms: C_2  and  C_18
REMARK    2  A    between atoms: C_6  and  N_7
REMARK    3  A    between atoms: C_18  and  C_19
REMARK                            x       y       z     vdW  Elec       q    Type
REMARK                         _______ _______ _______ _____ _____    ______ ____
ROOT
ATOM      1  O   UNL     1       5.074   2.767  19.660  0.00  0.00    +0.000 OA
ATOM      2  C   UNL     1       4.748   3.909  19.360  0.00  0.00    +0.000 C 
ATOM      3  N   UNL     1       3.567   4.500  19.765  0.00  0.00    +0.000 N 
ATOM      4  C   UNL     1       2.640   3.843  20.666  0.00  0.00    +0.000 C 
ATOM      5  C   UNL     1       1.291   4.453  20.318  0.00  0.00    +0.000 C 
ATOM      6  C   UNL     1       1.629   5.895  19.927  0.00  0.00    +0.000 C 
ATOM      7  C   UNL     1       3.017   5.754  19.270  0.00  0.00    +0.000 C 
ENDROOT
BRANCH   6   8
ATOM      8  N   UNL     1       1.663   6.784  21.095  0.00  0.00    +0.000 N 
ATOM      9  C   UNL     1       1.195   8.086  21.029  0.00  0.00    +0.000 A 
ATOM     10  C   UNL     1       1.743   9.081  22.009  0.00  0.00    +0.000 A 
ATOM     11  C   UNL     1       1.329  10.354  21.949  0.00  0.00    +0.000 A 
ATOM     12  C   UNL     1       0.375  10.715  20.981  0.00  0.00    +0.000 A 
ATOM     13  N   UNL     1      -0.193  11.868  20.706  0.00  0.00    +0.000 NA
ATOM     14  C   UNL     1      -1.042  11.607  19.656  0.00  0.00    +0.000 A 
ATOM     15  C   UNL     1      -0.977  10.283  19.290  0.00  0.00    +0.000 A 
ATOM     16  N   UNL     1      -0.069   9.710  20.137  0.00  0.00    +0.000 N 
ATOM     17  N   UNL     1       0.311   8.404  20.119  0.00  0.00    +0.000 NA
ATOM     18  H   UNL     1       2.462   6.640  21.703  0.00  0.00    +0.000 HD
ENDBRANCH   6   8
BRANCH   2  19
ATOM     19  C   UNL     1       5.695   4.776  18.556  0.00  0.00    +0.000 C 
ATOM     20  C   UNL     1       7.190   4.774  18.934  0.00  0.00    +0.000 C 
ATOM     21  C   UNL     1       6.334   5.912  19.361  0.00  0.00    +0.000 C 
BRANCH  19  22
ATOM     22  C   UNL     1       5.527   4.815  17.030  0.00  0.00    +0.000 A 
ATOM     23  C   UNL     1       5.820   3.673  16.255  0.00  0.00    +0.000 A 
ATOM     24  C   UNL     1       5.919   3.736  14.861  0.00  0.00    +0.000 A 
ATOM     25  C   UNL     1       5.714   4.944  14.202  0.00  0.00    +0.000 A 
ATOM     26  C   UNL     1       5.346   6.070  14.933  0.00  0.00    +0.000 A 
ATOM     27  C   UNL     1       5.234   5.991  16.322  0.00  0.00    +0.000 A 
ATOM     28  F   UNL     1       4.880   7.101  16.986  0.00  0.00    +0.000 F 
ENDBRANCH  19  22
ENDBRANCH   2  19
TORSDOF 3
ENDMDL
MODEL 5
REMARK VINA RESULT:      -7.1      7.280      9.813
REMARK  Name = 
REMARK  3 active torsions:
REMARK  status: ('A' for Active; 'I' for Inactive)
REMARK    1  A    between atoms: C_2  and  C_18
REMARK    2  A    between atoms: C_6  and  N_7
REMARK    3  A    between atoms: C_18  and  C_19
REMARK                            x       y       z     vdW  Elec       q    Type
REMARK                         _______ _______ _______ _____ _____    ______ ____
ROOT
ATOM      1  O   UNL     1       0.102  10.212  18.291  0.00  0.00    +0.000 OA
ATOM      2  C   UNL     1      -0.835  10.986  18.439  0.00  0.00    +0.000 C 
ATOM      3  N   UNL     1      -2.034  10.877  17.761  0.00  0.00    +0.000 N 
ATOM      4  C   UNL     1      -2.322   9.770  16.869  0.00  0.00    +0.000 C 
ATOM      5  C   UNL     1      -3.329  10.342  15.884  0.00  0.00    +0.000 C 
ATOM      6  C   UNL     1      -4.140  11.337  16.720  0.00  0.00    +0.000 C 
ATOM      7  C   UNL     1      -3.094  11.874  17.718  0.00  0.00    +0.000 C 
ENDROOT
BRANCH   6   8
ATOM      8  N   UNL     1      -5.266  10.688  17.403  0.00  0.00    +0.000 N 
ATOM      9  C   UNL     1      -5.965  11.324  18.415  0.00  0.00    +0.000 A 
ATOM     10  C   UNL     1      -6.683  10.471  19.418  0.00  0.00    +0.000 A 
ATOM     11  C   UNL     1      -7.342  11.060  20.425  0.00  0.00    +0.000 A 
ATOM     12  C   UNL     1      -7.359  12.464  20.499  0.00  0.00    +0.000 A 
ATOM     13  N   UNL     1      -7.917  13.284  21.361  0.00  0.00    +0.000 NA
ATOM     14  C   UNL     1      -7.591  14.544  20.919  0.00  0.00    +0.000 A 
ATOM     15  C   UNL     1      -6.821  14.482  19.781  0.00  0.00    +0.000 A 
ATOM     16  N   UNL     1      -6.671  13.150  19.510  0.00  0.00    +0.000 N 
ATOM     17  N   UNL     1      -5.965  12.631  18.470  0.00  0.00    +0.000 NA
ATOM     18  H   UNL     1      -5.164   9.684  17.510  0.00  0.00    +0.000 HD
ENDBRANCH   6   8
BRANCH   2  19
ATOM     19  C   UNL     1      -0.738  12.101  19.461  0.00  0.00    +0.000 C 
ATOM     20  C   UNL     1      -0.712  13.558  18.955  0.00  0.00    +0.000 C 
ATOM     21  C   UNL     1       0.560  12.912  19.374  0.00  0.00    +0.000 C 
BRANCH  19  22
ATOM     22  C   UNL     1      -1.580  11.991  20.739  0.00  0.00    +0.000 A 
ATOM     23  C   UNL     1      -2.803  12.685  20.844  0.00  0.00    +0.000 A 
ATOM     24  C   UNL     1      -3.474  12.812  22.066  0.00  0.00    +0.000 A 
ATOM     25  C   UNL     1      -2.943  12.236  23.216  0.00  0.00    +0.000 A 
ATOM     26  C   UNL     1      -1.779  11.479  23.128  0.00  0.00    +0.000 A 
ATOM     27  C   UNL     1      -1.127  11.346  21.901  0.00  0.00    +0.000 A 
ATOM     28  F   UNL     1      -0.007  10.610  21.863  0.00  0.00    +0.000 F 
ENDBRANCH  19  22
ENDBRANCH   2  19
TORSDOF 3
ENDMDL
MODEL 6
REMARK VINA RESULT:      -7.0      4.004      7.019
REMARK  Name = 
REMARK  3 active torsions:
REMARK  status: ('A' for Active; 'I' for Inactive)
REMARK    1  A    between atoms: C_2  and  C_18
REMARK    2  A    between atoms: C_6  and  N_7
REMARK    3  A    between atoms: C_18  and  C_19
REMARK                            x       y       z     vdW  Elec       q    Type
REMARK                         _______ _______ _______ _____ _____    ______ ____
ROOT
ATOM      1  O   UNL     1       3.995   4.083  16.716  0.00  0.00    +0.000 OA
ATOM      2  C   UNL     1       4.240   5.063  17.407  0.00  0.00    +0.000 C 
ATOM      3  N   UNL     1       5.478   5.673  17.461  0.00  0.00    +0.000 N 
ATOM      4  C   UNL     1       6.586   5.254  16.625  0.00  0.00    +0.000 C 
ATOM      5  C   UNL     1       7.820   5.650  17.420  0.00  0.00    +0.000 C 
ATOM      6  C   UNL     1       7.396   6.931  18.145  0.00  0.00    +0.000 C 
ATOM      7  C   UNL     1       5.898   6.689  18.416  0.00  0.00    +0.000 C 
ENDROOT
BRANCH   6   8
ATOM      8  N   UNL     1       7.618   8.126  17.318  0.00  0.00    +0.000 N 
ATOM      9  C   UNL     1       8.126   9.296  17.858  0.00  0.00    +0.000 A 
ATOM     10  C   UNL     1       7.813  10.586  17.159  0.00  0.00    +0.000 A 
ATOM     11  C   UNL     1       8.268  11.735  17.675  0.00  0.00    +0.000 A 
ATOM     12  C   UNL     1       9.044  11.696  18.847  0.00  0.00    +0.000 A 
ATOM     13  N   UNL     1       9.606  12.653  19.552  0.00  0.00    +0.000 NA
ATOM     14  C   UNL     1      10.235  12.009  20.591  0.00  0.00    +0.000 A 
ATOM     15  C   UNL     1      10.043  10.650  20.516  0.00  0.00    +0.000 A 
ATOM     16  N   UNL     1       9.280  10.447  19.398  0.00  0.00    +0.000 N 
ATOM     17  N   UNL     1       8.842   9.240  18.951  0.00  0.00    +0.000 NA
ATOM     18  H   UNL     1       6.938   8.249  16.576  0.00  0.00    +0.000 HD
ENDBRANCH   6   8
BRANCH   2  19
ATOM     19  C   UNL     1       3.133   5.712  18.214  0.00  0.00    +0.000 C 
ATOM     20  C   UNL     1       2.195   6.708  17.502  0.00  0.00    +0.000 C 
ATOM     21  C   UNL     1       3.284   7.229  18.369  0.00  0.00    +0.000 C 
BRANCH  19  22
ATOM     22  C   UNL     1       2.342   4.838  19.198  0.00  0.00    +0.000 A 
ATOM     23  C   UNL     1       2.643   4.872  20.575  0.00  0.00    +0.000 A 
ATOM     24  C   UNL     1       2.126   3.923  21.464  0.00  0.00    +0.000 A 
ATOM     25  C   UNL     1       1.280   2.921  20.999  0.00  0.00    +0.000 A 
ATOM     26  C   UNL     1       0.903   2.909  19.660  0.00  0.00    +0.000 A 
ATOM     27  C   UNL     1       1.413   3.870  18.785  0.00  0.00    +0.000 A 
ATOM     28  F   UNL     1       1.024   3.820  17.503  0.00  0.00    +0.000 F 
ENDBRANCH  19  22
ENDBRANCH   2  19
TORSDOF 3
ENDMDL
MODEL 7
REMARK VINA RESULT:      -7.0      6.437      9.008
REMARK  Name = 
REMARK  3 active torsions:
REMARK  status: ('A' for Active; 'I' for Inactive)
REMARK    1  A    between atoms: C_2  and  C_18
REMARK    2  A    between atoms: C_6  and  N_7
REMARK    3  A    between atoms: C_18  and  C_19
REMARK                            x       y       z     vdW  Elec       q    Type
REMARK                         _______ _______ _______ _____ _____    ______ ____
ROOT
ATOM      1  O   UNL     1      -0.235   9.170  17.397  0.00  0.00    +0.000 OA
ATOM      2  C   UNL     1      -0.786  10.092  17.983  0.00  0.00    +0.000 C 
ATOM      3  N   UNL     1      -2.092  10.478  17.750  0.00  0.00    +0.000 N 
ATOM      4  C   UNL     1      -2.962   9.757  16.841  0.00  0.00    +0.000 C 
ATOM      5  C   UNL     1      -3.956  10.808  16.371  0.00  0.00    +0.000 C 
ATOM      6  C   UNL     1      -4.130  11.722  17.587  0.00  0.00    +0.000 C 
ATOM      7  C   UNL     1      -2.734  11.689  18.240  0.00  0.00    +0.000 C 
ENDROOT
BRANCH   6   8
ATOM      8  N   UNL     1      -5.172  11.229  18.497  0.00  0.00    +0.000 N 
ATOM      9  C   UNL     1      -5.892  12.089  19.309  0.00  0.00    +0.000 A 
ATOM     10  C   UNL     1      -6.500  11.531  20.561  0.00  0.00    +0.000 A 
ATOM     11  C   UNL     1      -7.176  12.348  21.380  0.00  0.00    +0.000 A 
ATOM     12  C   UNL     1      -7.316  13.702  21.028  0.00  0.00    +0.000 A 
ATOM     13  N   UNL     1      -7.917  14.702  21.634  0.00  0.00    +0.000 NA
ATOM     14  C   UNL     1      -7.718  15.788  20.815  0.00  0.00    +0.000 A 
ATOM     15  C   UNL     1      -6.982  15.440  19.707  0.00  0.00    +0.000 A 
ATOM     16  N   UNL     1      -6.723  14.103  19.842  0.00  0.00    +0.000 N 
ATOM     17  N   UNL     1      -6.007  13.347  18.967  0.00  0.00    +0.000 NA
ATOM     18  H   UNL     1      -4.978  10.317  18.895  0.00  0.00    +0.000 HD
ENDBRANCH   6   8
BRANCH   2  19
ATOM     19  C   UNL     1      -0.049  10.835  19.080  0.00  0.00    +0.000 C 
ATOM     20  C   UNL     1       0.132  12.360  18.937  0.00  0.00    +0.000 C 
ATOM     21  C   UNL     1       1.274  11.461  18.627  0.00  0.00    +0.000 C 
BRANCH  19  22
ATOM     22  C   UNL     1      -0.350  10.463  20.539  0.00  0.00    +0.000 A 
ATOM     23  C   UNL     1      -1.104  11.336  21.351  0.00  0.00    +0.000 A 
ATOM     24  C   UNL     1      -1.191  11.159  22.737  0.00  0.00    +0.000 A 
ATOM     25  C   UNL     1      -0.535  10.094  23.346  0.00  0.00    +0.000 A 
ATOM     26  C   UNL     1       0.151   9.172  22.561  0.00  0.00    +0.000 A 
ATOM     27  C   UNL     1       0.218   9.350  21.178  0.00  0.00    +0.000 A 
ATOM     28  F   UNL     1       0.892   8.439  20.460  0.00  0.00    +0.000 F 
ENDBRANCH  19  22
ENDBRANCH   2  19
TORSDOF 3
ENDMDL
MODEL 8
REMARK VINA RESULT:      -7.0      2.553      3.536
REMARK  Name = 
REMARK  3 active torsions:
REMARK  status: ('A' for Active; 'I' for Inactive)
REMARK    1  A    between atoms: C_2  and  C_18
REMARK    2  A    between atoms: C_6  and  N_7
REMARK    3  A    between atoms: C_18  and  C_19
REMARK                            x       y       z     vdW  Elec       q    Type
REMARK                         _______ _______ _______ _____ _____    ______ ____
ROOT
ATOM      1  O   UNL     1       2.295   3.877  16.853  0.00  0.00    +0.000 OA
ATOM      2  C   UNL     1       2.785   4.427  17.831  0.00  0.00    +0.000 C 
ATOM      3  N   UNL     1       2.361   5.650  18.316  0.00  0.00    +0.000 N 
ATOM      4  C   UNL     1       1.227   6.356  17.753  0.00  0.00    +0.000 C 
ATOM      5  C   UNL     1       1.514   7.818  18.056  0.00  0.00    +0.000 C 
ATOM      6  C   UNL     1       2.243   7.780  19.402  0.00  0.00    +0.000 C 
ATOM      7  C   UNL     1       3.033   6.458  19.323  0.00  0.00    +0.000 C 
ENDROOT
BRANCH   6   8
ATOM      8  N   UNL     1       1.305   7.791  20.532  0.00  0.00    +0.000 N 
ATOM      9  C   UNL     1       0.738   8.968  20.991  0.00  0.00    +0.000 A 
ATOM     10  C   UNL     1       0.272   9.015  22.416  0.00  0.00    +0.000 A 
ATOM     11  C   UNL     1      -0.255  10.150  22.895  0.00  0.00    +0.000 A 
ATOM     12  C   UNL     1      -0.375  11.259  22.039  0.00  0.00    +0.000 A 
ATOM     13  N   UNL     1      -0.845  12.470  22.242  0.00  0.00    +0.000 NA
ATOM     14  C   UNL     1      -0.703  13.116  21.037  0.00  0.00    +0.000 A 
ATOM     15  C   UNL     1      -0.134  12.287  20.099  0.00  0.00    +0.000 A 
ATOM     16  N   UNL     1       0.077  11.097  20.739  0.00  0.00    +0.000 N 
ATOM     17  N   UNL     1       0.639   9.990  20.181  0.00  0.00    +0.000 NA
ATOM     18  H   UNL     1       1.507   7.099  21.245  0.00  0.00    +0.000 HD
ENDBRANCH   6   8
BRANCH   2  19
ATOM     19  C   UNL     1       3.874   3.730  18.622  0.00  0.00    +0.000 C 
ATOM     20  C   UNL     1       3.821   2.194  18.744  0.00  0.00    +0.000 C 
ATOM     21  C   UNL     1       3.372   3.029  19.888  0.00  0.00    +0.000 C 
BRANCH  19  22
ATOM     22  C   UNL     1       5.322   4.205  18.439  0.00  0.00    +0.000 A 
ATOM     23  C   UNL     1       5.976   4.901  19.477  0.00  0.00    +0.000 A 
ATOM     24  C   UNL     1       7.192   5.561  19.268  0.00  0.00    +0.000 A 
ATOM     25  C   UNL     1       7.794   5.532  18.013  0.00  0.00    +0.000 A 
ATOM     26  C   UNL     1       7.212   4.789  16.991  0.00  0.00    +0.000 A 
ATOM     27  C   UNL     1       6.007   4.121  17.216  0.00  0.00    +0.000 A 
ATOM     28  F   UNL     1       5.480   3.418  16.202  0.00  0.00    +0.000 F 
ENDBRANCH  19  22
ENDBRANCH   2  19
TORSDOF 3
ENDMDL
MODEL 9
REMARK VINA RESULT:      -7.0      2.332      3.632
REMARK  Name = 
REMARK  3 active torsions:
REMARK  status: ('A' for Active; 'I' for Inactive)
REMARK    1  A    between atoms: C_2  and  C_18
REMARK    2  A    between atoms: C_6  and  N_7
REMARK    3  A    between atoms: C_18  and  C_19
REMARK                            x       y       z     vdW  Elec       q    Type
REMARK                         _______ _______ _______ _____ _____    ______ ____
ROOT
ATOM      1  O   UNL     1       2.223   5.545  21.096  0.00  0.00    +0.000 OA
ATOM      2  C   UNL     1       2.268   6.086  19.999  0.00  0.00    +0.000 C 
ATOM      3  N   UNL     1       1.873   7.390  19.770  0.00  0.00    +0.000 N 
ATOM      4  C   UNL     1       1.448   8.270  20.841  0.00  0.00    +0.000 C 
ATOM      5  C   UNL     1       0.515   9.259  20.159  0.00  0.00    +0.000 C 
ATOM      6  C   UNL     1       1.110   9.420  18.757  0.00  0.00    +0.000 C 
ATOM      7  C   UNL     1       1.691   8.020  18.471  0.00  0.00    +0.000 C 
ENDROOT
BRANCH   6   8
ATOM      8  N   UNL     1       2.145  10.461  18.718  0.00  0.00    +0.000 N 
ATOM      9  C   UNL     1       1.819  11.808  18.737  0.00  0.00    +0.000 A 
ATOM     10  C   UNL     1       2.802  12.776  18.148  0.00  0.00    +0.000 A 
ATOM     11  C   UNL     1       2.499  14.081  18.126  0.00  0.00    +0.000 A 
ATOM     12  C   UNL     1       1.277  14.507  18.678  0.00  0.00    +0.000 A 
ATOM     13  N   UNL     1       0.741  15.702  18.787  0.00  0.00    +0.000 NA
ATOM     14  C   UNL     1      -0.466  15.496  19.413  0.00  0.00    +0.000 A 
ATOM     15  C   UNL     1      -0.662  14.160  19.676  0.00  0.00    +0.000 A 
ATOM     16  N   UNL     1       0.455  13.525  19.205  0.00  0.00    +0.000 N 
ATOM     17  N   UNL     1       0.676  12.183  19.249  0.00  0.00    +0.000 NA
ATOM     18  H   UNL     1       2.957  10.218  18.162  0.00  0.00    +0.000 HD
ENDBRANCH   6   8
BRANCH   2  19
ATOM     19  C   UNL     1       2.844   5.339  18.813  0.00  0.00    +0.000 C 
ATOM     20  C   UNL     1       1.943   5.108  17.584  0.00  0.00    +0.000 C 
ATOM     21  C   UNL     1       2.167   3.992  18.538  0.00  0.00    +0.000 C 
BRANCH  19  22
ATOM     22  C   UNL     1       4.279   5.667  18.374  0.00  0.00    +0.000 A 
ATOM     23  C   UNL     1       4.513   6.673  17.414  0.00  0.00    +0.000 A 
ATOM     24  C   UNL     1       5.764   6.834  16.808  0.00  0.00    +0.000 A 
ATOM     25  C   UNL     1       6.820   5.998  17.157  0.00  0.00    +0.000 A 
ATOM     26  C   UNL     1       6.640   5.048  18.158  0.00  0.00    +0.000 A 
ATOM     27  C   UNL     1       5.392   4.907  18.767  0.00  0.00    +0.000 A 
ATOM     28  F   UNL     1       5.263   3.977  19.724  0.00  0.00    +0.000 F 
ENDBRANCH  19  22
ENDBRANCH   2  19
TORSDOF 3
ENDMDL
