MODEL 1
REMARK VINA RESULT:      -9.2      0.000      0.000
REMARK  Name = 
REMARK  5 active torsions:
REMARK  status: ('A' for Active; 'I' for Inactive)
REMARK    1  A    between atoms: N_3  and  C_4
REMARK    2  A    between atoms: C_4  and  C_5
REMARK    3  A    between atoms: C_5  and  C_6
REMARK    4  A    between atoms: C_11  and  C_12
REMARK    5  A    between atoms: C_22  and  C_23
REMARK                            x       y       z     vdW  Elec       q    Type
REMARK                         _______ _______ _______ _____ _____    ______ ____
ROOT
ATOM      1  O   UNL     1       2.085   4.426  21.684  0.00  0.00    +0.000 OA
ATOM      2  C   UNL     1       2.217   5.288  20.813  0.00  0.00    +0.000 C 
ATOM      3  N   UNL     1       2.791   5.061  19.606  0.00  0.00    +0.000 N 
ATOM      4  N   UNL     1       1.732   6.550  21.039  0.00  0.00    +0.000 N 
ATOM      5  C   UNL     1       1.780   7.637  20.202  0.00  0.00    +0.000 A 
ATOM      6  C   UNL     1       0.977   8.790  20.364  0.00  0.00    +0.000 A 
ATOM      7  C   UNL     1       1.101   9.455  19.165  0.00  0.00    +0.000 A 
ATOM      8  O   UNL     1       2.107   8.882  18.451  0.00  0.00    +0.000 OA
ATOM      9  N   UNL     1       2.535   7.741  19.100  0.00  0.00    +0.000 NA
ATOM     10  H   UNL     1       3.095   5.910  19.140  0.00  0.00    +0.000 HD
ATOM     11  H   UNL     1       1.192   6.625  21.884  0.00  0.00    +0.000 HD
ENDROOT
BRANCH   7  12
ATOM     12  C   UNL     1       0.294  10.485  18.447  0.00  0.00    +0.000 C 
ATOM     13  C   UNL     1       0.278  11.848  19.134  0.00  0.00    +0.000 C 
ATOM     14  C   UNL     1      -0.631  12.801  18.363  0.00  0.00    +0.000 C 
ATOM     15  O   UNL     1      -1.946  12.258  18.244  0.00  0.00    +0.000 OA
ATOM     16  C   UNL     1      -1.965  11.042  17.501  0.00  0.00    +0.000 C 
ATOM     17  C   UNL     1      -1.136   9.983  18.206  0.00  0.00    +0.000 C 
ENDBRANCH   7  12
BRANCH   3  18
ATOM     18  C   UNL     1       3.604   3.908  19.374  0.00  0.00    +0.000 C 
BRANCH  18  19
ATOM     19  C   UNL     1       3.682   3.354  17.944  0.00  0.00    +0.000 C 
ATOM     20  C   UNL     1       2.435   2.855  17.240  0.00  0.00    +0.000 C 
ATOM     21  C   UNL     1       3.501   1.877  17.644  0.00  0.00    +0.000 C 
BRANCH  19  22
ATOM     22  C   UNL     1       4.723   4.168  17.182  0.00  0.00    +0.000 A 
ATOM     23  C   UNL     1       5.877   4.545  17.885  0.00  0.00    +0.000 A 
ATOM     24  C   UNL     1       7.101   4.538  17.237  0.00  0.00    +0.000 A 
ATOM     25  F   UNL     1       8.222   4.596  17.967  0.00  0.00    +0.000 F 
ATOM     26  C   UNL     1       7.183   4.323  15.869  0.00  0.00    +0.000 A 
ATOM     27  C   UNL     1       6.014   4.182  15.110  0.00  0.00    +0.000 A 
ATOM     28  C   UNL     1       4.778   4.130  15.777  0.00  0.00    +0.000 A 
BRANCH  27  29
ATOM     29  C   UNL     1       6.085   3.994  13.616  0.00  0.00    +0.000 C 
ATOM     30  F   UNL     1       4.897   4.229  12.990  0.00  0.00    +0.000 F 
ATOM     31  F   UNL     1       6.987   4.823  13.021  0.00  0.00    +0.000 F 
ATOM     32  F   UNL     1       6.448   2.730  13.269  0.00  0.00    +0.000 F 
ENDBRANCH  27  29
ENDBRANCH  19  22
ENDBRANCH  18  19
ENDBRANCH   3  18
TORSDOF 5
ENDMDL
MODEL 2
REMARK VINA RESULT:      -9.1      1.025      1.197
REMARK  Name = 
REMARK  5 active torsions:
REMARK  status: ('A' for Active; 'I' for Inactive)
REMARK    1  A    between atoms: N_3  and  C_4
REMARK    2  A    between atoms: C_4  and  C_5
REMARK    3  A    between atoms: C_5  and  C_6
REMARK    4  A    between atoms: C_11  and  C_12
REMARK    5  A    between atoms: C_22  and  C_23
REMARK                            x       y       z     vdW  Elec       q    Type
REMARK                         _______ _______ _______ _____ _____    ______ ____
ROOT
ATOM      1  O   UNL     1       1.747   4.133  21.388  0.00  0.00    +0.000 OA
ATOM      2  C   UNL     1       1.816   4.952  20.469  0.00  0.00    +0.000 C 
ATOM      3  N   UNL     1       1.863   4.614  19.157  0.00  0.00    +0.000 N 
ATOM      4  N   UNL     1       1.810   6.292  20.763  0.00  0.00    +0.000 N 
ATOM      5  C   UNL     1       1.878   7.348  19.890  0.00  0.00    +0.000 A 
ATOM      6  C   UNL     1       1.535   8.677  20.235  0.00  0.00    +0.000 A 
ATOM      7  C   UNL     1       1.432   9.321  19.023  0.00  0.00    +0.000 A 
ATOM      8  O   UNL     1       1.936   8.510  18.054  0.00  0.00    +0.000 OA
ATOM      9  N   UNL     1       2.217   7.272  18.596  0.00  0.00    +0.000 NA
ATOM     10  H   UNL     1       2.220   5.357  18.564  0.00  0.00    +0.000 HD
ATOM     11  H   UNL     1       1.628   6.487  21.732  0.00  0.00    +0.000 HD
ENDROOT
BRANCH   7  12
ATOM     12  C   UNL     1       0.755  10.564  18.549  0.00  0.00    +0.000 C 
ATOM     13  C   UNL     1       1.204  11.829  19.278  0.00  0.00    +0.000 C 
ATOM     14  C   UNL     1       0.400  13.024  18.772  0.00  0.00    +0.000 C 
ATOM     15  O   UNL     1      -1.000  12.795  18.932  0.00  0.00    +0.000 OA
ATOM     16  C   UNL     1      -1.459  11.686  18.163  0.00  0.00    +0.000 C 
ATOM     17  C   UNL     1      -0.771  10.411  18.618  0.00  0.00    +0.000 C 
ENDBRANCH   7  12
BRANCH   3  18
ATOM     18  C   UNL     1       2.192   3.286  18.743  0.00  0.00    +0.000 C 
BRANCH  18  19
ATOM     19  C   UNL     1       3.670   2.868  18.764  0.00  0.00    +0.000 C 
ATOM     20  C   UNL     1       4.067   1.423  18.541  0.00  0.00    +0.000 C 
ATOM     21  C   UNL     1       4.255   2.044  19.895  0.00  0.00    +0.000 C 
BRANCH  19  22
ATOM     22  C   UNL     1       4.484   3.996  18.136  0.00  0.00    +0.000 A 
ATOM     23  C   UNL     1       5.392   4.668  18.969  0.00  0.00    +0.000 A 
ATOM     24  C   UNL     1       6.618   5.062  18.461  0.00  0.00    +0.000 A 
ATOM     25  F   UNL     1       7.588   5.418  19.312  0.00  0.00    +0.000 F 
ATOM     26  C   UNL     1       6.898   4.951  17.107  0.00  0.00    +0.000 A 
ATOM     27  C   UNL     1       5.911   4.503  16.221  0.00  0.00    +0.000 A 
ATOM     28  C   UNL     1       4.689   4.047  16.746  0.00  0.00    +0.000 A 
BRANCH  27  29
ATOM     29  C   UNL     1       6.185   4.420  14.741  0.00  0.00    +0.000 C 
ATOM     30  F   UNL     1       5.171   4.919  13.979  0.00  0.00    +0.000 F 
ATOM     31  F   UNL     1       7.299   5.110  14.370  0.00  0.00    +0.000 F 
ATOM     32  F   UNL     1       6.376   3.141  14.319  0.00  0.00    +0.000 F 
ENDBRANCH  27  29
ENDBRANCH  19  22
ENDBRANCH  18  19
ENDBRANCH   3  18
TORSDOF 5
ENDMDL
MODEL 3
REMARK VINA RESULT:      -9.1      1.641      2.902
REMARK  Name = 
REMARK  5 active torsions:
REMARK  status: ('A' for Active; 'I' for Inactive)
REMARK    1  A    between atoms: N_3  and  C_4
REMARK    2  A    between atoms: C_4  and  C_5
REMARK    3  A    between atoms: C_5  and  C_6
REMARK    4  A    between atoms: C_11  and  C_12
REMARK    5  A    between atoms: C_22  and  C_23
REMARK                            x       y       z     vdW  Elec       q    Type
REMARK                         _______ _______ _______ _____ _____    ______ ____
ROOT
ATOM      1  O   UNL     1       2.143   4.304  21.829  0.00  0.00    +0.000 OA
ATOM      2  C   UNL     1       2.173   5.186  20.969  0.00  0.00    +0.000 C 
ATOM      3  N   UNL     1       2.607   4.991  19.700  0.00  0.00    +0.000 N 
ATOM      4  N   UNL     1       1.711   6.440  21.278  0.00  0.00    +0.000 N 
ATOM      5  C   UNL     1       1.661   7.546  20.468  0.00  0.00    +0.000 A 
ATOM      6  C   UNL     1       0.878   8.691  20.747  0.00  0.00    +0.000 A 
ATOM      7  C   UNL     1       0.863   9.384  19.558  0.00  0.00    +0.000 A 
ATOM      8  O   UNL     1       1.785   8.834  18.722  0.00  0.00    +0.000 OA
ATOM      9  N   UNL     1       2.286   7.681  19.291  0.00  0.00    +0.000 NA
ATOM     10  H   UNL     1       2.855   5.854  19.224  0.00  0.00    +0.000 HD
ATOM     11  H   UNL     1       1.270   6.492  22.180  0.00  0.00    +0.000 HD
ENDROOT
BRANCH   7  12
ATOM     12  C   UNL     1      -0.023  10.425  18.960  0.00  0.00    +0.000 C 
ATOM     13  C   UNL     1      -0.896  11.154  19.980  0.00  0.00    +0.000 C 
ATOM     14  C   UNL     1      -1.813  12.139  19.259  0.00  0.00    +0.000 C 
ATOM     15  O   UNL     1      -2.603  11.467  18.277  0.00  0.00    +0.000 OA
ATOM     16  C   UNL     1      -1.807  10.880  17.251  0.00  0.00    +0.000 C 
ATOM     17  C   UNL     1      -0.884   9.827  17.839  0.00  0.00    +0.000 C 
ENDBRANCH   7  12
BRANCH   3  18
ATOM     18  C   UNL     1       3.394   3.850  19.350  0.00  0.00    +0.000 C 
BRANCH  18  19
ATOM     19  C   UNL     1       3.500   3.473  17.866  0.00  0.00    +0.000 C 
ATOM     20  C   UNL     1       2.256   3.341  17.010  0.00  0.00    +0.000 C 
ATOM     21  C   UNL     1       3.058   2.117  17.347  0.00  0.00    +0.000 C 
BRANCH  19  22
ATOM     22  C   UNL     1       4.755   4.135  17.304  0.00  0.00    +0.000 A 
ATOM     23  C   UNL     1       4.598   4.935  16.161  0.00  0.00    +0.000 A 
ATOM     24  C   UNL     1       5.332   6.103  16.042  0.00  0.00    +0.000 A 
ATOM     25  F   UNL     1       4.968   7.006  15.123  0.00  0.00    +0.000 F 
ATOM     26  C   UNL     1       6.335   6.411  16.949  0.00  0.00    +0.000 A 
ATOM     27  C   UNL     1       6.668   5.502  17.962  0.00  0.00    +0.000 A 
ATOM     28  C   UNL     1       5.882   4.347  18.118  0.00  0.00    +0.000 A 
BRANCH  27  29
ATOM     29  C   UNL     1       7.786   5.802  18.928  0.00  0.00    +0.000 C 
ATOM     30  F   UNL     1       7.385   5.795  20.230  0.00  0.00    +0.000 F 
ATOM     31  F   UNL     1       8.807   4.905  18.850  0.00  0.00    +0.000 F 
ATOM     32  F   UNL     1       8.342   7.026  18.713  0.00  0.00    +0.000 F 
ENDBRANCH  27  29
ENDBRANCH  19  22
ENDBRANCH  18  19
ENDBRANCH   3  18
TORSDOF 5
ENDMDL
MODEL 4
REMARK VINA RESULT:      -9.1      1.135      1.657
REMARK  Name = 
REMARK  5 active torsions:
REMARK  status: ('A' for Active; 'I' for Inactive)
REMARK    1  A    between atoms: N_3  and  C_4
REMARK    2  A    between atoms: C_4  and  C_5
REMARK    3  A    between atoms: C_5  and  C_6
REMARK    4  A    between atoms: C_11  and  C_12
REMARK    5  A    between atoms: C_22  and  C_23
REMARK                            x       y       z     vdW  Elec       q    Type
REMARK                         _______ _______ _______ _____ _____    ______ ____
ROOT
ATOM      1  O   UNL     1       1.734   3.841  21.388  0.00  0.00    +0.000 OA
ATOM      2  C   UNL     1       1.729   4.800  20.614  0.00  0.00    +0.000 C 
ATOM      3  N   UNL     1       1.682   4.681  19.264  0.00  0.00    +0.000 N 
ATOM      4  N   UNL     1       1.734   6.074  21.122  0.00  0.00    +0.000 N 
ATOM      5  C   UNL     1       1.729   7.259  20.432  0.00  0.00    +0.000 A 
ATOM      6  C   UNL     1       1.402   8.507  21.014  0.00  0.00    +0.000 A 
ATOM      7  C   UNL     1       1.205   9.338  19.934  0.00  0.00    +0.000 A 
ATOM      8  O   UNL     1       1.643   8.706  18.812  0.00  0.00    +0.000 OA
ATOM      9  N   UNL     1       1.973   7.402  19.123  0.00  0.00    +0.000 NA
ATOM     10  H   UNL     1       1.989   5.518  18.777  0.00  0.00    +0.000 HD
ATOM     11  H   UNL     1       1.623   6.105  22.121  0.00  0.00    +0.000 HD
ENDROOT
BRANCH   7  12
ATOM     12  C   UNL     1       0.485  10.627  19.720  0.00  0.00    +0.000 C 
ATOM     13  C   UNL     1      -0.878  10.471  19.048  0.00  0.00    +0.000 C 
ATOM     14  C   UNL     1      -1.492  11.848  18.808  0.00  0.00    +0.000 C 
ATOM     15  O   UNL     1      -0.615  12.664  18.032  0.00  0.00    +0.000 OA
ATOM     16  C   UNL     1       0.620  12.918  18.697  0.00  0.00    +0.000 C 
ATOM     17  C   UNL     1       1.363  11.617  18.941  0.00  0.00    +0.000 C 
ENDBRANCH   7  12
BRANCH   3  18
ATOM     18  C   UNL     1       1.991   3.446  18.615  0.00  0.00    +0.000 C 
BRANCH  18  19
ATOM     19  C   UNL     1       3.451   2.969  18.625  0.00  0.00    +0.000 C 
ATOM     20  C   UNL     1       3.795   1.527  18.310  0.00  0.00    +0.000 C 
ATOM     21  C   UNL     1       3.987   2.048  19.705  0.00  0.00    +0.000 C 
BRANCH  19  22
ATOM     22  C   UNL     1       4.318   4.103  18.087  0.00  0.00    +0.000 A 
ATOM     23  C   UNL     1       5.168   4.745  18.999  0.00  0.00    +0.000 A 
ATOM     24  C   UNL     1       6.431   5.140  18.591  0.00  0.00    +0.000 A 
ATOM     25  F   UNL     1       7.340   5.466  19.518  0.00  0.00    +0.000 F 
ATOM     26  C   UNL     1       6.808   5.059  17.258  0.00  0.00    +0.000 A 
ATOM     27  C   UNL     1       5.883   4.642  16.292  0.00  0.00    +0.000 A 
ATOM     28  C   UNL     1       4.623   4.186  16.716  0.00  0.00    +0.000 A 
BRANCH  27  29
ATOM     29  C   UNL     1       6.263   4.592  14.834  0.00  0.00    +0.000 C 
ATOM     30  F   UNL     1       6.399   3.322  14.359  0.00  0.00    +0.000 F 
ATOM     31  F   UNL     1       5.345   5.193  14.027  0.00  0.00    +0.000 F 
ATOM     32  F   UNL     1       7.448   5.214  14.586  0.00  0.00    +0.000 F 
ENDBRANCH  27  29
ENDBRANCH  19  22
ENDBRANCH  18  19
ENDBRANCH   3  18
TORSDOF 5
ENDMDL
MODEL 5
REMARK VINA RESULT:      -8.9      1.103      1.471
REMARK  Name = 
REMARK  5 active torsions:
REMARK  status: ('A' for Active; 'I' for Inactive)
REMARK    1  A    between atoms: N_3  and  C_4
REMARK    2  A    between atoms: C_4  and  C_5
REMARK    3  A    between atoms: C_5  and  C_6
REMARK    4  A    between atoms: C_11  and  C_12
REMARK    5  A    between atoms: C_22  and  C_23
REMARK                            x       y       z     vdW  Elec       q    Type
REMARK                         _______ _______ _______ _____ _____    ______ ____
ROOT
ATOM      1  O   UNL     1       1.189   3.366  20.892  0.00  0.00    +0.000 OA
ATOM      2  C   UNL     1       1.432   4.410  20.284  0.00  0.00    +0.000 C 
ATOM      3  N   UNL     1       1.746   4.461  18.966  0.00  0.00    +0.000 N 
ATOM      4  N   UNL     1       1.352   5.608  20.947  0.00  0.00    +0.000 N 
ATOM      5  C   UNL     1       1.582   6.866  20.450  0.00  0.00    +0.000 A 
ATOM      6  C   UNL     1       1.161   8.054  21.092  0.00  0.00    +0.000 A 
ATOM      7  C   UNL     1       1.296   9.024  20.124  0.00  0.00    +0.000 A 
ATOM      8  O   UNL     1       1.995   8.501  19.079  0.00  0.00    +0.000 OA
ATOM      9  N   UNL     1       2.175   7.148  19.282  0.00  0.00    +0.000 NA
ATOM     10  H   UNL     1       2.207   5.325  18.697  0.00  0.00    +0.000 HD
ATOM     11  H   UNL     1       0.977   5.525  21.876  0.00  0.00    +0.000 HD
ENDROOT
BRANCH   7  12
ATOM     12  C   UNL     1       0.715  10.380  19.909  0.00  0.00    +0.000 C 
ATOM     13  C   UNL     1       0.031  10.964  21.144  0.00  0.00    +0.000 C 
ATOM     14  C   UNL     1      -0.592  12.313  20.796  0.00  0.00    +0.000 C 
ATOM     15  O   UNL     1      -1.503  12.182  19.705  0.00  0.00    +0.000 OA
ATOM     16  C   UNL     1      -0.859  11.751  18.509  0.00  0.00    +0.000 C 
ATOM     17  C   UNL     1      -0.245  10.376  18.710  0.00  0.00    +0.000 C 
ENDBRANCH   7  12
BRANCH   3  18
ATOM     18  C   UNL     1       2.168   3.294  18.256  0.00  0.00    +0.000 C 
BRANCH  18  19
ATOM     19  C   UNL     1       3.628   2.842  18.411  0.00  0.00    +0.000 C 
ATOM     20  C   UNL     1       3.994   1.374  18.329  0.00  0.00    +0.000 C 
ATOM     21  C   UNL     1       4.111   2.096  19.640  0.00  0.00    +0.000 C 
BRANCH  19  22
ATOM     22  C   UNL     1       4.515   3.895  17.756  0.00  0.00    +0.000 A 
ATOM     23  C   UNL     1       5.541   4.444  18.541  0.00  0.00    +0.000 A 
ATOM     24  C   UNL     1       6.767   4.722  17.961  0.00  0.00    +0.000 A 
ATOM     25  F   UNL     1       7.822   4.951  18.753  0.00  0.00    +0.000 F 
ATOM     26  C   UNL     1       6.947   4.622  16.589  0.00  0.00    +0.000 A 
ATOM     27  C   UNL     1       5.863   4.305  15.761  0.00  0.00    +0.000 A 
ATOM     28  C   UNL     1       4.636   3.965  16.356  0.00  0.00    +0.000 A 
BRANCH  27  29
ATOM     29  C   UNL     1       6.032   4.237  14.264  0.00  0.00    +0.000 C 
ATOM     30  F   UNL     1       6.901   5.169  13.780  0.00  0.00    +0.000 F 
ATOM     31  F   UNL     1       6.508   3.033  13.841  0.00  0.00    +0.000 F 
ATOM     32  F   UNL     1       4.861   4.435  13.600  0.00  0.00    +0.000 F 
ENDBRANCH  27  29
ENDBRANCH  19  22
ENDBRANCH  18  19
ENDBRANCH   3  18
TORSDOF 5
ENDMDL
MODEL 6
REMARK VINA RESULT:      -8.8      1.664      3.025
REMARK  Name = 
REMARK  5 active torsions:
REMARK  status: ('A' for Active; 'I' for Inactive)
REMARK    1  A    between atoms: N_3  and  C_4
REMARK    2  A    between atoms: C_4  and  C_5
REMARK    3  A    between atoms: C_5  and  C_6
REMARK    4  A    between atoms: C_11  and  C_12
REMARK    5  A    between atoms: C_22  and  C_23
REMARK                            x       y       z     vdW  Elec       q    Type
REMARK                         _______ _______ _______ _____ _____    ______ ____
ROOT
ATOM      1  O   UNL     1       2.251   4.000  21.859  0.00  0.00    +0.000 OA
ATOM      2  C   UNL     1       2.216   4.954  21.080  0.00  0.00    +0.000 C 
ATOM      3  N   UNL     1       2.607   4.887  19.784  0.00  0.00    +0.000 N 
ATOM      4  N   UNL     1       1.722   6.158  21.515  0.00  0.00    +0.000 N 
ATOM      5  C   UNL     1       1.600   7.327  20.807  0.00  0.00    +0.000 A 
ATOM      6  C   UNL     1       0.787   8.411  21.213  0.00  0.00    +0.000 A 
ATOM      7  C   UNL     1       0.702   9.204  20.091  0.00  0.00    +0.000 A 
ATOM      8  O   UNL     1       1.609   8.764  19.177  0.00  0.00    +0.000 OA
ATOM      9  N   UNL     1       2.173   7.587  19.625  0.00  0.00    +0.000 NA
ATOM     10  H   UNL     1       2.804   5.796  19.377  0.00  0.00    +0.000 HD
ATOM     11  H   UNL     1       1.314   6.114  22.433  0.00  0.00    +0.000 HD
ENDROOT
BRANCH   7  12
ATOM     12  C   UNL     1      -0.244  10.257  19.620  0.00  0.00    +0.000 C 
ATOM     13  C   UNL     1      -0.667  10.101  18.160  0.00  0.00    +0.000 C 
ATOM     14  C   UNL     1      -1.569  11.265  17.760  0.00  0.00    +0.000 C 
ATOM     15  O   UNL     1      -0.913  12.513  17.986  0.00  0.00    +0.000 OA
ATOM     16  C   UNL     1      -0.617  12.728  19.363  0.00  0.00    +0.000 C 
ATOM     17  C   UNL     1       0.333  11.657  19.870  0.00  0.00    +0.000 C 
ENDBRANCH   7  12
BRANCH   3  18
ATOM     18  C   UNL     1       3.419   3.812  19.307  0.00  0.00    +0.000 C 
BRANCH  18  19
ATOM     19  C   UNL     1       3.454   3.547  17.795  0.00  0.00    +0.000 C 
ATOM     20  C   UNL     1       2.176   3.542  16.982  0.00  0.00    +0.000 C 
ATOM     21  C   UNL     1       2.926   2.259  17.193  0.00  0.00    +0.000 C 
BRANCH  19  22
ATOM     22  C   UNL     1       4.720   4.191  17.237  0.00  0.00    +0.000 A 
ATOM     23  C   UNL     1       4.575   5.008  16.106  0.00  0.00    +0.000 A 
ATOM     24  C   UNL     1       5.333   6.162  15.998  0.00  0.00    +0.000 A 
ATOM     25  F   UNL     1       4.984   7.085  15.093  0.00  0.00    +0.000 F 
ATOM     26  C   UNL     1       6.345   6.438  16.905  0.00  0.00    +0.000 A 
ATOM     27  C   UNL     1       6.663   5.509  17.905  0.00  0.00    +0.000 A 
ATOM     28  C   UNL     1       5.855   4.369  18.049  0.00  0.00    +0.000 A 
BRANCH  27  29
ATOM     29  C   UNL     1       7.791   5.773  18.870  0.00  0.00    +0.000 C 
ATOM     30  F   UNL     1       7.386   5.807  20.171  0.00  0.00    +0.000 F 
ATOM     31  F   UNL     1       8.769   4.828  18.812  0.00  0.00    +0.000 F 
ATOM     32  F   UNL     1       8.404   6.965  18.637  0.00  0.00    +0.000 F 
ENDBRANCH  27  29
ENDBRANCH  19  22
ENDBRANCH  18  19
ENDBRANCH   3  18
TORSDOF 5
ENDMDL
MODEL 7
REMARK VINA RESULT:      -8.8      5.588      7.164
REMARK  Name = 
REMARK  5 active torsions:
REMARK  status: ('A' for Active; 'I' for Inactive)
REMARK    1  A    between atoms: N_3  and  C_4
REMARK    2  A    between atoms: C_4  and  C_5
REMARK    3  A    between atoms: C_5  and  C_6
REMARK    4  A    between atoms: C_11  and  C_12
REMARK    5  A    between atoms: C_22  and  C_23
REMARK                            x       y       z     vdW  Elec       q    Type
REMARK                         _______ _______ _______ _____ _____    ______ ____
ROOT
ATOM      1  O   UNL     1       8.112   5.214  19.675  0.00  0.00    +0.000 OA
ATOM      2  C   UNL     1       7.891   6.232  19.017  0.00  0.00    +0.000 C 
ATOM      3  N   UNL     1       6.866   6.357  18.138  0.00  0.00    +0.000 N 
ATOM      4  N   UNL     1       8.692   7.331  19.191  0.00  0.00    +0.000 N 
ATOM      5  C   UNL     1       8.610   8.547  18.560  0.00  0.00    +0.000 A 
ATOM      6  C   UNL     1       9.249   9.720  19.025  0.00  0.00    +0.000 A 
ATOM      7  C   UNL     1       8.650  10.733  18.312  0.00  0.00    +0.000 A 
ATOM      8  O   UNL     1       7.908  10.182  17.313  0.00  0.00    +0.000 OA
ATOM      9  N   UNL     1       7.882   8.811  17.467  0.00  0.00    +0.000 NA
ATOM     10  H   UNL     1       6.999   7.112  17.472  0.00  0.00    +0.000 HD
ATOM     11  H   UNL     1       9.341   7.235  19.953  0.00  0.00    +0.000 HD
ENDROOT
BRANCH   7  12
ATOM     12  C   UNL     1       8.498  12.205  18.504  0.00  0.00    +0.000 C 
ATOM     13  C   UNL     1       7.767  12.906  17.361  0.00  0.00    +0.000 C 
ATOM     14  C   UNL     1       7.733  14.410  17.621  0.00  0.00    +0.000 C 
ATOM     15  O   UNL     1       9.055  14.923  17.791  0.00  0.00    +0.000 OA
ATOM     16  C   UNL     1       9.711  14.365  18.926  0.00  0.00    +0.000 C 
ATOM     17  C   UNL     1       9.862  12.863  18.760  0.00  0.00    +0.000 C 
ENDBRANCH   7  12
BRANCH   3  18
ATOM     18  C   UNL     1       6.171   5.212  17.638  0.00  0.00    +0.000 C 
BRANCH  18  19
ATOM     19  C   UNL     1       5.008   5.441  16.662  0.00  0.00    +0.000 C 
ATOM     20  C   UNL     1       5.252   5.489  15.167  0.00  0.00    +0.000 C 
ATOM     21  C   UNL     1       4.848   6.740  15.894  0.00  0.00    +0.000 C 
BRANCH  19  22
ATOM     22  C   UNL     1       3.782   4.725  17.220  0.00  0.00    +0.000 A 
ATOM     23  C   UNL     1       3.693   3.343  16.997  0.00  0.00    +0.000 A 
ATOM     24  C   UNL     1       3.187   2.524  17.993  0.00  0.00    +0.000 A 
ATOM     25  F   UNL     1       3.383   1.203  17.908  0.00  0.00    +0.000 F 
ATOM     26  C   UNL     1       2.617   3.062  19.137  0.00  0.00    +0.000 A 
ATOM     27  C   UNL     1       2.480   4.450  19.267  0.00  0.00    +0.000 A 
ATOM     28  C   UNL     1       3.048   5.279  18.284  0.00  0.00    +0.000 A 
BRANCH  27  29
ATOM     29  C   UNL     1       1.822   5.048  20.484  0.00  0.00    +0.000 C 
ATOM     30  F   UNL     1       2.401   4.655  21.654  0.00  0.00    +0.000 F 
ATOM     31  F   UNL     1       1.860   6.409  20.492  0.00  0.00    +0.000 F 
ATOM     32  F   UNL     1       0.508   4.707  20.584  0.00  0.00    +0.000 F 
ENDBRANCH  27  29
ENDBRANCH  19  22
ENDBRANCH  18  19
ENDBRANCH   3  18
TORSDOF 5
ENDMDL
MODEL 8
REMARK VINA RESULT:      -8.7      5.323      7.960
REMARK  Name = 
REMARK  5 active torsions:
REMARK  status: ('A' for Active; 'I' for Inactive)
REMARK    1  A    between atoms: N_3  and  C_4
REMARK    2  A    between atoms: C_4  and  C_5
REMARK    3  A    between atoms: C_5  and  C_6
REMARK    4  A    between atoms: C_11  and  C_12
REMARK    5  A    between atoms: C_22  and  C_23
REMARK                            x       y       z     vdW  Elec       q    Type
REMARK                         _______ _______ _______ _____ _____    ______ ____
ROOT
ATOM      1  O   UNL     1       5.581   3.808  19.557  0.00  0.00    +0.000 OA
ATOM      2  C   UNL     1       5.656   4.925  19.041  0.00  0.00    +0.000 C 
ATOM      3  N   UNL     1       4.580   5.682  18.717  0.00  0.00    +0.000 N 
ATOM      4  N   UNL     1       6.891   5.472  18.805  0.00  0.00    +0.000 N 
ATOM      5  C   UNL     1       7.182   6.691  18.245  0.00  0.00    +0.000 A 
ATOM      6  C   UNL     1       8.447   7.317  18.339  0.00  0.00    +0.000 A 
ATOM      7  C   UNL     1       8.208   8.615  17.945  0.00  0.00    +0.000 A 
ATOM      8  O   UNL     1       6.962   8.683  17.405  0.00  0.00    +0.000 OA
ATOM      9  N   UNL     1       6.317   7.477  17.591  0.00  0.00    +0.000 NA
ATOM     10  H   UNL     1       4.791   6.411  18.042  0.00  0.00    +0.000 HD
ATOM     11  H   UNL     1       7.647   4.936  19.194  0.00  0.00    +0.000 HD
ENDROOT
BRANCH   7  12
ATOM     12  C   UNL     1       8.907   9.918  18.144  0.00  0.00    +0.000 C 
ATOM     13  C   UNL     1       9.312  10.188  19.592  0.00  0.00    +0.000 C 
ATOM     14  C   UNL     1       9.948  11.572  19.697  0.00  0.00    +0.000 C 
ATOM     15  O   UNL     1       9.058  12.574  19.205  0.00  0.00    +0.000 OA
ATOM     16  C   UNL     1       8.763  12.405  17.821  0.00  0.00    +0.000 C 
ATOM     17  C   UNL     1       8.064  11.076  17.592  0.00  0.00    +0.000 C 
ENDBRANCH   7  12
BRANCH   3  18
ATOM     18  C   UNL     1       3.273   5.112  18.616  0.00  0.00    +0.000 C 
BRANCH  18  19
ATOM     19  C   UNL     1       2.259   5.427  19.726  0.00  0.00    +0.000 C 
ATOM     20  C   UNL     1       2.125   4.517  20.930  0.00  0.00    +0.000 C 
ATOM     21  C   UNL     1       1.007   4.594  19.930  0.00  0.00    +0.000 C 
BRANCH  19  22
ATOM     22  C   UNL     1       2.206   6.942  19.895  0.00  0.00    +0.000 A 
ATOM     23  C   UNL     1       2.337   7.720  18.734  0.00  0.00    +0.000 A 
ATOM     24  C   UNL     1       1.580   8.871  18.598  0.00  0.00    +0.000 A 
ATOM     25  F   UNL     1       1.472   9.437  17.390  0.00  0.00    +0.000 F 
ATOM     26  C   UNL     1       0.821   9.355  19.654  0.00  0.00    +0.000 A 
ATOM     27  C   UNL     1       0.869   8.720  20.901  0.00  0.00    +0.000 A 
ATOM     28  C   UNL     1       1.589   7.519  21.020  0.00  0.00    +0.000 A 
BRANCH  27  29
ATOM     29  C   UNL     1       0.085   9.260  22.070  0.00  0.00    +0.000 C 
ATOM     30  F   UNL     1      -0.932   8.441  22.458  0.00  0.00    +0.000 F 
ATOM     31  F   UNL     1       0.852   9.447  23.180  0.00  0.00    +0.000 F 
ATOM     32  F   UNL     1      -0.486  10.465  21.799  0.00  0.00    +0.000 F 
ENDBRANCH  27  29
ENDBRANCH  19  22
ENDBRANCH  18  19
ENDBRANCH   3  18
TORSDOF 5
ENDMDL
MODEL 9
REMARK VINA RESULT:      -8.7      1.326      2.561
REMARK  Name = 
REMARK  5 active torsions:
REMARK  status: ('A' for Active; 'I' for Inactive)
REMARK    1  A    between atoms: N_3  and  C_4
REMARK    2  A    between atoms: C_4  and  C_5
REMARK    3  A    between atoms: C_5  and  C_6
REMARK    4  A    between atoms: C_11  and  C_12
REMARK    5  A    between atoms: C_22  and  C_23
REMARK                            x       y       z     vdW  Elec       q    Type
REMARK                         _______ _______ _______ _____ _____    ______ ____
ROOT
ATOM      1  O   UNL     1       2.210   4.291  21.664  0.00  0.00    +0.000 OA
ATOM      2  C   UNL     1       2.259   5.223  20.860  0.00  0.00    +0.000 C 
ATOM      3  N   UNL     1       2.831   5.136  19.634  0.00  0.00    +0.000 N 
ATOM      4  N   UNL     1       1.676   6.422  21.186  0.00  0.00    +0.000 N 
ATOM      5  C   UNL     1       1.624   7.568  20.434  0.00  0.00    +0.000 A 
ATOM      6  C   UNL     1       0.733   8.637  20.690  0.00  0.00    +0.000 A 
ATOM      7  C   UNL     1       0.785   9.398  19.544  0.00  0.00    +0.000 A 
ATOM      8  O   UNL     1       1.824   8.964  18.780  0.00  0.00    +0.000 OA
ATOM      9  N   UNL     1       2.352   7.817  19.337  0.00  0.00    +0.000 NA
ATOM     10  H   UNL     1       3.059   6.040  19.232  0.00  0.00    +0.000 HD
ATOM     11  H   UNL     1       1.145   6.388  22.038  0.00  0.00    +0.000 HD
ENDROOT
BRANCH   7  12
ATOM     12  C   UNL     1      -0.113  10.410  18.914  0.00  0.00    +0.000 C 
ATOM     13  C   UNL     1      -0.978  11.176  19.912  0.00  0.00    +0.000 C 
ATOM     14  C   UNL     1      -1.908  12.125  19.161  0.00  0.00    +0.000 C 
ATOM     15  O   UNL     1      -2.705  11.410  18.217  0.00  0.00    +0.000 OA
ATOM     16  C   UNL     1      -1.917  10.785  17.207  0.00  0.00    +0.000 C 
ATOM     17  C   UNL     1      -0.983   9.762  17.828  0.00  0.00    +0.000 C 
ENDBRANCH   7  12
BRANCH   3  18
ATOM     18  C   UNL     1       3.732   4.075  19.308  0.00  0.00    +0.000 C 
BRANCH  18  19
ATOM     19  C   UNL     1       3.754   3.565  17.860  0.00  0.00    +0.000 C 
ATOM     20  C   UNL     1       2.503   3.612  17.005  0.00  0.00    +0.000 C 
ATOM     21  C   UNL     1       3.050   2.285  17.448  0.00  0.00    +0.000 C 
BRANCH  19  22
ATOM     22  C   UNL     1       5.111   3.919  17.260  0.00  0.00    +0.000 A 
ATOM     23  C   UNL     1       5.347   3.521  15.935  0.00  0.00    +0.000 A 
ATOM     24  C   UNL     1       6.052   4.360  15.088  0.00  0.00    +0.000 A 
ATOM     25  F   UNL     1       6.014   4.131  13.769  0.00  0.00    +0.000 F 
ATOM     26  C   UNL     1       6.667   5.506  15.569  0.00  0.00    +0.000 A 
ATOM     27  C   UNL     1       6.643   5.793  16.940  0.00  0.00    +0.000 A 
ATOM     28  C   UNL     1       5.878   4.974  17.787  0.00  0.00    +0.000 A 
BRANCH  27  29
ATOM     29  C   UNL     1       7.345   7.011  17.483  0.00  0.00    +0.000 C 
ATOM     30  F   UNL     1       6.488   8.011  17.836  0.00  0.00    +0.000 F 
ATOM     31  F   UNL     1       8.080   6.744  18.598  0.00  0.00    +0.000 F 
ATOM     32  F   UNL     1       8.208   7.557  16.584  0.00  0.00    +0.000 F 
ENDBRANCH  27  29
ENDBRANCH  19  22
ENDBRANCH  18  19
ENDBRANCH   3  18
TORSDOF 5
ENDMDL
