MODEL 1
REMARK VINA RESULT:      -8.4      0.000      0.000
REMARK  Name = 
REMARK  5 active torsions:
REMARK  status: ('A' for Active; 'I' for Inactive)
REMARK    1  A    between atoms: C_6  and  S_7
REMARK    2  A    between atoms: S_7  and  C_8
REMARK    3  A    between atoms: C_13  and  C_14
REMARK    4  A    between atoms: N_23  and  C_24
REMARK    5  A    between atoms: C_24  and  C_25
REMARK                            x       y       z     vdW  Elec       q    Type
REMARK                         _______ _______ _______ _____ _____    ______ ____
ROOT
ATOM      1  C   UNL     1       3.109   6.696  18.314  0.00  0.00    +0.000 A 
ATOM      2  N   UNL     1       2.925   7.783  17.620  0.00  0.00    +0.000 NA
ATOM      3  C   UNL     1       2.263   8.772  18.258  0.00  0.00    +0.000 A 
ATOM      4  S   UNL     1       2.088  10.306  17.539  0.00  0.00    +0.000 S 
ATOM      5  C   UNL     1       1.192  10.884  18.873  0.00  0.00    +0.000 A 
ATOM      6  C   UNL     1       0.991   9.923  19.853  0.00  0.00    +0.000 A 
ATOM      7  C   UNL     1       1.664   8.700  19.489  0.00  0.00    +0.000 A 
ATOM      8  C   UNL     1       1.778   7.432  20.191  0.00  0.00    +0.000 A 
ATOM      9  O   UNL     1       1.126   7.182  21.201  0.00  0.00    +0.000 OA
ATOM     10  N   UNL     1       2.657   6.507  19.618  0.00  0.00    +0.000 N 
ENDROOT
BRANCH   6  11
ATOM     11  C   UNL     1       0.205  10.238  21.055  0.00  0.00    +0.000 A 
ATOM     12  C   UNL     1      -0.797  11.218  21.021  0.00  0.00    +0.000 A 
ATOM     13  C   UNL     1      -1.548  11.517  22.162  0.00  0.00    +0.000 A 
ATOM     14  C   UNL     1      -1.331  10.819  23.347  0.00  0.00    +0.000 A 
ATOM     15  C   UNL     1      -0.351   9.834  23.395  0.00  0.00    +0.000 A 
ATOM     16  C   UNL     1       0.426   9.567  22.265  0.00  0.00    +0.000 A 
ENDBRANCH   6  11
BRANCH   1  17
ATOM     17  S   UNL     1       3.924   5.375  17.484  0.00  0.00    +0.000 S 
BRANCH  17  23
ATOM     18  O   UNL     1       6.165   5.945  15.236  0.00  0.00    +0.000 OA
ATOM     19  C   UNL     1       6.489   5.570  16.353  0.00  0.00    +0.000 C 
ATOM     20  O   UNL     1       7.696   5.000  16.632  0.00  0.00    +0.000 OA
ATOM     21  C   UNL     1       7.803   4.689  18.019  0.00  0.00    +0.000 C 
ATOM     22  C   UNL     1       6.488   5.041  18.683  0.00  0.00    +0.000 C 
ATOM     23  C   UNL     1       5.705   5.784  17.621  0.00  0.00    +0.000 C 
ENDBRANCH  17  23
ENDBRANCH   1  17
BRANCH  10  24
ATOM     24  C   UNL     1       2.962   5.356  20.498  0.00  0.00    +0.000 C 
BRANCH  24  25
ATOM     25  C   UNL     1       2.391   4.056  19.948  0.00  0.00    +0.000 A 
ATOM     26  C   UNL     1       3.207   2.958  19.609  0.00  0.00    +0.000 A 
ATOM     27  C   UNL     1       2.663   1.843  18.957  0.00  0.00    +0.000 A 
ATOM     28  C   UNL     1       1.306   1.807  18.647  0.00  0.00    +0.000 A 
ATOM     29  C   UNL     1       0.477   2.850  19.054  0.00  0.00    +0.000 A 
ATOM     30  C   UNL     1       1.014   3.957  19.710  0.00  0.00    +0.000 A 
ENDBRANCH  24  25
ENDBRANCH  10  24
TORSDOF 5
ENDMDL
MODEL 2
REMARK VINA RESULT:      -8.2      0.190      1.255
REMARK  Name = 
REMARK  5 active torsions:
REMARK  status: ('A' for Active; 'I' for Inactive)
REMARK    1  A    between atoms: C_6  and  S_7
REMARK    2  A    between atoms: S_7  and  C_8
REMARK    3  A    between atoms: C_13  and  C_14
REMARK    4  A    between atoms: N_23  and  C_24
REMARK    5  A    between atoms: C_24  and  C_25
REMARK                            x       y       z     vdW  Elec       q    Type
REMARK                         _______ _______ _______ _____ _____    ______ ____
ROOT
ATOM      1  C   UNL     1       3.104   6.845  18.298  0.00  0.00    +0.000 A 
ATOM      2  N   UNL     1       2.957   7.949  17.622  0.00  0.00    +0.000 NA
ATOM      3  C   UNL     1       2.284   8.931  18.259  0.00  0.00    +0.000 A 
ATOM      4  S   UNL     1       2.152  10.483  17.570  0.00  0.00    +0.000 S 
ATOM      5  C   UNL     1       1.215  11.041  18.884  0.00  0.00    +0.000 A 
ATOM      6  C   UNL     1       0.969  10.061  19.834  0.00  0.00    +0.000 A 
ATOM      7  C   UNL     1       1.641   8.839  19.466  0.00  0.00    +0.000 A 
ATOM      8  C   UNL     1       1.716   7.554  20.143  0.00  0.00    +0.000 A 
ATOM      9  O   UNL     1       1.025   7.289  21.123  0.00  0.00    +0.000 OA
ATOM     10  N   UNL     1       2.604   6.631  19.581  0.00  0.00    +0.000 N 
ENDROOT
BRANCH   6  11
ATOM     11  C   UNL     1       0.144  10.358  21.015  0.00  0.00    +0.000 A 
ATOM     12  C   UNL     1       0.361   9.688  22.227  0.00  0.00    +0.000 A 
ATOM     13  C   UNL     1      -0.419   9.970  23.353  0.00  0.00    +0.000 A 
ATOM     14  C   UNL     1      -1.406  10.950  23.293  0.00  0.00    +0.000 A 
ATOM     15  C   UNL     1      -1.625  11.634  22.104  0.00  0.00    +0.000 A 
ATOM     16  C   UNL     1      -0.873  11.320  20.969  0.00  0.00    +0.000 A 
ENDBRANCH   6  11
BRANCH   1  17
ATOM     17  S   UNL     1       3.934   5.533  17.467  0.00  0.00    +0.000 S 
BRANCH  17  23
ATOM     18  O   UNL     1       6.249   6.009  15.274  0.00  0.00    +0.000 OA
ATOM     19  C   UNL     1       6.534   5.672  16.413  0.00  0.00    +0.000 C 
ATOM     20  O   UNL     1       7.728   5.104  16.750  0.00  0.00    +0.000 OA
ATOM     21  C   UNL     1       7.788   4.842  18.150  0.00  0.00    +0.000 C 
ATOM     22  C   UNL     1       6.456   5.224  18.758  0.00  0.00    +0.000 C 
ATOM     23  C   UNL     1       5.712   5.935  17.647  0.00  0.00    +0.000 C 
ENDBRANCH  17  23
ENDBRANCH   1  17
BRANCH  10  24
ATOM     24  C   UNL     1       2.864   5.457  20.444  0.00  0.00    +0.000 C 
BRANCH  24  25
ATOM     25  C   UNL     1       2.408   4.160  19.789  0.00  0.00    +0.000 A 
ATOM     26  C   UNL     1       1.058   3.908  19.477  0.00  0.00    +0.000 A 
ATOM     27  C   UNL     1       0.657   2.643  19.025  0.00  0.00    +0.000 A 
ATOM     28  C   UNL     1       1.596   1.626  18.870  0.00  0.00    +0.000 A 
ATOM     29  C   UNL     1       2.944   1.892  19.095  0.00  0.00    +0.000 A 
ATOM     30  C   UNL     1       3.346   3.152  19.537  0.00  0.00    +0.000 A 
ENDBRANCH  24  25
ENDBRANCH  10  24
TORSDOF 5
ENDMDL
MODEL 3
REMARK VINA RESULT:      -8.1      6.910     10.531
REMARK  Name = 
REMARK  5 active torsions:
REMARK  status: ('A' for Active; 'I' for Inactive)
REMARK    1  A    between atoms: C_6  and  S_7
REMARK    2  A    between atoms: S_7  and  C_8
REMARK    3  A    between atoms: C_13  and  C_14
REMARK    4  A    between atoms: N_23  and  C_24
REMARK    5  A    between atoms: C_24  and  C_25
REMARK                            x       y       z     vdW  Elec       q    Type
REMARK                         _______ _______ _______ _____ _____    ______ ____
ROOT
ATOM      1  C   UNL     1      -3.882  13.559  21.620  0.00  0.00    +0.000 A 
ATOM      2  N   UNL     1      -5.111  13.352  21.239  0.00  0.00    +0.000 NA
ATOM      3  C   UNL     1      -5.254  12.592  20.133  0.00  0.00    +0.000 A 
ATOM      4  S   UNL     1      -6.797  12.102  19.607  0.00  0.00    +0.000 S 
ATOM      5  C   UNL     1      -6.135  11.284  18.263  0.00  0.00    +0.000 A 
ATOM      6  C   UNL     1      -4.755  11.397  18.180  0.00  0.00    +0.000 A 
ATOM      7  C   UNL     1      -4.253  12.137  19.313  0.00  0.00    +0.000 A 
ATOM      8  C   UNL     1      -2.894  12.488  19.693  0.00  0.00    +0.000 A 
ATOM      9  O   UNL     1      -1.938  12.310  18.944  0.00  0.00    +0.000 OA
ATOM     10  N   UNL     1      -2.757  13.073  20.957  0.00  0.00    +0.000 N 
ENDROOT
BRANCH   6  11
ATOM     11  C   UNL     1      -4.022  10.785  17.062  0.00  0.00    +0.000 A 
ATOM     12  C   UNL     1      -4.262  11.190  15.741  0.00  0.00    +0.000 A 
ATOM     13  C   UNL     1      -3.564  10.613  14.675  0.00  0.00    +0.000 A 
ATOM     14  C   UNL     1      -2.593   9.644  14.917  0.00  0.00    +0.000 A 
ATOM     15  C   UNL     1      -2.333   9.241  16.220  0.00  0.00    +0.000 A 
ATOM     16  C   UNL     1      -3.061   9.790  17.279  0.00  0.00    +0.000 A 
ENDBRANCH   6  11
BRANCH   1  17
ATOM     17  S   UNL     1      -3.671  14.590  23.031  0.00  0.00    +0.000 S 
BRANCH  17  23
ATOM     18  O   UNL     1      -4.231  11.799  24.546  0.00  0.00    +0.000 OA
ATOM     19  C   UNL     1      -5.143  12.584  24.337  0.00  0.00    +0.000 C 
ATOM     20  O   UNL     1      -6.458  12.225  24.346  0.00  0.00    +0.000 OA
ATOM     21  C   UNL     1      -7.294  13.353  24.097  0.00  0.00    +0.000 C 
ATOM     22  C   UNL     1      -6.405  14.549  23.833  0.00  0.00    +0.000 C 
ATOM     23  C   UNL     1      -5.008  14.075  24.173  0.00  0.00    +0.000 C 
ENDBRANCH  17  23
ENDBRANCH   1  17
BRANCH  10  24
ATOM     24  C   UNL     1      -1.355  13.156  21.422  0.00  0.00    +0.000 C 
BRANCH  24  25
ATOM     25  C   UNL     1      -0.805  11.791  21.810  0.00  0.00    +0.000 A 
ATOM     26  C   UNL     1      -1.296  11.066  22.914  0.00  0.00    +0.000 A 
ATOM     27  C   UNL     1      -0.658   9.891  23.334  0.00  0.00    +0.000 A 
ATOM     28  C   UNL     1       0.465   9.423  22.655  0.00  0.00    +0.000 A 
ATOM     29  C   UNL     1       0.906  10.087  21.513  0.00  0.00    +0.000 A 
ATOM     30  C   UNL     1       0.267  11.251  21.088  0.00  0.00    +0.000 A 
ENDBRANCH  24  25
ENDBRANCH  10  24
TORSDOF 5
ENDMDL
MODEL 4
REMARK VINA RESULT:      -7.9      0.984      1.094
REMARK  Name = 
REMARK  5 active torsions:
REMARK  status: ('A' for Active; 'I' for Inactive)
REMARK    1  A    between atoms: C_6  and  S_7
REMARK    2  A    between atoms: S_7  and  C_8
REMARK    3  A    between atoms: C_13  and  C_14
REMARK    4  A    between atoms: N_23  and  C_24
REMARK    5  A    between atoms: C_24  and  C_25
REMARK                            x       y       z     vdW  Elec       q    Type
REMARK                         _______ _______ _______ _____ _____    ______ ____
ROOT
ATOM      1  C   UNL     1       3.201   7.404  18.002  0.00  0.00    +0.000 A 
ATOM      2  N   UNL     1       2.974   8.550  17.424  0.00  0.00    +0.000 NA
ATOM      3  C   UNL     1       2.265   9.436  18.155  0.00  0.00    +0.000 A 
ATOM      4  S   UNL     1       2.028  11.028  17.601  0.00  0.00    +0.000 S 
ATOM      5  C   UNL     1       1.097  11.422  18.978  0.00  0.00    +0.000 A 
ATOM      6  C   UNL     1       0.932  10.355  19.848  0.00  0.00    +0.000 A 
ATOM      7  C   UNL     1       1.661   9.208  19.365  0.00  0.00    +0.000 A 
ATOM      8  C   UNL     1       1.826   7.879  19.931  0.00  0.00    +0.000 A 
ATOM      9  O   UNL     1       1.179   7.495  20.901  0.00  0.00    +0.000 OA
ATOM     10  N   UNL     1       2.749   7.058  19.274  0.00  0.00    +0.000 N 
ENDROOT
BRANCH   6  11
ATOM     11  C   UNL     1       0.125  10.507  21.068  0.00  0.00    +0.000 A 
ATOM     12  C   UNL     1      -0.899  11.462  21.136  0.00  0.00    +0.000 A 
ATOM     13  C   UNL     1      -1.671  11.606  22.293  0.00  0.00    +0.000 A 
ATOM     14  C   UNL     1      -1.452  10.775  23.389  0.00  0.00    +0.000 A 
ATOM     15  C   UNL     1      -0.451   9.813  23.334  0.00  0.00    +0.000 A 
ATOM     16  C   UNL     1       0.347   9.700  22.192  0.00  0.00    +0.000 A 
ENDBRANCH   6  11
BRANCH   1  17
ATOM     17  S   UNL     1       4.080   6.215  17.047  0.00  0.00    +0.000 S 
BRANCH  17  23
ATOM     18  O   UNL     1       6.837   7.887  16.981  0.00  0.00    +0.000 OA
ATOM     19  C   UNL     1       6.829   6.720  17.342  0.00  0.00    +0.000 C 
ATOM     20  O   UNL     1       7.942   5.933  17.360  0.00  0.00    +0.000 OA
ATOM     21  C   UNL     1       7.636   4.630  17.850  0.00  0.00    +0.000 C 
ATOM     22  C   UNL     1       6.146   4.563  18.108  0.00  0.00    +0.000 C 
ATOM     23  C   UNL     1       5.660   5.988  17.947  0.00  0.00    +0.000 C 
ENDBRANCH  17  23
ENDBRANCH   1  17
BRANCH  10  24
ATOM     24  C   UNL     1       3.098   5.834  20.030  0.00  0.00    +0.000 C 
BRANCH  24  25
ATOM     25  C   UNL     1       2.141   4.690  19.728  0.00  0.00    +0.000 A 
ATOM     26  C   UNL     1       1.447   4.000  20.742  0.00  0.00    +0.000 A 
ATOM     27  C   UNL     1       0.702   2.852  20.439  0.00  0.00    +0.000 A 
ATOM     28  C   UNL     1       0.633   2.389  19.127  0.00  0.00    +0.000 A 
ATOM     29  C   UNL     1       1.246   3.112  18.107  0.00  0.00    +0.000 A 
ATOM     30  C   UNL     1       1.981   4.259  18.405  0.00  0.00    +0.000 A 
ENDBRANCH  24  25
ENDBRANCH  10  24
TORSDOF 5
ENDMDL
MODEL 5
REMARK VINA RESULT:      -7.9      4.600      8.122
REMARK  Name = 
REMARK  5 active torsions:
REMARK  status: ('A' for Active; 'I' for Inactive)
REMARK    1  A    between atoms: C_6  and  S_7
REMARK    2  A    between atoms: S_7  and  C_8
REMARK    3  A    between atoms: C_13  and  C_14
REMARK    4  A    between atoms: N_23  and  C_24
REMARK    5  A    between atoms: C_24  and  C_25
REMARK                            x       y       z     vdW  Elec       q    Type
REMARK                         _______ _______ _______ _____ _____    ______ ____
ROOT
ATOM      1  C   UNL     1      -0.448  10.952  18.741  0.00  0.00    +0.000 A 
ATOM      2  N   UNL     1      -0.859  10.342  17.666  0.00  0.00    +0.000 NA
ATOM      3  C   UNL     1      -2.120  10.633  17.281  0.00  0.00    +0.000 A 
ATOM      4  S   UNL     1      -2.740  10.040  15.810  0.00  0.00    +0.000 S 
ATOM      5  C   UNL     1      -4.252  10.783  16.090  0.00  0.00    +0.000 A 
ATOM      6  C   UNL     1      -4.314  11.455  17.302  0.00  0.00    +0.000 A 
ATOM      7  C   UNL     1      -3.036  11.388  17.968  0.00  0.00    +0.000 A 
ATOM      8  C   UNL     1      -2.590  11.957  19.230  0.00  0.00    +0.000 A 
ATOM      9  O   UNL     1      -3.368  12.481  20.022  0.00  0.00    +0.000 OA
ATOM     10  N   UNL     1      -1.221  11.835  19.492  0.00  0.00    +0.000 N 
ENDROOT
BRANCH   6  11
ATOM     11  C   UNL     1      -5.556  12.120  17.722  0.00  0.00    +0.000 A 
ATOM     12  C   UNL     1      -6.258  11.679  18.853  0.00  0.00    +0.000 A 
ATOM     13  C   UNL     1      -7.438  12.312  19.258  0.00  0.00    +0.000 A 
ATOM     14  C   UNL     1      -7.916  13.416  18.557  0.00  0.00    +0.000 A 
ATOM     15  C   UNL     1      -7.226  13.875  17.442  0.00  0.00    +0.000 A 
ATOM     16  C   UNL     1      -6.071  13.215  17.015  0.00  0.00    +0.000 A 
ENDBRANCH   6  11
BRANCH   1  17
ATOM     17  S   UNL     1       1.175  10.548  19.290  0.00  0.00    +0.000 S 
BRANCH  17  23
ATOM     18  O   UNL     1       1.322   7.910  21.138  0.00  0.00    +0.000 OA
ATOM     19  C   UNL     1       1.803   7.907  20.015  0.00  0.00    +0.000 C 
ATOM     20  O   UNL     1       2.740   7.007  19.602  0.00  0.00    +0.000 OA
ATOM     21  C   UNL     1       3.095   7.230  18.240  0.00  0.00    +0.000 C 
ATOM     22  C   UNL     1       2.348   8.454  17.754  0.00  0.00    +0.000 C 
ATOM     23  C   UNL     1       1.370   8.777  18.864  0.00  0.00    +0.000 C 
ENDBRANCH  17  23
ENDBRANCH   1  17
BRANCH  10  24
ATOM     24  C   UNL     1      -0.761  12.661  20.631  0.00  0.00    +0.000 C 
BRANCH  24  25
ATOM     25  C   UNL     1      -0.023  13.908  20.166  0.00  0.00    +0.000 A 
ATOM     26  C   UNL     1      -0.584  14.818  19.249  0.00  0.00    +0.000 A 
ATOM     27  C   UNL     1       0.186  15.864  18.723  0.00  0.00    +0.000 A 
ATOM     28  C   UNL     1       1.514  16.019  19.112  0.00  0.00    +0.000 A 
ATOM     29  C   UNL     1       2.052  15.176  20.081  0.00  0.00    +0.000 A 
ATOM     30  C   UNL     1       1.285  14.139  20.612  0.00  0.00    +0.000 A 
ENDBRANCH  24  25
ENDBRANCH  10  24
TORSDOF 5
ENDMDL
MODEL 6
REMARK VINA RESULT:      -7.8      6.909     10.767
REMARK  Name = 
REMARK  5 active torsions:
REMARK  status: ('A' for Active; 'I' for Inactive)
REMARK    1  A    between atoms: C_6  and  S_7
REMARK    2  A    between atoms: S_7  and  C_8
REMARK    3  A    between atoms: C_13  and  C_14
REMARK    4  A    between atoms: N_23  and  C_24
REMARK    5  A    between atoms: C_24  and  C_25
REMARK                            x       y       z     vdW  Elec       q    Type
REMARK                         _______ _______ _______ _____ _____    ______ ____
ROOT
ATOM      1  C   UNL     1      -3.741  13.555  22.120  0.00  0.00    +0.000 A 
ATOM      2  N   UNL     1      -4.987  13.302  21.833  0.00  0.00    +0.000 NA
ATOM      3  C   UNL     1      -5.187  12.574  20.714  0.00  0.00    +0.000 A 
ATOM      4  S   UNL     1      -6.745  12.028  20.298  0.00  0.00    +0.000 S 
ATOM      5  C   UNL     1      -6.160  11.289  18.873  0.00  0.00    +0.000 A 
ATOM      6  C   UNL     1      -4.799  11.472  18.683  0.00  0.00    +0.000 A 
ATOM      7  C   UNL     1      -4.238  12.196  19.798  0.00  0.00    +0.000 A 
ATOM      8  C   UNL     1      -2.870  12.599  20.080  0.00  0.00    +0.000 A 
ATOM      9  O   UNL     1      -1.972  12.493  19.249  0.00  0.00    +0.000 OA
ATOM     10  N   UNL     1      -2.655  13.146  21.350  0.00  0.00    +0.000 N 
ENDROOT
BRANCH   6  11
ATOM     11  C   UNL     1      -4.134  10.935  17.486  0.00  0.00    +0.000 A 
ATOM     12  C   UNL     1      -4.408  11.463  16.217  0.00  0.00    +0.000 A 
ATOM     13  C   UNL     1      -3.775  10.957  15.077  0.00  0.00    +0.000 A 
ATOM     14  C   UNL     1      -2.835   9.936  15.193  0.00  0.00    +0.000 A 
ATOM     15  C   UNL     1      -2.541   9.410  16.445  0.00  0.00    +0.000 A 
ATOM     16  C   UNL     1      -3.206   9.889  17.577  0.00  0.00    +0.000 A 
ENDBRANCH   6  11
BRANCH   1  17
ATOM     17  S   UNL     1      -3.460  14.546  23.548  0.00  0.00    +0.000 S 
BRANCH  17  23
ATOM     18  O   UNL     1      -5.859  16.575  24.275  0.00  0.00    +0.000 OA
ATOM     19  C   UNL     1      -5.233  16.703  23.234  0.00  0.00    +0.000 C 
ATOM     20  O   UNL     1      -5.701  17.399  22.158  0.00  0.00    +0.000 OA
ATOM     21  C   UNL     1      -4.747  17.400  21.099  0.00  0.00    +0.000 C 
ATOM     22  C   UNL     1      -3.568  16.552  21.527  0.00  0.00    +0.000 C 
ATOM     23  C   UNL     1      -3.816  16.255  22.991  0.00  0.00    +0.000 C 
ENDBRANCH  17  23
ENDBRANCH   1  17
BRANCH  10  24
ATOM     24  C   UNL     1      -1.224  13.281  21.702  0.00  0.00    +0.000 C 
BRANCH  24  25
ATOM     25  C   UNL     1      -0.585  11.933  22.003  0.00  0.00    +0.000 A 
ATOM     26  C   UNL     1       0.486  11.419  21.245  0.00  0.00    +0.000 A 
ATOM     27  C   UNL     1       0.939  10.109  21.451  0.00  0.00    +0.000 A 
ATOM     28  C   UNL     1       0.339   9.305  22.417  0.00  0.00    +0.000 A 
ATOM     29  C   UNL     1      -0.662   9.833  23.228  0.00  0.00    +0.000 A 
ATOM     30  C   UNL     1      -1.109  11.139  23.031  0.00  0.00    +0.000 A 
ENDBRANCH  24  25
ENDBRANCH  10  24
TORSDOF 5
ENDMDL
MODEL 7
REMARK VINA RESULT:      -7.8      4.637      8.111
REMARK  Name = 
REMARK  5 active torsions:
REMARK  status: ('A' for Active; 'I' for Inactive)
REMARK    1  A    between atoms: C_6  and  S_7
REMARK    2  A    between atoms: S_7  and  C_8
REMARK    3  A    between atoms: C_13  and  C_14
REMARK    4  A    between atoms: N_23  and  C_24
REMARK    5  A    between atoms: C_24  and  C_25
REMARK                            x       y       z     vdW  Elec       q    Type
REMARK                         _______ _______ _______ _____ _____    ______ ____
ROOT
ATOM      1  C   UNL     1      -0.429  10.947  18.672  0.00  0.00    +0.000 A 
ATOM      2  N   UNL     1      -0.879  10.290  17.641  0.00  0.00    +0.000 NA
ATOM      3  C   UNL     1      -2.149  10.577  17.281  0.00  0.00    +0.000 A 
ATOM      4  S   UNL     1      -2.819   9.919  15.861  0.00  0.00    +0.000 S 
ATOM      5  C   UNL     1      -4.315  10.692  16.150  0.00  0.00    +0.000 A 
ATOM      6  C   UNL     1      -4.332  11.423  17.328  0.00  0.00    +0.000 A 
ATOM      7  C   UNL     1      -3.035  11.374  17.958  0.00  0.00    +0.000 A 
ATOM      8  C   UNL     1      -2.545  11.999  19.176  0.00  0.00    +0.000 A 
ATOM      9  O   UNL     1      -3.292  12.570  19.965  0.00  0.00    +0.000 OA
ATOM     10  N   UNL     1      -1.170  11.875  19.402  0.00  0.00    +0.000 N 
ENDROOT
BRANCH   6  11
ATOM     11  C   UNL     1      -5.554  12.123  17.753  0.00  0.00    +0.000 A 
ATOM     12  C   UNL     1      -6.074  13.182  16.996  0.00  0.00    +0.000 A 
ATOM     13  C   UNL     1      -7.238  13.847  17.395  0.00  0.00    +0.000 A 
ATOM     14  C   UNL     1      -7.917  13.443  18.542  0.00  0.00    +0.000 A 
ATOM     15  C   UNL     1      -7.423  12.386  19.297  0.00  0.00    +0.000 A 
ATOM     16  C   UNL     1      -6.237  11.751  18.918  0.00  0.00    +0.000 A 
ENDBRANCH   6  11
BRANCH   1  17
ATOM     17  S   UNL     1       1.206  10.552  19.190  0.00  0.00    +0.000 S 
BRANCH  17  23
ATOM     18  O   UNL     1       1.334   7.963  21.108  0.00  0.00    +0.000 OA
ATOM     19  C   UNL     1       1.811   7.925  19.984  0.00  0.00    +0.000 C 
ATOM     20  O   UNL     1       2.739   7.005  19.593  0.00  0.00    +0.000 OA
ATOM     21  C   UNL     1       3.091   7.189  18.225  0.00  0.00    +0.000 C 
ATOM     22  C   UNL     1       2.355   8.406  17.708  0.00  0.00    +0.000 C 
ATOM     23  C   UNL     1       1.383   8.768  18.812  0.00  0.00    +0.000 C 
ENDBRANCH  17  23
ENDBRANCH   1  17
BRANCH  10  24
ATOM     24  C   UNL     1      -0.666  12.749  20.485  0.00  0.00    +0.000 C 
BRANCH  24  25
ATOM     25  C   UNL     1       0.031  13.986  19.937  0.00  0.00    +0.000 A 
ATOM     26  C   UNL     1       1.429  14.151  19.994  0.00  0.00    +0.000 A 
ATOM     27  C   UNL     1       2.017  15.369  19.626  0.00  0.00    +0.000 A 
ATOM     28  C   UNL     1       1.221  16.426  19.190  0.00  0.00    +0.000 A 
ATOM     29  C   UNL     1      -0.152  16.244  19.049  0.00  0.00    +0.000 A 
ATOM     30  C   UNL     1      -0.738  15.030  19.407  0.00  0.00    +0.000 A 
ENDBRANCH  24  25
ENDBRANCH  10  24
TORSDOF 5
ENDMDL
MODEL 8
REMARK VINA RESULT:      -7.8      6.579      9.859
REMARK  Name = 
REMARK  5 active torsions:
REMARK  status: ('A' for Active; 'I' for Inactive)
REMARK    1  A    between atoms: C_6  and  S_7
REMARK    2  A    between atoms: S_7  and  C_8
REMARK    3  A    between atoms: C_13  and  C_14
REMARK    4  A    between atoms: N_23  and  C_24
REMARK    5  A    between atoms: C_24  and  C_25
REMARK                            x       y       z     vdW  Elec       q    Type
REMARK                         _______ _______ _______ _____ _____    ______ ____
ROOT
ATOM      1  C   UNL     1      -0.947  12.880  22.381  0.00  0.00    +0.000 A 
ATOM      2  N   UNL     1      -0.823  14.117  22.771  0.00  0.00    +0.000 NA
ATOM      3  C   UNL     1       0.107  14.841  22.113  0.00  0.00    +0.000 A 
ATOM      4  S   UNL     1       0.272  16.512  22.399  0.00  0.00    +0.000 S 
ATOM      5  C   UNL     1       1.564  16.625  21.289  0.00  0.00    +0.000 A 
ATOM      6  C   UNL     1       1.902  15.407  20.718  0.00  0.00    +0.000 A 
ATOM      7  C   UNL     1       1.006  14.378  21.187  0.00  0.00    +0.000 A 
ATOM      8  C   UNL     1       0.929  12.963  20.860  0.00  0.00    +0.000 A 
ATOM      9  O   UNL     1       1.795  12.395  20.201  0.00  0.00    +0.000 OA
ATOM     10  N   UNL     1      -0.184  12.289  21.376  0.00  0.00    +0.000 N 
ENDROOT
BRANCH   6  11
ATOM     11  C   UNL     1       3.020  15.314  19.767  0.00  0.00    +0.000 A 
ATOM     12  C   UNL     1       2.807  15.484  18.392  0.00  0.00    +0.000 A 
ATOM     13  C   UNL     1       3.869  15.399  17.485  0.00  0.00    +0.000 A 
ATOM     14  C   UNL     1       5.164  15.175  17.943  0.00  0.00    +0.000 A 
ATOM     15  C   UNL     1       5.396  15.018  19.304  0.00  0.00    +0.000 A 
ATOM     16  C   UNL     1       4.327  15.061  20.203  0.00  0.00    +0.000 A 
ENDBRANCH   6  11
BRANCH   1  17
ATOM     17  S   UNL     1      -2.118  11.903  23.259  0.00  0.00    +0.000 S 
BRANCH  17  23
ATOM     18  O   UNL     1      -4.473  12.238  25.438  0.00  0.00    +0.000 OA
ATOM     19  C   UNL     1      -4.680  12.483  24.259  0.00  0.00    +0.000 C 
ATOM     20  O   UNL     1      -5.927  12.522  23.709  0.00  0.00    +0.000 OA
ATOM     21  C   UNL     1      -5.862  12.858  22.325  0.00  0.00    +0.000 C 
ATOM     22  C   UNL     1      -4.404  12.977  21.938  0.00  0.00    +0.000 C 
ATOM     23  C   UNL     1      -3.648  12.912  23.249  0.00  0.00    +0.000 C 
ENDBRANCH  17  23
ENDBRANCH   1  17
BRANCH  10  24
ATOM     24  C   UNL     1      -0.379  10.940  20.799  0.00  0.00    +0.000 C 
BRANCH  24  25
ATOM     25  C   UNL     1      -1.142  10.992  19.483  0.00  0.00    +0.000 A 
ATOM     26  C   UNL     1      -2.280  11.804  19.303  0.00  0.00    +0.000 A 
ATOM     27  C   UNL     1      -3.048  11.703  18.135  0.00  0.00    +0.000 A 
ATOM     28  C   UNL     1      -2.684  10.804  17.135  0.00  0.00    +0.000 A 
ATOM     29  C   UNL     1      -1.515  10.060  17.268  0.00  0.00    +0.000 A 
ATOM     30  C   UNL     1      -0.745  10.164  18.426  0.00  0.00    +0.000 A 
ENDBRANCH  24  25
ENDBRANCH  10  24
TORSDOF 5
ENDMDL
MODEL 9
REMARK VINA RESULT:      -7.7      2.424      4.800
REMARK  Name = 
REMARK  5 active torsions:
REMARK  status: ('A' for Active; 'I' for Inactive)
REMARK    1  A    between atoms: C_6  and  S_7
REMARK    2  A    between atoms: S_7  and  C_8
REMARK    3  A    between atoms: C_13  and  C_14
REMARK    4  A    between atoms: N_23  and  C_24
REMARK    5  A    between atoms: C_24  and  C_25
REMARK                            x       y       z     vdW  Elec       q    Type
REMARK                         _______ _______ _______ _____ _____    ______ ____
ROOT
ATOM      1  C   UNL     1       2.956   6.364  19.211  0.00  0.00    +0.000 A 
ATOM      2  N   UNL     1       2.395   6.562  20.371  0.00  0.00    +0.000 NA
ATOM      3  C   UNL     1       1.641   7.679  20.465  0.00  0.00    +0.000 A 
ATOM      4  S   UNL     1       0.718   7.989  21.862  0.00  0.00    +0.000 S 
ATOM      5  C   UNL     1       0.154   9.468  21.221  0.00  0.00    +0.000 A 
ATOM      6  C   UNL     1       0.677   9.755  19.969  0.00  0.00    +0.000 A 
ATOM      7  C   UNL     1       1.518   8.670  19.526  0.00  0.00    +0.000 A 
ATOM      8  C   UNL     1       2.256   8.483  18.287  0.00  0.00    +0.000 A 
ATOM      9  O   UNL     1       2.382   9.381  17.458  0.00  0.00    +0.000 OA
ATOM     10  N   UNL     1       2.837   7.222  18.120  0.00  0.00    +0.000 N 
ENDROOT
BRANCH   6  11
ATOM     11  C   UNL     1       0.327  11.009  19.285  0.00  0.00    +0.000 A 
ATOM     12  C   UNL     1      -0.909  11.153  18.640  0.00  0.00    +0.000 A 
ATOM     13  C   UNL     1      -1.246  12.346  17.991  0.00  0.00    +0.000 A 
ATOM     14  C   UNL     1      -0.364  13.424  18.005  0.00  0.00    +0.000 A 
ATOM     15  C   UNL     1       0.860  13.303  18.652  0.00  0.00    +0.000 A 
ATOM     16  C   UNL     1       1.211  12.096  19.263  0.00  0.00    +0.000 A 
ENDBRANCH   6  11
BRANCH   1  17
ATOM     17  S   UNL     1       3.984   4.941  19.081  0.00  0.00    +0.000 S 
BRANCH  17  23
ATOM     18  O   UNL     1       1.285   3.959  17.615  0.00  0.00    +0.000 OA
ATOM     19  C   UNL     1       1.503   3.657  18.778  0.00  0.00    +0.000 C 
ATOM     20  O   UNL     1       0.529   3.257  19.645  0.00  0.00    +0.000 OA
ATOM     21  C   UNL     1       1.081   2.945  20.921  0.00  0.00    +0.000 C 
ATOM     22  C   UNL     1       2.563   3.247  20.879  0.00  0.00    +0.000 C 
ATOM     23  C   UNL     1       2.859   3.536  19.422  0.00  0.00    +0.000 C 
ENDBRANCH  17  23
ENDBRANCH   1  17
BRANCH  10  24
ATOM     24  C   UNL     1       3.331   6.974  16.746  0.00  0.00    +0.000 C 
BRANCH  24  25
ATOM     25  C   UNL     1       4.828   6.698  16.724  0.00  0.00    +0.000 A 
ATOM     26  C   UNL     1       5.374   5.555  16.106  0.00  0.00    +0.000 A 
ATOM     27  C   UNL     1       6.736   5.254  16.245  0.00  0.00    +0.000 A 
ATOM     28  C   UNL     1       7.564   6.090  16.990  0.00  0.00    +0.000 A 
ATOM     29  C   UNL     1       7.051   7.265  17.533  0.00  0.00    +0.000 A 
ATOM     30  C   UNL     1       5.698   7.571  17.388  0.00  0.00    +0.000 A 
ENDBRANCH  24  25
ENDBRANCH  10  24
TORSDOF 5
ENDMDL
