MODEL 1
REMARK VINA RESULT:      -7.4      0.000      0.000
REMARK  Name = 
REMARK  9 active torsions:
REMARK  status: ('A' for Active; 'I' for Inactive)
REMARK    1  A    between atoms: C_1  and  C_2
REMARK    2  A    between atoms: C_3  and  C_4
REMARK    3  A    between atoms: C_4  and  C_5
REMARK    4  A    between atoms: C_4  and  C_6
REMARK    5  A    between atoms: N_10  and  C_11
REMARK    6  A    between atoms: C_15  and  C_16
REMARK    7  A    between atoms: C_16  and  C_17
REMARK    8  A    between atoms: C_17  and  C_18
REMARK    9  A    between atoms: N_22  and  C_23
REMARK                            x       y       z     vdW  Elec       q    Type
REMARK                         _______ _______ _______ _____ _____    ______ ____
ROOT
ATOM      1  C   UNL     1       1.074   9.747  19.463  0.00  0.00    +0.000 A 
ATOM      2  C   UNL     1       0.578   9.475  20.741  0.00  0.00    +0.000 A 
ATOM      3  C   UNL     1       0.910   8.295  21.399  0.00  0.00    +0.000 A 
ATOM      4  C   UNL     1       1.700   7.342  20.764  0.00  0.00    +0.000 A 
ATOM      5  C   UNL     1       2.145   7.523  19.444  0.00  0.00    +0.000 A 
ATOM      6  C   UNL     1       1.839   8.762  18.835  0.00  0.00    +0.000 A 
ENDROOT
BRANCH   1  13
ATOM      7  C   UNL     1      -2.467  12.031  19.809  0.00  0.00    +0.000 C 
ATOM      8  C   UNL     1      -1.033  12.377  19.500  0.00  0.00    +0.000 C 
ATOM      9  C   UNL     1      -0.314  13.397  20.045  0.00  0.00    +0.000 C 
ATOM     10  C   UNL     1       1.102  13.791  19.621  0.00  0.00    +0.000 C 
ATOM     11  C   UNL     1       1.625  13.288  18.271  0.00  0.00    +0.000 C 
ATOM     12  C   UNL     1       1.934  11.794  18.298  0.00  0.00    +0.000 C 
ATOM     13  N   UNL     1       0.848  11.017  18.859  0.00  0.00    +0.000 N 
ATOM     14  C   UNL     1      -0.439  11.399  18.522  0.00  0.00    +0.000 C 
ATOM     15  O   UNL     1      -1.107  10.878  17.641  0.00  0.00    +0.000 OA
BRANCH   9  16
ATOM     16  C   UNL     1      -0.910  14.250  21.175  0.00  0.00    +0.000 C 
ATOM     17  C   UNL     1      -0.506  13.807  22.589  0.00  0.00    +0.000 C 
ATOM     18  C   UNL     1      -0.581  15.730  20.980  0.00  0.00    +0.000 C 
ENDBRANCH   9  16
ENDBRANCH   1  13
BRANCH   5  19
ATOM     19  C   UNL     1       2.874   6.379  18.602  0.00  0.00    +0.000 C 
ATOM     20  C   UNL     1       4.064   5.731  19.373  0.00  0.00    +0.000 C 
ATOM     21  O   UNL     1       4.866   5.709  18.169  0.00  0.00    +0.000 OA
ATOM     22  C   UNL     1       4.004   6.734  17.595  0.00  0.00    +0.000 C 
BRANCH  19  23
ATOM     23  C   UNL     1       1.890   5.317  18.076  0.00  0.00    +0.000 C 
BRANCH  23  24
ATOM     24  C   UNL     1       1.745   4.127  18.964  0.00  0.00    +0.000 A 
ATOM     25  N   UNL     1       1.008   4.061  20.055  0.00  0.00    +0.000 NA
ATOM     26  N   UNL     1       1.059   2.773  20.534  0.00  0.00    +0.000 NA
ATOM     27  C   UNL     1       1.828   2.080  19.728  0.00  0.00    +0.000 A 
ATOM     28  N   UNL     1       2.299   2.890  18.743  0.00  0.00    +0.000 N 
ATOM     29  C   UNL     1       3.182   2.485  17.683  0.00  0.00    +0.000 C 
ENDBRANCH  23  24
ENDBRANCH  19  23
ENDBRANCH   5  19
TORSDOF 5
ENDMDL
MODEL 2
REMARK VINA RESULT:      -7.2      0.594      1.153
REMARK  Name = 
REMARK  9 active torsions:
REMARK  status: ('A' for Active; 'I' for Inactive)
REMARK    1  A    between atoms: C_1  and  C_2
REMARK    2  A    between atoms: C_3  and  C_4
REMARK    3  A    between atoms: C_4  and  C_5
REMARK    4  A    between atoms: C_4  and  C_6
REMARK    5  A    between atoms: N_10  and  C_11
REMARK    6  A    between atoms: C_15  and  C_16
REMARK    7  A    between atoms: C_16  and  C_17
REMARK    8  A    between atoms: C_17  and  C_18
REMARK    9  A    between atoms: N_22  and  C_23
REMARK                            x       y       z     vdW  Elec       q    Type
REMARK                         _______ _______ _______ _____ _____    ______ ____
ROOT
ATOM      1  C   UNL     1       1.119   9.653  19.426  0.00  0.00    +0.000 A 
ATOM      2  C   UNL     1       0.626   9.344  20.697  0.00  0.00    +0.000 A 
ATOM      3  C   UNL     1       0.966   8.149  21.323  0.00  0.00    +0.000 A 
ATOM      4  C   UNL     1       1.761   7.218  20.662  0.00  0.00    +0.000 A 
ATOM      5  C   UNL     1       2.203   7.436  19.346  0.00  0.00    +0.000 A 
ATOM      6  C   UNL     1       1.888   8.689  18.771  0.00  0.00    +0.000 A 
ENDROOT
BRANCH   1  13
ATOM      7  C   UNL     1      -2.440  11.901  19.826  0.00  0.00    +0.000 C 
ATOM      8  C   UNL     1      -1.008  12.266  19.530  0.00  0.00    +0.000 C 
ATOM      9  C   UNL     1      -0.298  13.276  20.103  0.00  0.00    +0.000 C 
ATOM     10  C   UNL     1       1.116  13.691  19.693  0.00  0.00    +0.000 C 
ATOM     11  C   UNL     1       1.646  13.229  18.332  0.00  0.00    +0.000 C 
ATOM     12  C   UNL     1       1.966  11.737  18.318  0.00  0.00    +0.000 C 
ATOM     13  N   UNL     1       0.884  10.937  18.856  0.00  0.00    +0.000 N 
ATOM     14  C   UNL     1      -0.405  11.319  18.527  0.00  0.00    +0.000 C 
ATOM     15  O   UNL     1      -1.067  10.816  17.631  0.00  0.00    +0.000 OA
BRANCH   9  16
ATOM     16  C   UNL     1      -0.902  14.093  21.255  0.00  0.00    +0.000 C 
ATOM     17  C   UNL     1      -0.670  13.496  22.651  0.00  0.00    +0.000 C 
ATOM     18  C   UNL     1      -0.410  15.540  21.221  0.00  0.00    +0.000 C 
ENDBRANCH   9  16
ENDBRANCH   1  13
BRANCH   5  19
ATOM     19  C   UNL     1       2.937   6.319  18.473  0.00  0.00    +0.000 C 
ATOM     20  C   UNL     1       4.043   5.564  19.271  0.00  0.00    +0.000 C 
ATOM     21  O   UNL     1       4.922   5.586  18.122  0.00  0.00    +0.000 OA
ATOM     22  C   UNL     1       4.145   6.688  17.569  0.00  0.00    +0.000 C 
BRANCH  19  23
ATOM     23  C   UNL     1       1.945   5.344  17.810  0.00  0.00    +0.000 C 
BRANCH  23  24
ATOM     24  C   UNL     1       2.197   3.908  18.130  0.00  0.00    +0.000 A 
ATOM     25  N   UNL     1       2.938   3.077  17.425  0.00  0.00    +0.000 NA
ATOM     26  N   UNL     1       3.002   1.879  18.097  0.00  0.00    +0.000 NA
ATOM     27  C   UNL     1       2.298   2.002  19.196  0.00  0.00    +0.000 A 
ATOM     28  N   UNL     1       1.756   3.248  19.250  0.00  0.00    +0.000 N 
ATOM     29  C   UNL     1       0.911   3.744  20.303  0.00  0.00    +0.000 C 
ENDBRANCH  23  24
ENDBRANCH  19  23
ENDBRANCH   5  19
TORSDOF 5
ENDMDL
MODEL 3
REMARK VINA RESULT:      -7.0      2.134      2.724
REMARK  Name = 
REMARK  9 active torsions:
REMARK  status: ('A' for Active; 'I' for Inactive)
REMARK    1  A    between atoms: C_1  and  C_2
REMARK    2  A    between atoms: C_3  and  C_4
REMARK    3  A    between atoms: C_4  and  C_5
REMARK    4  A    between atoms: C_4  and  C_6
REMARK    5  A    between atoms: N_10  and  C_11
REMARK    6  A    between atoms: C_15  and  C_16
REMARK    7  A    between atoms: C_16  and  C_17
REMARK    8  A    between atoms: C_17  and  C_18
REMARK    9  A    between atoms: N_22  and  C_23
REMARK                            x       y       z     vdW  Elec       q    Type
REMARK                         _______ _______ _______ _____ _____    ______ ____
ROOT
ATOM      1  C   UNL     1       1.308   9.201  19.335  0.00  0.00    +0.000 A 
ATOM      2  C   UNL     1       0.758   8.946  20.594  0.00  0.00    +0.000 A 
ATOM      3  C   UNL     1       1.070   7.779  21.285  0.00  0.00    +0.000 A 
ATOM      4  C   UNL     1       1.894   6.822  20.701  0.00  0.00    +0.000 A 
ATOM      5  C   UNL     1       2.395   6.985  19.399  0.00  0.00    +0.000 A 
ATOM      6  C   UNL     1       2.107   8.212  18.757  0.00  0.00    +0.000 A 
ENDROOT
BRANCH   1  13
ATOM      7  C   UNL     1      -2.254  11.473  19.506  0.00  0.00    +0.000 C 
ATOM      8  C   UNL     1      -0.810  11.821  19.246  0.00  0.00    +0.000 C 
ATOM      9  C   UNL     1      -0.118  12.853  19.800  0.00  0.00    +0.000 C 
ATOM     10  C   UNL     1       1.312  13.247  19.424  0.00  0.00    +0.000 C 
ATOM     11  C   UNL     1       1.889  12.725  18.104  0.00  0.00    +0.000 C 
ATOM     12  C   UNL     1       2.203  11.233  18.168  0.00  0.00    +0.000 C 
ATOM     13  N   UNL     1       1.099  10.459  18.701  0.00  0.00    +0.000 N 
ATOM     14  C   UNL     1      -0.175  10.829  18.309  0.00  0.00    +0.000 C 
ATOM     15  O   UNL     1      -0.806  10.289  17.411  0.00  0.00    +0.000 OA
BRANCH   9  16
ATOM     16  C   UNL     1      -0.761  13.722  20.892  0.00  0.00    +0.000 C 
ATOM     17  C   UNL     1      -0.412  13.303  22.328  0.00  0.00    +0.000 C 
ATOM     18  C   UNL     1      -0.428  15.200  20.687  0.00  0.00    +0.000 C 
ENDBRANCH   9  16
ENDBRANCH   1  13
BRANCH   5  19
ATOM     19  C   UNL     1       3.168   5.834  18.608  0.00  0.00    +0.000 C 
ATOM     20  C   UNL     1       2.201   4.842  17.893  0.00  0.00    +0.000 C 
ATOM     21  O   UNL     1       3.025   3.718  18.281  0.00  0.00    +0.000 OA
ATOM     22  C   UNL     1       3.614   4.535  19.335  0.00  0.00    +0.000 C 
BRANCH  19  23
ATOM     23  C   UNL     1       4.229   6.394  17.640  0.00  0.00    +0.000 C 
BRANCH  23  24
ATOM     24  C   UNL     1       5.571   5.756  17.772  0.00  0.00    +0.000 A 
ATOM     25  N   UNL     1       6.409   5.918  18.776  0.00  0.00    +0.000 NA
ATOM     26  N   UNL     1       7.489   5.090  18.576  0.00  0.00    +0.000 NA
ATOM     27  C   UNL     1       7.289   4.443  17.454  0.00  0.00    +0.000 A 
ATOM     28  N   UNL     1       6.113   4.842  16.902  0.00  0.00    +0.000 N 
ATOM     29  C   UNL     1       5.568   4.360  15.662  0.00  0.00    +0.000 C 
ENDBRANCH  23  24
ENDBRANCH  19  23
ENDBRANCH   5  19
TORSDOF 5
ENDMDL
MODEL 4
REMARK VINA RESULT:      -6.9      4.479      8.851
REMARK  Name = 
REMARK  9 active torsions:
REMARK  status: ('A' for Active; 'I' for Inactive)
REMARK    1  A    between atoms: C_1  and  C_2
REMARK    2  A    between atoms: C_3  and  C_4
REMARK    3  A    between atoms: C_4  and  C_5
REMARK    4  A    between atoms: C_4  and  C_6
REMARK    5  A    between atoms: N_10  and  C_11
REMARK    6  A    between atoms: C_15  and  C_16
REMARK    7  A    between atoms: C_16  and  C_17
REMARK    8  A    between atoms: C_17  and  C_18
REMARK    9  A    between atoms: N_22  and  C_23
REMARK                            x       y       z     vdW  Elec       q    Type
REMARK                         _______ _______ _______ _____ _____    ______ ____
ROOT
ATOM      1  C   UNL     1      -2.318  11.105  17.812  0.00  0.00    +0.000 A 
ATOM      2  C   UNL     1      -2.569  10.673  16.507  0.00  0.00    +0.000 A 
ATOM      3  C   UNL     1      -3.811  10.877  15.914  0.00  0.00    +0.000 A 
ATOM      4  C   UNL     1      -4.841  11.467  16.640  0.00  0.00    +0.000 A 
ATOM      5  C   UNL     1      -4.671  11.831  17.986  0.00  0.00    +0.000 A 
ATOM      6  C   UNL     1      -3.377  11.665  18.530  0.00  0.00    +0.000 A 
ENDROOT
BRANCH   1  13
ATOM      7  C   UNL     1      -0.836  13.443  21.009  0.00  0.00    +0.000 C 
ATOM      8  C   UNL     1      -0.456  12.099  20.439  0.00  0.00    +0.000 C 
ATOM      9  C   UNL     1      -0.211  10.964  21.148  0.00  0.00    +0.000 C 
ATOM     10  C   UNL     1       0.287   9.649  20.545  0.00  0.00    +0.000 C 
ATOM     11  C   UNL     1       0.914   9.679  19.147  0.00  0.00    +0.000 C 
ATOM     12  C   UNL     1      -0.129   9.908  18.057  0.00  0.00    +0.000 C 
ATOM     13  N   UNL     1      -1.005  11.022  18.357  0.00  0.00    +0.000 N 
ATOM     14  C   UNL     1      -0.427  12.139  18.935  0.00  0.00    +0.000 C 
ATOM     15  O   UNL     1      -0.091  13.140  18.319  0.00  0.00    +0.000 OA
BRANCH   9  16
ATOM     16  C   UNL     1      -0.436  10.932  22.667  0.00  0.00    +0.000 C 
ATOM     17  C   UNL     1      -1.877  11.238  23.105  0.00  0.00    +0.000 C 
ATOM     18  C   UNL     1       0.016   9.599  23.263  0.00  0.00    +0.000 C 
ENDBRANCH   9  16
ENDBRANCH   1  13
BRANCH   5  19
ATOM     19  C   UNL     1      -5.872  12.316  18.919  0.00  0.00    +0.000 C 
ATOM     20  C   UNL     1      -7.271  12.066  18.277  0.00  0.00    +0.000 C 
ATOM     21  O   UNL     1      -7.742  13.353  18.742  0.00  0.00    +0.000 OA
ATOM     22  C   UNL     1      -6.359  13.792  18.881  0.00  0.00    +0.000 C 
BRANCH  19  23
ATOM     23  C   UNL     1      -5.786  11.732  20.343  0.00  0.00    +0.000 C 
BRANCH  23  24
ATOM     24  C   UNL     1      -5.572  12.753  21.409  0.00  0.00    +0.000 A 
ATOM     25  N   UNL     1      -4.443  13.388  21.657  0.00  0.00    +0.000 NA
ATOM     26  N   UNL     1      -4.677  14.315  22.645  0.00  0.00    +0.000 NA
ATOM     27  C   UNL     1      -5.941  14.226  22.982  0.00  0.00    +0.000 A 
ATOM     28  N   UNL     1      -6.538  13.247  22.251  0.00  0.00    +0.000 N 
ATOM     29  C   UNL     1      -7.916  12.853  22.354  0.00  0.00    +0.000 C 
ENDBRANCH  23  24
ENDBRANCH  19  23
ENDBRANCH   5  19
TORSDOF 5
ENDMDL
MODEL 5
REMARK VINA RESULT:      -6.9      2.246      3.538
REMARK  Name = 
REMARK  9 active torsions:
REMARK  status: ('A' for Active; 'I' for Inactive)
REMARK    1  A    between atoms: C_1  and  C_2
REMARK    2  A    between atoms: C_3  and  C_4
REMARK    3  A    between atoms: C_4  and  C_5
REMARK    4  A    between atoms: C_4  and  C_6
REMARK    5  A    between atoms: N_10  and  C_11
REMARK    6  A    between atoms: C_15  and  C_16
REMARK    7  A    between atoms: C_16  and  C_17
REMARK    8  A    between atoms: C_17  and  C_18
REMARK    9  A    between atoms: N_22  and  C_23
REMARK                            x       y       z     vdW  Elec       q    Type
REMARK                         _______ _______ _______ _____ _____    ______ ____
ROOT
ATOM      1  C   UNL     1       1.201   9.767  20.046  0.00  0.00    +0.000 A 
ATOM      2  C   UNL     1       1.402  10.279  18.762  0.00  0.00    +0.000 A 
ATOM      3  C   UNL     1       1.788   9.449  17.714  0.00  0.00    +0.000 A 
ATOM      4  C   UNL     1       2.036   8.100  17.951  0.00  0.00    +0.000 A 
ATOM      5  C   UNL     1       1.944   7.554  19.242  0.00  0.00    +0.000 A 
ATOM      6  C   UNL     1       1.487   8.418  20.264  0.00  0.00    +0.000 A 
ENDROOT
BRANCH   1  13
ATOM      7  C   UNL     1      -0.072  13.770  19.563  0.00  0.00    +0.000 C 
ATOM      8  C   UNL     1      -0.408  12.685  20.553  0.00  0.00    +0.000 C 
ATOM      9  C   UNL     1      -1.655  12.332  20.970  0.00  0.00    +0.000 C 
ATOM     10  C   UNL     1      -1.951  11.305  22.065  0.00  0.00    +0.000 C 
ATOM     11  C   UNL     1      -0.821  10.914  23.023  0.00  0.00    +0.000 C 
ATOM     12  C   UNL     1       0.231  10.043  22.341  0.00  0.00    +0.000 C 
ATOM     13  N   UNL     1       0.668  10.595  21.075  0.00  0.00    +0.000 N 
ATOM     14  C   UNL     1       0.833  11.967  21.011  0.00  0.00    +0.000 C 
ATOM     15  O   UNL     1       1.907  12.540  21.129  0.00  0.00    +0.000 OA
BRANCH   9  16
ATOM     16  C   UNL     1      -2.898  12.971  20.332  0.00  0.00    +0.000 C 
ATOM     17  C   UNL     1      -3.534  12.141  19.206  0.00  0.00    +0.000 C 
ATOM     18  C   UNL     1      -3.949  13.306  21.389  0.00  0.00    +0.000 C 
ENDBRANCH   9  16
ENDBRANCH   1  13
BRANCH   5  19
ATOM     19  C   UNL     1       2.415   6.072  19.601  0.00  0.00    +0.000 C 
ATOM     20  C   UNL     1       1.622   4.983  18.816  0.00  0.00    +0.000 C 
ATOM     21  O   UNL     1       1.548   4.150  19.997  0.00  0.00    +0.000 OA
ATOM     22  C   UNL     1       1.811   5.323  20.821  0.00  0.00    +0.000 C 
BRANCH  19  23
ATOM     23  C   UNL     1       3.937   5.886  19.454  0.00  0.00    +0.000 C 
BRANCH  23  24
ATOM     24  C   UNL     1       4.350   5.211  18.189  0.00  0.00    +0.000 A 
ATOM     25  N   UNL     1       4.547   5.801  17.026  0.00  0.00    +0.000 NA
ATOM     26  N   UNL     1       5.012   4.860  16.138  0.00  0.00    +0.000 NA
ATOM     27  C   UNL     1       5.086   3.716  16.773  0.00  0.00    +0.000 A 
ATOM     28  N   UNL     1       4.661   3.881  18.055  0.00  0.00    +0.000 N 
ATOM     29  C   UNL     1       4.589   2.844  19.048  0.00  0.00    +0.000 C 
ENDBRANCH  23  24
ENDBRANCH  19  23
ENDBRANCH   5  19
TORSDOF 5
ENDMDL
MODEL 6
REMARK VINA RESULT:      -6.8      2.253      3.643
REMARK  Name = 
REMARK  9 active torsions:
REMARK  status: ('A' for Active; 'I' for Inactive)
REMARK    1  A    between atoms: C_1  and  C_2
REMARK    2  A    between atoms: C_3  and  C_4
REMARK    3  A    between atoms: C_4  and  C_5
REMARK    4  A    between atoms: C_4  and  C_6
REMARK    5  A    between atoms: N_10  and  C_11
REMARK    6  A    between atoms: C_15  and  C_16
REMARK    7  A    between atoms: C_16  and  C_17
REMARK    8  A    between atoms: C_17  and  C_18
REMARK    9  A    between atoms: N_22  and  C_23
REMARK                            x       y       z     vdW  Elec       q    Type
REMARK                         _______ _______ _______ _____ _____    ______ ____
ROOT
ATOM      1  C   UNL     1       1.349   9.485  19.992  0.00  0.00    +0.000 A 
ATOM      2  C   UNL     1       1.529   9.947  18.686  0.00  0.00    +0.000 A 
ATOM      3  C   UNL     1       1.908   9.077  17.668  0.00  0.00    +0.000 A 
ATOM      4  C   UNL     1       2.168   7.741  17.954  0.00  0.00    +0.000 A 
ATOM      5  C   UNL     1       2.096   7.247  19.267  0.00  0.00    +0.000 A 
ATOM      6  C   UNL     1       1.647   8.147  20.260  0.00  0.00    +0.000 A 
ENDROOT
BRANCH   1  13
ATOM      7  C   UNL     1       0.148  13.495  19.389  0.00  0.00    +0.000 C 
ATOM      8  C   UNL     1      -0.214  12.443  20.407  0.00  0.00    +0.000 C 
ATOM      9  C   UNL     1      -1.469  12.123  20.824  0.00  0.00    +0.000 C 
ATOM     10  C   UNL     1      -1.791  11.132  21.945  0.00  0.00    +0.000 C 
ATOM     11  C   UNL     1      -0.674  10.748  22.921  0.00  0.00    +0.000 C 
ATOM     12  C   UNL     1       0.367   9.841  22.272  0.00  0.00    +0.000 C 
ATOM     13  N   UNL     1       0.822  10.350  20.994  0.00  0.00    +0.000 N 
ATOM     14  C   UNL     1       1.012  11.717  20.893  0.00  0.00    +0.000 C 
ATOM     15  O   UNL     1       2.095  12.274  21.003  0.00  0.00    +0.000 OA
BRANCH   9  16
ATOM     16  C   UNL     1      -2.696  12.765  20.159  0.00  0.00    +0.000 C 
ATOM     17  C   UNL     1      -3.298  11.947  19.007  0.00  0.00    +0.000 C 
ATOM     18  C   UNL     1      -3.778  13.084  21.191  0.00  0.00    +0.000 C 
ENDBRANCH   9  16
ENDBRANCH   1  13
BRANCH   5  19
ATOM     19  C   UNL     1       2.582   5.783  19.679  0.00  0.00    +0.000 C 
ATOM     20  C   UNL     1       1.806   4.659  18.929  0.00  0.00    +0.000 C 
ATOM     21  O   UNL     1       1.735   3.866  20.137  0.00  0.00    +0.000 OA
ATOM     22  C   UNL     1       1.981   5.069  20.922  0.00  0.00    +0.000 C 
BRANCH  19  23
ATOM     23  C   UNL     1       4.108   5.610  19.546  0.00  0.00    +0.000 C 
BRANCH  23  24
ATOM     24  C   UNL     1       4.538   4.952  18.278  0.00  0.00    +0.000 A 
ATOM     25  N   UNL     1       4.370   3.681  17.969  0.00  0.00    +0.000 NA
ATOM     26  N   UNL     1       4.809   3.487  16.681  0.00  0.00    +0.000 NA
ATOM     27  C   UNL     1       5.238   4.641  16.230  0.00  0.00    +0.000 A 
ATOM     28  N   UNL     1       5.110   5.584  17.201  0.00  0.00    +0.000 N 
ATOM     29  C   UNL     1       5.488   6.965  17.077  0.00  0.00    +0.000 C 
ENDBRANCH  23  24
ENDBRANCH  19  23
ENDBRANCH   5  19
TORSDOF 5
ENDMDL
MODEL 7
REMARK VINA RESULT:      -6.7      4.652      9.549
REMARK  Name = 
REMARK  9 active torsions:
REMARK  status: ('A' for Active; 'I' for Inactive)
REMARK    1  A    between atoms: C_1  and  C_2
REMARK    2  A    between atoms: C_3  and  C_4
REMARK    3  A    between atoms: C_4  and  C_5
REMARK    4  A    between atoms: C_4  and  C_6
REMARK    5  A    between atoms: N_10  and  C_11
REMARK    6  A    between atoms: C_15  and  C_16
REMARK    7  A    between atoms: C_16  and  C_17
REMARK    8  A    between atoms: C_17  and  C_18
REMARK    9  A    between atoms: N_22  and  C_23
REMARK                            x       y       z     vdW  Elec       q    Type
REMARK                         _______ _______ _______ _____ _____    ______ ____
ROOT
ATOM      1  C   UNL     1      -2.477  12.703  21.022  0.00  0.00    +0.000 A 
ATOM      2  C   UNL     1      -1.987  11.985  22.116  0.00  0.00    +0.000 A 
ATOM      3  C   UNL     1      -2.522  12.165  23.387  0.00  0.00    +0.000 A 
ATOM      4  C   UNL     1      -3.521  13.111  23.593  0.00  0.00    +0.000 A 
ATOM      5  C   UNL     1      -3.983  13.927  22.548  0.00  0.00    +0.000 A 
ATOM      6  C   UNL     1      -3.458  13.668  21.261  0.00  0.00    +0.000 A 
ENDROOT
BRANCH   1  13
ATOM      7  C   UNL     1       1.559  12.689  19.764  0.00  0.00    +0.000 C 
ATOM      8  C   UNL     1       0.310  12.016  19.256  0.00  0.00    +0.000 C 
ATOM      9  C   UNL     1       0.187  10.709  18.898  0.00  0.00    +0.000 C 
ATOM     10  C   UNL     1      -1.065  10.087  18.276  0.00  0.00    +0.000 C 
ATOM     11  C   UNL     1      -2.113  11.021  17.660  0.00  0.00    +0.000 C 
ATOM     12  C   UNL     1      -2.892  11.787  18.725  0.00  0.00    +0.000 C 
ATOM     13  N   UNL     1      -2.023  12.407  19.705  0.00  0.00    +0.000 N 
ATOM     14  C   UNL     1      -0.851  12.974  19.238  0.00  0.00    +0.000 C 
ATOM     15  O   UNL     1      -0.705  14.165  19.004  0.00  0.00    +0.000 OA
BRANCH   9  16
ATOM     16  C   UNL     1       1.353   9.731  19.113  0.00  0.00    +0.000 C 
ATOM     17  C   UNL     1       1.152   8.745  20.274  0.00  0.00    +0.000 C 
ATOM     18  C   UNL     1       1.673   8.965  17.830  0.00  0.00    +0.000 C 
ENDBRANCH   9  16
ENDBRANCH   1  13
BRANCH   5  19
ATOM     19  C   UNL     1      -4.972  15.161  22.772  0.00  0.00    +0.000 C 
ATOM     20  C   UNL     1      -4.383  16.506  22.249  0.00  0.00    +0.000 C 
ATOM     21  O   UNL     1      -4.888  17.207  23.410  0.00  0.00    +0.000 OA
ATOM     22  C   UNL     1      -4.979  15.937  24.118  0.00  0.00    +0.000 C 
BRANCH  19  23
ATOM     23  C   UNL     1      -6.381  14.897  22.205  0.00  0.00    +0.000 C 
BRANCH  23  24
ATOM     24  C   UNL     1      -6.972  13.593  22.623  0.00  0.00    +0.000 A 
ATOM     25  N   UNL     1      -7.317  13.257  23.851  0.00  0.00    +0.000 NA
ATOM     26  N   UNL     1      -7.913  12.019  23.809  0.00  0.00    +0.000 NA
ATOM     27  C   UNL     1      -7.916  11.622  22.560  0.00  0.00    +0.000 A 
ATOM     28  N   UNL     1      -7.318  12.564  21.782  0.00  0.00    +0.000 N 
ATOM     29  C   UNL     1      -7.127  12.472  20.360  0.00  0.00    +0.000 C 
ENDBRANCH  23  24
ENDBRANCH  19  23
ENDBRANCH   5  19
TORSDOF 5
ENDMDL
MODEL 8
REMARK VINA RESULT:      -6.7      2.106      2.984
REMARK  Name = 
REMARK  9 active torsions:
REMARK  status: ('A' for Active; 'I' for Inactive)
REMARK    1  A    between atoms: C_1  and  C_2
REMARK    2  A    between atoms: C_3  and  C_4
REMARK    3  A    between atoms: C_4  and  C_5
REMARK    4  A    between atoms: C_4  and  C_6
REMARK    5  A    between atoms: N_10  and  C_11
REMARK    6  A    between atoms: C_15  and  C_16
REMARK    7  A    between atoms: C_16  and  C_17
REMARK    8  A    between atoms: C_17  and  C_18
REMARK    9  A    between atoms: N_22  and  C_23
REMARK                            x       y       z     vdW  Elec       q    Type
REMARK                         _______ _______ _______ _____ _____    ______ ____
ROOT
ATOM      1  C   UNL     1       1.547   8.619  19.222  0.00  0.00    +0.000 A 
ATOM      2  C   UNL     1       1.230   8.501  20.578  0.00  0.00    +0.000 A 
ATOM      3  C   UNL     1       1.490   7.324  21.271  0.00  0.00    +0.000 A 
ATOM      4  C   UNL     1       2.020   6.225  20.603  0.00  0.00    +0.000 A 
ATOM      5  C   UNL     1       2.266   6.258  19.221  0.00  0.00    +0.000 A 
ATOM      6  C   UNL     1       2.048   7.492  18.567  0.00  0.00    +0.000 A 
ENDROOT
BRANCH   1  13
ATOM      7  C   UNL     1      -1.718  11.275  19.635  0.00  0.00    +0.000 C 
ATOM      8  C   UNL     1      -0.278  11.453  19.225  0.00  0.00    +0.000 C 
ATOM      9  C   UNL     1       0.572  12.420  19.666  0.00  0.00    +0.000 C 
ATOM     10  C   UNL     1       1.991  12.641  19.140  0.00  0.00    +0.000 C 
ATOM     11  C   UNL     1       2.375  12.016  17.794  0.00  0.00    +0.000 C 
ATOM     12  C   UNL     1       2.533  10.502  17.891  0.00  0.00    +0.000 C 
ATOM     13  N   UNL     1       1.411   9.872  18.558  0.00  0.00    +0.000 N 
ATOM     14  C   UNL     1       0.151  10.368  18.274  0.00  0.00    +0.000 C 
ATOM     15  O   UNL     1      -0.620   9.873  17.464  0.00  0.00    +0.000 OA
BRANCH   9  16
ATOM     16  C   UNL     1       0.138  13.388  20.777  0.00  0.00    +0.000 C 
ATOM     17  C   UNL     1       1.297  14.004  21.575  0.00  0.00    +0.000 C 
ATOM     18  C   UNL     1      -0.759  14.496  20.223  0.00  0.00    +0.000 C 
ENDBRANCH   9  16
ENDBRANCH   1  13
BRANCH   5  19
ATOM     19  C   UNL     1       2.675   4.968  18.373  0.00  0.00    +0.000 C 
ATOM     20  C   UNL     1       1.494   4.410  17.522  0.00  0.00    +0.000 C 
ATOM     21  O   UNL     1       1.865   3.050  17.853  0.00  0.00    +0.000 OA
ATOM     22  C   UNL     1       2.605   3.550  19.005  0.00  0.00    +0.000 C 
BRANCH  19  23
ATOM     23  C   UNL     1       3.935   5.200  17.517  0.00  0.00    +0.000 C 
BRANCH  23  24
ATOM     24  C   UNL     1       5.193   5.331  18.308  0.00  0.00    +0.000 A 
ATOM     25  N   UNL     1       5.513   4.628  19.377  0.00  0.00    +0.000 NA
ATOM     26  N   UNL     1       6.789   4.973  19.755  0.00  0.00    +0.000 NA
ATOM     27  C   UNL     1       7.221   5.880  18.914  0.00  0.00    +0.000 A 
ATOM     28  N   UNL     1       6.249   6.154  18.002  0.00  0.00    +0.000 N 
ATOM     29  C   UNL     1       6.356   7.107  16.932  0.00  0.00    +0.000 C 
ENDBRANCH  23  24
ENDBRANCH  19  23
ENDBRANCH   5  19
TORSDOF 5
ENDMDL
MODEL 9
REMARK VINA RESULT:      -6.6      4.683      9.293
REMARK  Name = 
REMARK  9 active torsions:
REMARK  status: ('A' for Active; 'I' for Inactive)
REMARK    1  A    between atoms: C_1  and  C_2
REMARK    2  A    between atoms: C_3  and  C_4
REMARK    3  A    between atoms: C_4  and  C_5
REMARK    4  A    between atoms: C_4  and  C_6
REMARK    5  A    between atoms: N_10  and  C_11
REMARK    6  A    between atoms: C_15  and  C_16
REMARK    7  A    between atoms: C_16  and  C_17
REMARK    8  A    between atoms: C_17  and  C_18
REMARK    9  A    between atoms: N_22  and  C_23
REMARK                            x       y       z     vdW  Elec       q    Type
REMARK                         _______ _______ _______ _____ _____    ______ ____
ROOT
ATOM      1  C   UNL     1      -2.965  11.569  18.301  0.00  0.00    +0.000 A 
ATOM      2  C   UNL     1      -3.642  11.387  17.093  0.00  0.00    +0.000 A 
ATOM      3  C   UNL     1      -4.982  11.740  16.965  0.00  0.00    +0.000 A 
ATOM      4  C   UNL     1      -5.681  12.227  18.064  0.00  0.00    +0.000 A 
ATOM      5  C   UNL     1      -5.075  12.338  19.327  0.00  0.00    +0.000 A 
ATOM      6  C   UNL     1      -3.697  12.030  19.398  0.00  0.00    +0.000 A 
ENDROOT
BRANCH   1  13
ATOM      7  C   UNL     1      -0.364  13.261  21.174  0.00  0.00    +0.000 C 
ATOM      8  C   UNL     1      -0.302  12.022  20.317  0.00  0.00    +0.000 C 
ATOM      9  C   UNL     1       0.044  10.772  20.731  0.00  0.00    +0.000 C 
ATOM     10  C   UNL     1       0.210   9.562  19.809  0.00  0.00    +0.000 C 
ATOM     11  C   UNL     1       0.377   9.808  18.306  0.00  0.00    +0.000 C 
ATOM     12  C   UNL     1      -0.926  10.262  17.652  0.00  0.00    +0.000 C 
ATOM     13  N   UNL     1      -1.561  11.342  18.381  0.00  0.00    +0.000 N 
ATOM     14  C   UNL     1      -0.734  12.318  18.906  0.00  0.00    +0.000 C 
ATOM     15  O   UNL     1      -0.513  13.397  18.374  0.00  0.00    +0.000 OA
BRANCH   9  16
ATOM     16  C   UNL     1       0.295  10.488  22.219  0.00  0.00    +0.000 C 
ATOM     17  C   UNL     1      -0.976  10.436  23.081  0.00  0.00    +0.000 C 
ATOM     18  C   UNL     1       1.103   9.204  22.406  0.00  0.00    +0.000 C 
ENDBRANCH   9  16
ENDBRANCH   1  13
BRANCH   5  19
ATOM     19  C   UNL     1      -5.883  12.692  20.658  0.00  0.00    +0.000 C 
ATOM     20  C   UNL     1      -7.079  11.724  20.909  0.00  0.00    +0.000 C 
ATOM     21  O   UNL     1      -7.916  12.828  21.328  0.00  0.00    +0.000 OA
ATOM     22  C   UNL     1      -7.022  13.748  20.635  0.00  0.00    +0.000 C 
BRANCH  19  23
ATOM     23  C   UNL     1      -4.967  12.799  21.892  0.00  0.00    +0.000 C 
BRANCH  23  24
ATOM     24  C   UNL     1      -4.996  14.132  22.559  0.00  0.00    +0.000 A 
ATOM     25  N   UNL     1      -5.642  14.428  23.670  0.00  0.00    +0.000 NA
ATOM     26  N   UNL     1      -5.342  15.725  24.012  0.00  0.00    +0.000 NA
ATOM     27  C   UNL     1      -4.523  16.196  23.104  0.00  0.00    +0.000 A 
ATOM     28  N   UNL     1      -4.294  15.243  22.161  0.00  0.00    +0.000 N 
ATOM     29  C   UNL     1      -3.457  15.401  21.003  0.00  0.00    +0.000 C 
ENDBRANCH  23  24
ENDBRANCH  19  23
ENDBRANCH   5  19
TORSDOF 5
ENDMDL
