MODEL 1
REMARK VINA RESULT:      -8.8      0.000      0.000
REMARK  Name = 
REMARK  3 active torsions:
REMARK  status: ('A' for Active; 'I' for Inactive)
REMARK    1  A    between atoms: C_2  and  C_5
REMARK    2  A    between atoms: C_5  and  C_6
REMARK    3  A    between atoms: C_8  and  C_9
REMARK                            x       y       z     vdW  Elec       q    Type
REMARK                         _______ _______ _______ _____ _____    ______ ____
ROOT
ATOM      1  C   UNL     1       3.139   4.709  18.282  0.00  0.00    +0.000 C 
ATOM      2  C   UNL     1       3.557   4.605  19.767  0.00  0.00    +0.000 C 
ATOM      3  C   UNL     1       2.466   5.349  20.519  0.00  0.00    +0.000 C 
ATOM      4  N   UNL     1       2.129   6.437  19.612  0.00  0.00    +0.000 N 
ATOM      5  C   UNL     1       1.746   7.700  20.050  0.00  0.00    +0.000 A 
ATOM      6  N   UNL     1       1.503   7.870  21.337  0.00  0.00    +0.000 NA
ATOM      7  C   UNL     1       1.138   9.115  21.813  0.00  0.00    +0.000 A 
ATOM      8  C   UNL     1       1.013  10.205  21.041  0.00  0.00    +0.000 A 
ATOM      9  N   UNL     1       1.258  10.072  19.694  0.00  0.00    +0.000 N 
ATOM     10  N   UNL     1       1.227  10.961  18.679  0.00  0.00    +0.000 NA
ATOM     11  N   UNL     1       1.556  10.278  17.588  0.00  0.00    +0.000 NA
ATOM     12  N   UNL     1       1.797   8.957  17.881  0.00  0.00    +0.000 NA
ATOM     13  C   UNL     1       1.611   8.852  19.174  0.00  0.00    +0.000 A 
ATOM     14  C   UNL     1       2.514   6.117  18.237  0.00  0.00    +0.000 C 
ENDROOT
BRANCH   1  15
ATOM     15  C   UNL     1       4.351   4.608  17.426  0.00  0.00    +0.000 A 
ATOM     16  N   UNL     1       4.435   4.654  16.117  0.00  0.00    +0.000 NA
ATOM     17  C   UNL     1       5.779   4.460  15.888  0.00  0.00    +0.000 A 
ATOM     18  N   UNL     1       6.498   4.297  17.011  0.00  0.00    +0.000 NA
ATOM     19  O   UNL     1       5.556   4.410  18.032  0.00  0.00    +0.000 OA
BRANCH  17  20
ATOM     20  C   UNL     1       6.329   4.417  14.540  0.00  0.00    +0.000 A 
ATOM     21  C   UNL     1       7.402   5.246  14.195  0.00  0.00    +0.000 A 
ATOM     22  C   UNL     1       7.889   5.195  12.902  0.00  0.00    +0.000 A 
ATOM     23  N   UNL     1       7.389   4.387  11.946  0.00  0.00    +0.000 NA
ATOM     24  C   UNL     1       6.357   3.590  12.299  0.00  0.00    +0.000 A 
ATOM     25  C   UNL     1       5.800   3.567  13.566  0.00  0.00    +0.000 A 
ENDBRANCH  17  20
ENDBRANCH   1  15
BRANCH   1  27
ATOM     26  F   UNL     1       1.846   2.786  18.905  0.00  0.00    +0.000 F 
ATOM     27  C   UNL     1       2.139   3.625  17.884  0.00  0.00    +0.000 C 
ATOM     28  F   UNL     1       2.579   2.846  16.870  0.00  0.00    +0.000 F 
ATOM     29  F   UNL     1       0.957   4.152  17.477  0.00  0.00    +0.000 F 
ENDBRANCH   1  27
TORSDOF 3
ENDMDL
MODEL 2
REMARK VINA RESULT:      -8.8      0.101      1.095
REMARK  Name = 
REMARK  3 active torsions:
REMARK  status: ('A' for Active; 'I' for Inactive)
REMARK    1  A    between atoms: C_2  and  C_5
REMARK    2  A    between atoms: C_5  and  C_6
REMARK    3  A    between atoms: C_8  and  C_9
REMARK                            x       y       z     vdW  Elec       q    Type
REMARK                         _______ _______ _______ _____ _____    ______ ____
ROOT
ATOM      1  C   UNL     1       3.188   4.678  18.269  0.00  0.00    +0.000 C 
ATOM      2  C   UNL     1       3.621   4.579  19.750  0.00  0.00    +0.000 C 
ATOM      3  C   UNL     1       2.524   5.305  20.513  0.00  0.00    +0.000 C 
ATOM      4  N   UNL     1       2.162   6.388  19.610  0.00  0.00    +0.000 N 
ATOM      5  C   UNL     1       1.762   7.644  20.053  0.00  0.00    +0.000 A 
ATOM      6  N   UNL     1       1.528   7.809  21.343  0.00  0.00    +0.000 NA
ATOM      7  C   UNL     1       1.148   9.048  21.823  0.00  0.00    +0.000 A 
ATOM      8  C   UNL     1       0.998  10.136  21.053  0.00  0.00    +0.000 A 
ATOM      9  N   UNL     1       1.232  10.008  19.703  0.00  0.00    +0.000 N 
ATOM     10  N   UNL     1       1.178  10.898  18.690  0.00  0.00    +0.000 NA
ATOM     11  N   UNL     1       1.508  10.221  17.595  0.00  0.00    +0.000 NA
ATOM     12  N   UNL     1       1.773   8.904  17.885  0.00  0.00    +0.000 NA
ATOM     13  C   UNL     1       1.601   8.795  19.180  0.00  0.00    +0.000 A 
ATOM     14  C   UNL     1       2.540   6.076  18.231  0.00  0.00    +0.000 C 
ENDROOT
BRANCH   1  15
ATOM     15  C   UNL     1       4.394   4.598  17.403  0.00  0.00    +0.000 A 
ATOM     16  N   UNL     1       4.465   4.646  16.093  0.00  0.00    +0.000 NA
ATOM     17  C   UNL     1       5.810   4.474  15.851  0.00  0.00    +0.000 A 
ATOM     18  N   UNL     1       6.541   4.321  16.968  0.00  0.00    +0.000 NA
ATOM     19  O   UNL     1       5.607   4.418  17.997  0.00  0.00    +0.000 OA
BRANCH  17  20
ATOM     20  C   UNL     1       6.348   4.442  14.498  0.00  0.00    +0.000 A 
ATOM     21  C   UNL     1       5.802   3.572  13.549  0.00  0.00    +0.000 A 
ATOM     22  C   UNL     1       6.349   3.552  12.278  0.00  0.00    +0.000 A 
ATOM     23  N   UNL     1       7.383   4.328  11.897  0.00  0.00    +0.000 NA
ATOM     24  C   UNL     1       7.893   5.165  12.826  0.00  0.00    +0.000 A 
ATOM     25  C   UNL     1       7.417   5.259  14.122  0.00  0.00    +0.000 A 
ENDBRANCH  17  20
ENDBRANCH   1  15
BRANCH   1  27
ATOM     26  F   UNL     1       0.949   4.048  17.678  0.00  0.00    +0.000 F 
ATOM     27  C   UNL     1       2.202   3.578  17.879  0.00  0.00    +0.000 C 
ATOM     28  F   UNL     1       2.095   2.608  18.814  0.00  0.00    +0.000 F 
ATOM     29  F   UNL     1       2.564   2.962  16.726  0.00  0.00    +0.000 F 
ENDBRANCH   1  27
TORSDOF 3
ENDMDL
MODEL 3
REMARK VINA RESULT:      -8.3      2.140      8.107
REMARK  Name = 
REMARK  3 active torsions:
REMARK  status: ('A' for Active; 'I' for Inactive)
REMARK    1  A    between atoms: C_2  and  C_5
REMARK    2  A    between atoms: C_5  and  C_6
REMARK    3  A    between atoms: C_8  and  C_9
REMARK                            x       y       z     vdW  Elec       q    Type
REMARK                         _______ _______ _______ _____ _____    ______ ____
ROOT
ATOM      1  C   UNL     1       2.390   5.817  19.289  0.00  0.00    +0.000 C 
ATOM      2  C   UNL     1       1.580   5.216  18.117  0.00  0.00    +0.000 C 
ATOM      3  C   UNL     1       2.527   4.210  17.481  0.00  0.00    +0.000 C 
ATOM      4  N   UNL     1       3.826   4.852  17.620  0.00  0.00    +0.000 N 
ATOM      5  C   UNL     1       4.841   4.724  16.679  0.00  0.00    +0.000 A 
ATOM      6  N   UNL     1       4.688   3.841  15.708  0.00  0.00    +0.000 NA
ATOM      7  C   UNL     1       5.666   3.699  14.743  0.00  0.00    +0.000 A 
ATOM      8  C   UNL     1       6.798   4.419  14.712  0.00  0.00    +0.000 A 
ATOM      9  N   UNL     1       6.997   5.350  15.705  0.00  0.00    +0.000 N 
ATOM     10  N   UNL     1       8.005   6.217  15.940  0.00  0.00    +0.000 NA
ATOM     11  N   UNL     1       7.665   6.879  17.040  0.00  0.00    +0.000 NA
ATOM     12  N   UNL     1       6.450   6.451  17.523  0.00  0.00    +0.000 NA
ATOM     13  C   UNL     1       6.058   5.518  16.691  0.00  0.00    +0.000 A 
ATOM     14  C   UNL     1       3.813   5.843  18.698  0.00  0.00    +0.000 C 
ENDROOT
BRANCH   1  15
ATOM     15  C   UNL     1       1.882   7.183  19.582  0.00  0.00    +0.000 A 
ATOM     16  N   UNL     1       1.316   7.628  20.680  0.00  0.00    +0.000 NA
ATOM     17  C   UNL     1       1.012   8.933  20.363  0.00  0.00    +0.000 A 
ATOM     18  N   UNL     1       1.373   9.281  19.116  0.00  0.00    +0.000 NA
ATOM     19  O   UNL     1       1.963   8.128  18.603  0.00  0.00    +0.000 OA
BRANCH  17  20
ATOM     20  C   UNL     1       0.341   9.816  21.307  0.00  0.00    +0.000 A 
ATOM     21  C   UNL     1      -0.219   9.292  22.477  0.00  0.00    +0.000 A 
ATOM     22  C   UNL     1      -0.866  10.155  23.344  0.00  0.00    +0.000 A 
ATOM     23  N   UNL     1      -0.990  11.479  23.127  0.00  0.00    +0.000 NA
ATOM     24  C   UNL     1      -0.438  11.966  21.995  0.00  0.00    +0.000 A 
ATOM     25  C   UNL     1       0.230  11.187  21.067  0.00  0.00    +0.000 A 
ENDBRANCH  17  20
ENDBRANCH   1  15
BRANCH   1  27
ATOM     26  F   UNL     1       2.544   5.667  21.680  0.00  0.00    +0.000 F 
ATOM     27  C   UNL     1       2.309   4.958  20.550  0.00  0.00    +0.000 C 
ATOM     28  F   UNL     1       3.196   3.938  20.554  0.00  0.00    +0.000 F 
ATOM     29  F   UNL     1       1.081   4.400  20.703  0.00  0.00    +0.000 F 
ENDBRANCH   1  27
TORSDOF 3
ENDMDL
MODEL 4
REMARK VINA RESULT:      -8.3      2.146      8.103
REMARK  Name = 
REMARK  3 active torsions:
REMARK  status: ('A' for Active; 'I' for Inactive)
REMARK    1  A    between atoms: C_2  and  C_5
REMARK    2  A    between atoms: C_5  and  C_6
REMARK    3  A    between atoms: C_8  and  C_9
REMARK                            x       y       z     vdW  Elec       q    Type
REMARK                         _______ _______ _______ _____ _____    ______ ____
ROOT
ATOM      1  C   UNL     1       2.393   5.822  19.268  0.00  0.00    +0.000 C 
ATOM      2  C   UNL     1       1.587   5.230  18.089  0.00  0.00    +0.000 C 
ATOM      3  C   UNL     1       2.539   4.237  17.442  0.00  0.00    +0.000 C 
ATOM      4  N   UNL     1       3.835   4.885  17.589  0.00  0.00    +0.000 N 
ATOM      5  C   UNL     1       4.851   4.773  16.647  0.00  0.00    +0.000 A 
ATOM      6  N   UNL     1       4.704   3.901  15.666  0.00  0.00    +0.000 NA
ATOM      7  C   UNL     1       5.683   3.775  14.700  0.00  0.00    +0.000 A 
ATOM      8  C   UNL     1       6.811   4.501  14.678  0.00  0.00    +0.000 A 
ATOM      9  N   UNL     1       7.004   5.422  15.682  0.00  0.00    +0.000 N 
ATOM     10  N   UNL     1       8.008   6.291  15.927  0.00  0.00    +0.000 NA
ATOM     11  N   UNL     1       7.663   6.939  17.035  0.00  0.00    +0.000 NA
ATOM     12  N   UNL     1       6.450   6.499  17.512  0.00  0.00    +0.000 NA
ATOM     13  C   UNL     1       6.064   5.573  16.669  0.00  0.00    +0.000 A 
ATOM     14  C   UNL     1       3.816   5.863  18.678  0.00  0.00    +0.000 C 
ENDROOT
BRANCH   1  15
ATOM     15  C   UNL     1       1.878   7.182  19.577  0.00  0.00    +0.000 A 
ATOM     16  N   UNL     1       1.277   7.602  20.666  0.00  0.00    +0.000 NA
ATOM     17  C   UNL     1       0.985   8.915  20.370  0.00  0.00    +0.000 A 
ATOM     18  N   UNL     1       1.386   9.291  19.143  0.00  0.00    +0.000 NA
ATOM     19  O   UNL     1       1.991   8.149  18.622  0.00  0.00    +0.000 OA
BRANCH  17  20
ATOM     20  C   UNL     1       0.285   9.777  21.312  0.00  0.00    +0.000 A 
ATOM     21  C   UNL     1       0.116  11.136  21.024  0.00  0.00    +0.000 A 
ATOM     22  C   UNL     1      -0.537  11.931  21.949  0.00  0.00    +0.000 A 
ATOM     23  N   UNL     1      -1.024  11.472  23.118  0.00  0.00    +0.000 NA
ATOM     24  C   UNL     1      -0.856  10.157  23.376  0.00  0.00    +0.000 A 
ATOM     25  C   UNL     1      -0.218   9.280  22.516  0.00  0.00    +0.000 A 
ENDBRANCH  17  20
ENDBRANCH   1  15
BRANCH   1  27
ATOM     26  F   UNL     1       1.098   4.380  20.683  0.00  0.00    +0.000 F 
ATOM     27  C   UNL     1       2.315   4.949  20.519  0.00  0.00    +0.000 C 
ATOM     28  F   UNL     1       2.569   5.631  21.658  0.00  0.00    +0.000 F 
ATOM     29  F   UNL     1       3.207   3.927  20.478  0.00  0.00    +0.000 F 
ENDBRANCH   1  27
TORSDOF 3
ENDMDL
MODEL 5
REMARK VINA RESULT:      -8.2      3.359      4.859
REMARK  Name = 
REMARK  3 active torsions:
REMARK  status: ('A' for Active; 'I' for Inactive)
REMARK    1  A    between atoms: C_2  and  C_5
REMARK    2  A    between atoms: C_5  and  C_6
REMARK    3  A    between atoms: C_8  and  C_9
REMARK                            x       y       z     vdW  Elec       q    Type
REMARK                         _______ _______ _______ _____ _____    ______ ____
ROOT
ATOM      1  C   UNL     1       6.238   5.472  17.329  0.00  0.00    +0.000 C 
ATOM      2  C   UNL     1       5.459   6.805  17.408  0.00  0.00    +0.000 C 
ATOM      3  C   UNL     1       4.686   6.712  18.714  0.00  0.00    +0.000 C 
ATOM      4  N   UNL     1       4.335   5.301  18.785  0.00  0.00    +0.000 N 
ATOM      5  C   UNL     1       3.146   4.841  19.342  0.00  0.00    +0.000 A 
ATOM      6  N   UNL     1       2.385   5.701  19.994  0.00  0.00    +0.000 NA
ATOM      7  C   UNL     1       1.188   5.286  20.545  0.00  0.00    +0.000 A 
ATOM      8  C   UNL     1       0.719   4.032  20.459  0.00  0.00    +0.000 A 
ATOM      9  N   UNL     1       1.480   3.104  19.787  0.00  0.00    +0.000 N 
ATOM     10  N   UNL     1       1.283   1.794  19.525  0.00  0.00    +0.000 NA
ATOM     11  N   UNL     1       2.346   1.399  18.834  0.00  0.00    +0.000 NA
ATOM     12  N   UNL     1       3.232   2.434  18.646  0.00  0.00    +0.000 NA
ATOM     13  C   UNL     1       2.682   3.468  19.234  0.00  0.00    +0.000 A 
ATOM     14  C   UNL     1       5.234   4.490  17.963  0.00  0.00    +0.000 C 
ENDROOT
BRANCH   1  15
ATOM     15  C   UNL     1       6.508   5.150  15.902  0.00  0.00    +0.000 A 
ATOM     16  N   UNL     1       5.925   4.253  15.141  0.00  0.00    +0.000 NA
ATOM     17  C   UNL     1       6.610   4.368  13.952  0.00  0.00    +0.000 A 
ATOM     18  N   UNL     1       7.581   5.296  13.978  0.00  0.00    +0.000 NA
ATOM     19  O   UNL     1       7.505   5.826  15.264  0.00  0.00    +0.000 OA
BRANCH  17  20
ATOM     20  C   UNL     1       6.299   3.527  12.803  0.00  0.00    +0.000 A 
ATOM     21  C   UNL     1       4.972   3.374  12.388  0.00  0.00    +0.000 A 
ATOM     22  C   UNL     1       4.708   2.554  11.305  0.00  0.00    +0.000 A 
ATOM     23  N   UNL     1       5.661   1.890  10.621  0.00  0.00    +0.000 NA
ATOM     24  C   UNL     1       6.936   2.054  11.034  0.00  0.00    +0.000 A 
ATOM     25  C   UNL     1       7.302   2.852  12.104  0.00  0.00    +0.000 A 
ENDBRANCH  17  20
ENDBRANCH   1  15
BRANCH   1  27
ATOM     26  F   UNL     1       7.379   5.442  19.440  0.00  0.00    +0.000 F 
ATOM     27  C   UNL     1       7.556   5.524  18.100  0.00  0.00    +0.000 C 
ATOM     28  F   UNL     1       8.252   6.662  17.881  0.00  0.00    +0.000 F 
ATOM     29  F   UNL     1       8.379   4.499  17.764  0.00  0.00    +0.000 F 
ENDBRANCH   1  27
TORSDOF 3
ENDMDL
MODEL 6
REMARK VINA RESULT:      -8.2      4.168      6.257
REMARK  Name = 
REMARK  3 active torsions:
REMARK  status: ('A' for Active; 'I' for Inactive)
REMARK    1  A    between atoms: C_2  and  C_5
REMARK    2  A    between atoms: C_5  and  C_6
REMARK    3  A    between atoms: C_8  and  C_9
REMARK                            x       y       z     vdW  Elec       q    Type
REMARK                         _______ _______ _______ _____ _____    ______ ____
ROOT
ATOM      1  C   UNL     1       0.840  10.370  19.068  0.00  0.00    +0.000 C 
ATOM      2  C   UNL     1       0.785  10.280  20.610  0.00  0.00    +0.000 C 
ATOM      3  C   UNL     1       0.636  11.723  21.066  0.00  0.00    +0.000 C 
ATOM      4  N   UNL     1       1.441  12.455  20.100  0.00  0.00    +0.000 N 
ATOM      5  C   UNL     1       2.165  13.598  20.424  0.00  0.00    +0.000 A 
ATOM      6  N   UNL     1       1.973  14.146  21.610  0.00  0.00    +0.000 NA
ATOM      7  C   UNL     1       2.687  15.271  21.976  0.00  0.00    +0.000 A 
ATOM      8  C   UNL     1       3.598  15.867  21.192  0.00  0.00    +0.000 A 
ATOM      9  N   UNL     1       3.829  15.328  19.947  0.00  0.00    +0.000 N 
ATOM     10  N   UNL     1       4.670  15.683  18.952  0.00  0.00    +0.000 NA
ATOM     11  N   UNL     1       4.473  14.800  17.979  0.00  0.00    +0.000 NA
ATOM     12  N   UNL     1       3.514  13.879  18.329  0.00  0.00    +0.000 NA
ATOM     13  C   UNL     1       3.135  14.218  19.537  0.00  0.00    +0.000 A 
ATOM     14  C   UNL     1       1.609  11.690  18.863  0.00  0.00    +0.000 C 
ENDROOT
BRANCH   1  15
ATOM     15  C   UNL     1       1.590   9.199  18.539  0.00  0.00    +0.000 A 
ATOM     16  N   UNL     1       1.695   7.996  19.051  0.00  0.00    +0.000 NA
ATOM     17  C   UNL     1       2.540   7.359  18.170  0.00  0.00    +0.000 A 
ATOM     18  N   UNL     1       2.944   8.140  17.153  0.00  0.00    +0.000 NA
ATOM     19  O   UNL     1       2.304   9.355  17.388  0.00  0.00    +0.000 OA
BRANCH  17  20
ATOM     20  C   UNL     1       2.954   5.976  18.366  0.00  0.00    +0.000 A 
ATOM     21  C   UNL     1       4.203   5.693  18.929  0.00  0.00    +0.000 A 
ATOM     22  C   UNL     1       4.574   4.370  19.085  0.00  0.00    +0.000 A 
ATOM     23  N   UNL     1       3.798   3.328  18.725  0.00  0.00    +0.000 NA
ATOM     24  C   UNL     1       2.594   3.622  18.187  0.00  0.00    +0.000 A 
ATOM     25  C   UNL     1       2.132   4.911  17.991  0.00  0.00    +0.000 A 
ENDBRANCH  17  20
ENDBRANCH   1  15
BRANCH   1  27
ATOM     26  F   UNL     1      -1.525  10.040  19.303  0.00  0.00    +0.000 F 
ATOM     27  C   UNL     1      -0.552  10.414  18.440  0.00  0.00    +0.000 C 
ATOM     28  F   UNL     1      -0.672   9.605  17.363  0.00  0.00    +0.000 F 
ATOM     29  F   UNL     1      -0.878  11.662  18.021  0.00  0.00    +0.000 F 
ENDBRANCH   1  27
TORSDOF 3
ENDMDL
MODEL 7
REMARK VINA RESULT:      -8.2      4.207      6.370
REMARK  Name = 
REMARK  3 active torsions:
REMARK  status: ('A' for Active; 'I' for Inactive)
REMARK    1  A    between atoms: C_2  and  C_5
REMARK    2  A    between atoms: C_5  and  C_6
REMARK    3  A    between atoms: C_8  and  C_9
REMARK                            x       y       z     vdW  Elec       q    Type
REMARK                         _______ _______ _______ _____ _____    ______ ____
ROOT
ATOM      1  C   UNL     1       0.822  10.379  19.077  0.00  0.00    +0.000 C 
ATOM      2  C   UNL     1       0.761  10.293  20.620  0.00  0.00    +0.000 C 
ATOM      3  C   UNL     1       0.609  11.736  21.073  0.00  0.00    +0.000 C 
ATOM      4  N   UNL     1       1.417  12.467  20.108  0.00  0.00    +0.000 N 
ATOM      5  C   UNL     1       2.138  13.611  20.432  0.00  0.00    +0.000 A 
ATOM      6  N   UNL     1       1.942  14.161  21.617  0.00  0.00    +0.000 NA
ATOM      7  C   UNL     1       2.654  15.287  21.983  0.00  0.00    +0.000 A 
ATOM      8  C   UNL     1       3.567  15.883  21.201  0.00  0.00    +0.000 A 
ATOM      9  N   UNL     1       3.803  15.342  19.958  0.00  0.00    +0.000 N 
ATOM     10  N   UNL     1       4.646  15.696  18.965  0.00  0.00    +0.000 NA
ATOM     11  N   UNL     1       4.453  14.811  17.993  0.00  0.00    +0.000 NA
ATOM     12  N   UNL     1       3.494  13.890  18.341  0.00  0.00    +0.000 NA
ATOM     13  C   UNL     1       3.111  14.231  19.547  0.00  0.00    +0.000 A 
ATOM     14  C   UNL     1       1.590  11.700  18.873  0.00  0.00    +0.000 C 
ENDROOT
BRANCH   1  15
ATOM     15  C   UNL     1       1.574   9.209  18.553  0.00  0.00    +0.000 A 
ATOM     16  N   UNL     1       1.687   8.009  19.073  0.00  0.00    +0.000 NA
ATOM     17  C   UNL     1       2.531   7.370  18.192  0.00  0.00    +0.000 A 
ATOM     18  N   UNL     1       2.928   8.146  17.169  0.00  0.00    +0.000 NA
ATOM     19  O   UNL     1       2.283   9.360  17.398  0.00  0.00    +0.000 OA
BRANCH  17  20
ATOM     20  C   UNL     1       2.952   5.990  18.395  0.00  0.00    +0.000 A 
ATOM     21  C   UNL     1       2.142   4.940  17.950  0.00  0.00    +0.000 A 
ATOM     22  C   UNL     1       2.561   3.641  18.175  0.00  0.00    +0.000 A 
ATOM     23  N   UNL     1       3.712   3.324  18.802  0.00  0.00    +0.000 NA
ATOM     24  C   UNL     1       4.482   4.352  19.220  0.00  0.00    +0.000 A 
ATOM     25  C   UNL     1       4.151   5.684  19.042  0.00  0.00    +0.000 A 
ENDBRANCH  17  20
ENDBRANCH   1  15
BRANCH   1  27
ATOM     26  F   UNL     1      -0.918  11.663  18.035  0.00  0.00    +0.000 F 
ATOM     27  C   UNL     1      -0.568  10.421  18.445  0.00  0.00    +0.000 C 
ATOM     28  F   UNL     1      -1.545  10.012  19.286  0.00  0.00    +0.000 F 
ATOM     29  F   UNL     1      -0.648   9.625  17.349  0.00  0.00    +0.000 F 
ENDBRANCH   1  27
TORSDOF 3
ENDMDL
MODEL 8
REMARK VINA RESULT:      -8.1      3.359      4.826
REMARK  Name = 
REMARK  3 active torsions:
REMARK  status: ('A' for Active; 'I' for Inactive)
REMARK    1  A    between atoms: C_2  and  C_5
REMARK    2  A    between atoms: C_5  and  C_6
REMARK    3  A    between atoms: C_8  and  C_9
REMARK                            x       y       z     vdW  Elec       q    Type
REMARK                         _______ _______ _______ _____ _____    ______ ____
ROOT
ATOM      1  C   UNL     1       6.234   5.457  17.327  0.00  0.00    +0.000 C 
ATOM      2  C   UNL     1       5.460   6.793  17.407  0.00  0.00    +0.000 C 
ATOM      3  C   UNL     1       4.688   6.704  18.714  0.00  0.00    +0.000 C 
ATOM      4  N   UNL     1       4.332   5.294  18.786  0.00  0.00    +0.000 N 
ATOM      5  C   UNL     1       3.142   4.839  19.345  0.00  0.00    +0.000 A 
ATOM      6  N   UNL     1       2.386   5.702  19.998  0.00  0.00    +0.000 NA
ATOM      7  C   UNL     1       1.187   5.292  20.550  0.00  0.00    +0.000 A 
ATOM      8  C   UNL     1       0.714   4.040  20.465  0.00  0.00    +0.000 A 
ATOM      9  N   UNL     1       1.471   3.108  19.793  0.00  0.00    +0.000 N 
ATOM     10  N   UNL     1       1.269   1.799  19.532  0.00  0.00    +0.000 NA
ATOM     11  N   UNL     1       2.330   1.399  18.840  0.00  0.00    +0.000 NA
ATOM     12  N   UNL     1       3.218   2.431  18.650  0.00  0.00    +0.000 NA
ATOM     13  C   UNL     1       2.674   3.467  19.238  0.00  0.00    +0.000 A 
ATOM     14  C   UNL     1       5.228   4.479  17.963  0.00  0.00    +0.000 C 
ENDROOT
BRANCH   1  15
ATOM     15  C   UNL     1       6.501   5.134  15.900  0.00  0.00    +0.000 A 
ATOM     16  N   UNL     1       5.927   4.225  15.146  0.00  0.00    +0.000 NA
ATOM     17  C   UNL     1       6.604   4.345  13.952  0.00  0.00    +0.000 A 
ATOM     18  N   UNL     1       7.561   5.288  13.969  0.00  0.00    +0.000 NA
ATOM     19  O   UNL     1       7.485   5.822  15.254  0.00  0.00    +0.000 OA
BRANCH  17  20
ATOM     20  C   UNL     1       6.299   3.495  12.809  0.00  0.00    +0.000 A 
ATOM     21  C   UNL     1       7.332   2.844  12.127  0.00  0.00    +0.000 A 
ATOM     22  C   UNL     1       7.011   2.059  11.034  0.00  0.00    +0.000 A 
ATOM     23  N   UNL     1       5.753   1.883  10.583  0.00  0.00    +0.000 NA
ATOM     24  C   UNL     1       4.769   2.516  11.258  0.00  0.00    +0.000 A 
ATOM     25  C   UNL     1       4.987   3.321  12.363  0.00  0.00    +0.000 A 
ENDBRANCH  17  20
ENDBRANCH   1  15
BRANCH   1  27
ATOM     26  F   UNL     1       8.391   4.497  17.759  0.00  0.00    +0.000 F 
ATOM     27  C   UNL     1       7.553   5.505  18.096  0.00  0.00    +0.000 C 
ATOM     28  F   UNL     1       7.387   5.424  19.436  0.00  0.00    +0.000 F 
ATOM     29  F   UNL     1       8.233   6.656  17.862  0.00  0.00    +0.000 F 
ENDBRANCH   1  27
TORSDOF 3
ENDMDL
MODEL 9
REMARK VINA RESULT:      -8.1      2.239      7.459
REMARK  Name = 
REMARK  3 active torsions:
REMARK  status: ('A' for Active; 'I' for Inactive)
REMARK    1  A    between atoms: C_2  and  C_5
REMARK    2  A    between atoms: C_5  and  C_6
REMARK    3  A    between atoms: C_8  and  C_9
REMARK                            x       y       z     vdW  Elec       q    Type
REMARK                         _______ _______ _______ _____ _____    ______ ____
ROOT
ATOM      1  C   UNL     1       2.384   5.269  19.585  0.00  0.00    +0.000 C 
ATOM      2  C   UNL     1       1.620   4.748  18.346  0.00  0.00    +0.000 C 
ATOM      3  C   UNL     1       2.647   3.920  17.591  0.00  0.00    +0.000 C 
ATOM      4  N   UNL     1       3.884   4.654  17.811  0.00  0.00    +0.000 N 
ATOM      5  C   UNL     1       4.898   4.737  16.862  0.00  0.00    +0.000 A 
ATOM      6  N   UNL     1       4.815   3.972  15.789  0.00  0.00    +0.000 NA
ATOM      7  C   UNL     1       5.792   4.041  14.814  0.00  0.00    +0.000 A 
ATOM      8  C   UNL     1       6.855   4.858  14.876  0.00  0.00    +0.000 A 
ATOM      9  N   UNL     1       6.979   5.672  15.978  0.00  0.00    +0.000 N 
ATOM     10  N   UNL     1       7.907   6.590  16.321  0.00  0.00    +0.000 NA
ATOM     11  N   UNL     1       7.519   7.076  17.495  0.00  0.00    +0.000 NA
ATOM     12  N   UNL     1       6.353   6.484  17.919  0.00  0.00    +0.000 NA
ATOM     13  C   UNL     1       6.038   5.630  16.976  0.00  0.00    +0.000 A 
ATOM     14  C   UNL     1       3.793   5.497  19.004  0.00  0.00    +0.000 C 
ENDROOT
BRANCH   1  15
ATOM     15  C   UNL     1       1.759   6.536  20.047  0.00  0.00    +0.000 A 
ATOM     16  N   UNL     1       1.862   7.737  19.527  0.00  0.00    +0.000 NA
ATOM     17  C   UNL     1       1.121   8.512  20.391  0.00  0.00    +0.000 A 
ATOM     18  N   UNL     1       0.583   7.818  21.408  0.00  0.00    +0.000 NA
ATOM     19  O   UNL     1       0.992   6.506  21.173  0.00  0.00    +0.000 OA
BRANCH  17  20
ATOM     20  C   UNL     1       0.976   9.949  20.201  0.00  0.00    +0.000 A 
ATOM     21  C   UNL     1       1.231  10.518  18.949  0.00  0.00    +0.000 A 
ATOM     22  C   UNL     1       1.103  11.888  18.807  0.00  0.00    +0.000 A 
ATOM     23  N   UNL     1       0.744  12.714  19.810  0.00  0.00    +0.000 NA
ATOM     24  C   UNL     1       0.497  12.145  21.010  0.00  0.00    +0.000 A 
ATOM     25  C   UNL     1       0.597  10.786  21.253  0.00  0.00    +0.000 A 
ENDBRANCH  17  20
ENDBRANCH   1  15
BRANCH   1  27
ATOM     26  F   UNL     1       2.606   4.832  21.935  0.00  0.00    +0.000 F 
ATOM     27  C   UNL     1       2.392   4.255  20.729  0.00  0.00    +0.000 C 
ATOM     28  F   UNL     1       3.347   3.308  20.589  0.00  0.00    +0.000 F 
ATOM     29  F   UNL     1       1.210   3.597  20.829  0.00  0.00    +0.000 F 
ENDBRANCH   1  27
TORSDOF 3
ENDMDL
