MODEL 1
REMARK VINA RESULT:      -8.6      0.000      0.000
REMARK  Name = 
REMARK  5 active torsions:
REMARK  status: ('A' for Active; 'I' for Inactive)
REMARK    1  A    between atoms: C_2  and  C_3
REMARK    2  A    between atoms: C_3  and  O_4
REMARK    3  A    between atoms: O_4  and  C_5
REMARK    4  A    between atoms: C_8  and  N_9
REMARK    5  A    between atoms: N_17  and  C_18
REMARK                            x       y       z     vdW  Elec       q    Type
REMARK                         _______ _______ _______ _____ _____    ______ ____
ROOT
ATOM      1  O   UNL     1       8.064   6.735  18.546  0.00  0.00    +0.000 OA
ATOM      2  C   UNL     1       7.576   7.576  17.796  0.00  0.00    +0.000 C 
ATOM      3  N   UNL     1       6.592   7.351  16.853  0.00  0.00    +0.000 N 
ATOM      4  H   UNL     1       6.539   8.074  16.144  0.00  0.00    +0.000 HD
ENDROOT
BRANCH   3   5
ATOM      5  C   UNL     1       6.087   6.078  16.532  0.00  0.00    +0.000 A 
ATOM      6  C   UNL     1       6.831   5.197  15.743  0.00  0.00    +0.000 A 
ATOM      7  C   UNL     1       6.359   3.907  15.512  0.00  0.00    +0.000 A 
ATOM      8  C   UNL     1       5.139   3.509  16.054  0.00  0.00    +0.000 A 
ATOM      9  C   UNL     1       4.366   4.395  16.825  0.00  0.00    +0.000 A 
ATOM     10  C   UNL     1       4.841   5.690  17.068  0.00  0.00    +0.000 A 
ATOM     11  C   UNL     1       4.040   6.663  17.887  0.00  0.00    +0.000 C 
ATOM     12  C   UNL     1       2.555   6.380  18.028  0.00  0.00    +0.000 C 
ATOM     13  C   UNL     1       2.113   4.927  17.985  0.00  0.00    +0.000 C 
ATOM     14  C   UNL     1       3.084   3.892  17.424  0.00  0.00    +0.000 C 
ENDBRANCH   3   5
BRANCH   2  15
ATOM     15  C   UNL     1       8.041   9.032  17.819  0.00  0.00    +0.000 C 
BRANCH  15  16
ATOM     16  O   UNL     1       8.936   9.307  18.901  0.00  0.00    +0.000 OA
BRANCH  16  17
ATOM     17  C   UNL     1       9.350  10.608  19.014  0.00  0.00    +0.000 A 
ATOM     18  C   UNL     1       9.371  11.541  17.981  0.00  0.00    +0.000 A 
ATOM     19  C   UNL     1       9.823  12.849  18.211  0.00  0.00    +0.000 A 
ATOM     20  C   UNL     1      10.275  13.260  19.469  0.00  0.00    +0.000 A 
ATOM     21  C   UNL     1      10.250  12.308  20.501  0.00  0.00    +0.000 A 
ATOM     22  C   UNL     1       9.786  11.004  20.277  0.00  0.00    +0.000 A 
BRANCH  20  23
ATOM     23  N   UNL     1      10.769  14.573  19.686  0.00  0.00    +0.000 N 
ATOM     24  C   UNL     1      12.178  14.884  19.676  0.00  0.00    +0.000 C 
ATOM     25  C   UNL     1      12.254  16.309  20.172  0.00  0.00    +0.000 C 
ATOM     26  C   UNL     1      10.942  16.923  19.742  0.00  0.00    +0.000 C 
ATOM     27  C   UNL     1       9.998  15.750  19.727  0.00  0.00    +0.000 C 
ATOM     28  O   UNL     1       8.783  15.881  19.718  0.00  0.00    +0.000 OA
ENDBRANCH  20  23
ENDBRANCH  16  17
ENDBRANCH  15  16
ENDBRANCH   2  15
TORSDOF 5
ENDMDL
MODEL 2
REMARK VINA RESULT:      -8.4      2.559     10.259
REMARK  Name = 
REMARK  5 active torsions:
REMARK  status: ('A' for Active; 'I' for Inactive)
REMARK    1  A    between atoms: C_2  and  C_3
REMARK    2  A    between atoms: C_3  and  O_4
REMARK    3  A    between atoms: O_4  and  C_5
REMARK    4  A    between atoms: C_8  and  N_9
REMARK    5  A    between atoms: N_17  and  C_18
REMARK                            x       y       z     vdW  Elec       q    Type
REMARK                         _______ _______ _______ _____ _____    ______ ____
ROOT
ATOM      1  O   UNL     1       7.590  10.279  17.857  0.00  0.00    +0.000 OA
ATOM      2  C   UNL     1       8.324   9.413  18.323  0.00  0.00    +0.000 C 
ATOM      3  N   UNL     1       9.214   9.576  19.366  0.00  0.00    +0.000 N 
ATOM      4  H   UNL     1       9.927   8.857  19.405  0.00  0.00    +0.000 HD
ENDROOT
BRANCH   3   5
ATOM      5  C   UNL     1       9.495  10.814  19.973  0.00  0.00    +0.000 A 
ATOM      6  C   UNL     1       8.909  11.155  21.195  0.00  0.00    +0.000 A 
ATOM      7  C   UNL     1       9.269  12.342  21.828  0.00  0.00    +0.000 A 
ATOM      8  C   UNL     1      10.198  13.191  21.230  0.00  0.00    +0.000 A 
ATOM      9  C   UNL     1      10.772  12.874  19.986  0.00  0.00    +0.000 A 
ATOM     10  C   UNL     1      10.421  11.678  19.350  0.00  0.00    +0.000 A 
ATOM     11  C   UNL     1      11.014  11.309  18.019  0.00  0.00    +0.000 C 
ATOM     12  C   UNL     1      11.605  12.440  17.196  0.00  0.00    +0.000 C 
ATOM     13  C   UNL     1      12.185  13.624  17.949  0.00  0.00    +0.000 C 
ATOM     14  C   UNL     1      11.805  13.805  19.415  0.00  0.00    +0.000 C 
ENDBRANCH   3   5
BRANCH   2  15
ATOM     15  C   UNL     1       8.340   7.992  17.758  0.00  0.00    +0.000 C 
BRANCH  15  16
ATOM     16  O   UNL     1       7.196   7.709  16.948  0.00  0.00    +0.000 OA
BRANCH  16  17
ATOM     17  C   UNL     1       6.233   6.929  17.532  0.00  0.00    +0.000 A 
ATOM     18  C   UNL     1       4.873   6.968  17.236  0.00  0.00    +0.000 A 
ATOM     19  C   UNL     1       3.974   6.123  17.904  0.00  0.00    +0.000 A 
ATOM     20  C   UNL     1       4.400   5.227  18.890  0.00  0.00    +0.000 A 
ATOM     21  C   UNL     1       5.773   5.200  19.180  0.00  0.00    +0.000 A 
ATOM     22  C   UNL     1       6.677   6.033  18.504  0.00  0.00    +0.000 A 
BRANCH  20  23
ATOM     23  N   UNL     1       3.479   4.404  19.590  0.00  0.00    +0.000 N 
ATOM     24  C   UNL     1       2.465   4.944  20.464  0.00  0.00    +0.000 C 
ATOM     25  C   UNL     1       1.886   3.735  21.161  0.00  0.00    +0.000 C 
ATOM     26  C   UNL     1       2.062   2.612  20.166  0.00  0.00    +0.000 C 
ATOM     27  C   UNL     1       3.282   3.026  19.387  0.00  0.00    +0.000 C 
ATOM     28  O   UNL     1       3.917   2.246  18.693  0.00  0.00    +0.000 OA
ENDBRANCH  20  23
ENDBRANCH  16  17
ENDBRANCH  15  16
ENDBRANCH   2  15
TORSDOF 5
ENDMDL
MODEL 3
REMARK VINA RESULT:      -8.3      6.674      9.275
REMARK  Name = 
REMARK  5 active torsions:
REMARK  status: ('A' for Active; 'I' for Inactive)
REMARK    1  A    between atoms: C_2  and  C_3
REMARK    2  A    between atoms: C_3  and  O_4
REMARK    3  A    between atoms: O_4  and  C_5
REMARK    4  A    between atoms: C_8  and  N_9
REMARK    5  A    between atoms: N_17  and  C_18
REMARK                            x       y       z     vdW  Elec       q    Type
REMARK                         _______ _______ _______ _____ _____    ______ ____
ROOT
ATOM      1  O   UNL     1       2.148   6.147  18.002  0.00  0.00    +0.000 OA
ATOM      2  C   UNL     1       2.580   6.252  19.147  0.00  0.00    +0.000 C 
ATOM      3  N   UNL     1       2.343   7.301  20.012  0.00  0.00    +0.000 N 
ATOM      4  H   UNL     1       3.010   7.356  20.774  0.00  0.00    +0.000 HD
ENDROOT
BRANCH   3   5
ATOM      5  C   UNL     1       1.658   8.477  19.653  0.00  0.00    +0.000 A 
ATOM      6  C   UNL     1       1.750   8.984  18.354  0.00  0.00    +0.000 A 
ATOM      7  C   UNL     1       0.993  10.094  17.989  0.00  0.00    +0.000 A 
ATOM      8  C   UNL     1       0.163  10.704  18.927  0.00  0.00    +0.000 A 
ATOM      9  C   UNL     1       0.084  10.222  20.246  0.00  0.00    +0.000 A 
ATOM     10  C   UNL     1       0.836   9.101  20.615  0.00  0.00    +0.000 A 
ATOM     11  C   UNL     1       0.776   8.560  22.016  0.00  0.00    +0.000 C 
ATOM     12  C   UNL     1       0.279   9.506  23.095  0.00  0.00    +0.000 C 
ATOM     13  C   UNL     1      -0.720  10.573  22.682  0.00  0.00    +0.000 C 
ATOM     14  C   UNL     1      -0.867  10.891  21.198  0.00  0.00    +0.000 C 
ENDBRANCH   3   5
BRANCH   2  15
ATOM     15  C   UNL     1       3.484   5.182  19.759  0.00  0.00    +0.000 C 
BRANCH  15  16
ATOM     16  O   UNL     1       4.871   5.423  19.507  0.00  0.00    +0.000 OA
BRANCH  16  17
ATOM     17  C   UNL     1       5.276   5.258  18.208  0.00  0.00    +0.000 A 
ATOM     18  C   UNL     1       5.724   6.273  17.367  0.00  0.00    +0.000 A 
ATOM     19  C   UNL     1       6.110   5.988  16.049  0.00  0.00    +0.000 A 
ATOM     20  C   UNL     1       6.049   4.691  15.529  0.00  0.00    +0.000 A 
ATOM     21  C   UNL     1       5.594   3.678  16.387  0.00  0.00    +0.000 A 
ATOM     22  C   UNL     1       5.221   3.957  17.710  0.00  0.00    +0.000 A 
BRANCH  20  23
ATOM     23  N   UNL     1       6.402   4.416  14.182  0.00  0.00    +0.000 N 
ATOM     24  C   UNL     1       5.560   3.642  13.301  0.00  0.00    +0.000 C 
ATOM     25  C   UNL     1       6.412   3.405  12.076  0.00  0.00    +0.000 C 
ATOM     26  C   UNL     1       7.329   4.604  12.023  0.00  0.00    +0.000 C 
ATOM     27  C   UNL     1       7.464   5.002  13.469  0.00  0.00    +0.000 C 
ATOM     28  O   UNL     1       8.352   5.741  13.869  0.00  0.00    +0.000 OA
ENDBRANCH  20  23
ENDBRANCH  16  17
ENDBRANCH  15  16
ENDBRANCH   2  15
TORSDOF 5
ENDMDL
MODEL 4
REMARK VINA RESULT:      -8.2      7.181      9.179
REMARK  Name = 
REMARK  5 active torsions:
REMARK  status: ('A' for Active; 'I' for Inactive)
REMARK    1  A    between atoms: C_2  and  C_3
REMARK    2  A    between atoms: C_3  and  O_4
REMARK    3  A    between atoms: O_4  and  C_5
REMARK    4  A    between atoms: C_8  and  N_9
REMARK    5  A    between atoms: N_17  and  C_18
REMARK                            x       y       z     vdW  Elec       q    Type
REMARK                         _______ _______ _______ _____ _____    ______ ____
ROOT
ATOM      1  O   UNL     1       2.418   8.667  17.188  0.00  0.00    +0.000 OA
ATOM      2  C   UNL     1       2.111   8.461  18.358  0.00  0.00    +0.000 C 
ATOM      3  N   UNL     1       2.394   7.322  19.085  0.00  0.00    +0.000 N 
ATOM      4  H   UNL     1       1.814   7.213  19.909  0.00  0.00    +0.000 HD
ENDROOT
BRANCH   3   5
ATOM      5  C   UNL     1       2.983   6.167  18.539  0.00  0.00    +0.000 A 
ATOM      6  C   UNL     1       3.947   6.270  17.531  0.00  0.00    +0.000 A 
ATOM      7  C   UNL     1       4.587   5.124  17.067  0.00  0.00    +0.000 A 
ATOM      8  C   UNL     1       4.251   3.880  17.597  0.00  0.00    +0.000 A 
ATOM      9  C   UNL     1       3.262   3.759  18.590  0.00  0.00    +0.000 A 
ATOM     10  C   UNL     1       2.622   4.909  19.066  0.00  0.00    +0.000 A 
ATOM     11  C   UNL     1       1.559   4.817  20.126  0.00  0.00    +0.000 C 
ATOM     12  C   UNL     1       0.889   3.467  20.307  0.00  0.00    +0.000 C 
ATOM     13  C   UNL     1       1.711   2.230  19.989  0.00  0.00    +0.000 C 
ATOM     14  C   UNL     1       2.978   2.398  19.157  0.00  0.00    +0.000 C 
ENDBRANCH   3   5
BRANCH   2  15
ATOM     15  C   UNL     1       1.327   9.493  19.170  0.00  0.00    +0.000 C 
BRANCH  15  16
ATOM     16  O   UNL     1       0.781   8.947  20.374  0.00  0.00    +0.000 OA
BRANCH  16  17
ATOM     17  C   UNL     1       0.069   9.820  21.153  0.00  0.00    +0.000 A 
ATOM     18  C   UNL     1      -0.263   9.624  22.491  0.00  0.00    +0.000 A 
ATOM     19  C   UNL     1      -1.004  10.587  23.191  0.00  0.00    +0.000 A 
ATOM     20  C   UNL     1      -1.444  11.765  22.577  0.00  0.00    +0.000 A 
ATOM     21  C   UNL     1      -1.104  11.950  21.228  0.00  0.00    +0.000 A 
ATOM     22  C   UNL     1      -0.351  10.994  20.529  0.00  0.00    +0.000 A 
BRANCH  20  23
ATOM     23  N   UNL     1      -2.228  12.717  23.280  0.00  0.00    +0.000 N 
ATOM     24  C   UNL     1      -3.575  12.442  23.717  0.00  0.00    +0.000 C 
ATOM     25  C   UNL     1      -4.096  13.777  24.196  0.00  0.00    +0.000 C 
ATOM     26  C   UNL     1      -2.864  14.508  24.674  0.00  0.00    +0.000 C 
ATOM     27  C   UNL     1      -1.765  13.932  23.820  0.00  0.00    +0.000 C 
ATOM     28  O   UNL     1      -0.675  14.470  23.696  0.00  0.00    +0.000 OA
ENDBRANCH  20  23
ENDBRANCH  16  17
ENDBRANCH  15  16
ENDBRANCH   2  15
TORSDOF 5
ENDMDL
MODEL 5
REMARK VINA RESULT:      -8.2      7.066     10.251
REMARK  Name = 
REMARK  5 active torsions:
REMARK  status: ('A' for Active; 'I' for Inactive)
REMARK    1  A    between atoms: C_2  and  C_3
REMARK    2  A    between atoms: C_3  and  O_4
REMARK    3  A    between atoms: O_4  and  C_5
REMARK    4  A    between atoms: C_8  and  N_9
REMARK    5  A    between atoms: N_17  and  C_18
REMARK                            x       y       z     vdW  Elec       q    Type
REMARK                         _______ _______ _______ _____ _____    ______ ____
ROOT
ATOM      1  O   UNL     1       2.482   8.833  17.253  0.00  0.00    +0.000 OA
ATOM      2  C   UNL     1       2.148   8.394  18.350  0.00  0.00    +0.000 C 
ATOM      3  N   UNL     1       2.474   7.154  18.863  0.00  0.00    +0.000 N 
ATOM      4  H   UNL     1       1.874   6.861  19.626  0.00  0.00    +0.000 HD
ENDROOT
BRANCH   3   5
ATOM      5  C   UNL     1       3.148   6.155  18.136  0.00  0.00    +0.000 A 
ATOM      6  C   UNL     1       4.188   6.490  17.264  0.00  0.00    +0.000 A 
ATOM      7  C   UNL     1       4.906   5.483  16.624  0.00  0.00    +0.000 A 
ATOM      8  C   UNL     1       4.571   4.148  16.843  0.00  0.00    +0.000 A 
ATOM      9  C   UNL     1       3.507   3.799  17.694  0.00  0.00    +0.000 A 
ATOM     10  C   UNL     1       2.788   4.807  18.346  0.00  0.00    +0.000 A 
ATOM     11  C   UNL     1       1.645   4.469  19.262  0.00  0.00    +0.000 C 
ATOM     12  C   UNL     1       1.010   3.100  19.089  0.00  0.00    +0.000 C 
ATOM     13  C   UNL     1       1.900   1.976  18.588  0.00  0.00    +0.000 C 
ATOM     14  C   UNL     1       3.226   2.342  17.928  0.00  0.00    +0.000 C 
ENDBRANCH   3   5
BRANCH   2  15
ATOM     15  C   UNL     1       1.279   9.212  19.306  0.00  0.00    +0.000 C 
BRANCH  15  16
ATOM     16  O   UNL     1       0.950  10.502  18.783  0.00  0.00    +0.000 OA
BRANCH  16  17
ATOM     17  C   UNL     1      -0.387  10.759  18.634  0.00  0.00    +0.000 A 
ATOM     18  C   UNL     1      -1.272  10.012  17.862  0.00  0.00    +0.000 A 
ATOM     19  C   UNL     1      -2.625  10.372  17.778  0.00  0.00    +0.000 A 
ATOM     20  C   UNL     1      -3.131  11.490  18.449  0.00  0.00    +0.000 A 
ATOM     21  C   UNL     1      -2.228  12.236  19.222  0.00  0.00    +0.000 A 
ATOM     22  C   UNL     1      -0.877  11.869  19.320  0.00  0.00    +0.000 A 
BRANCH  20  23
ATOM     23  N   UNL     1      -4.493  11.874  18.327  0.00  0.00    +0.000 N 
ATOM     24  C   UNL     1      -5.177  11.914  17.057  0.00  0.00    +0.000 C 
ATOM     25  C   UNL     1      -6.496  12.585  17.360  0.00  0.00    +0.000 C 
ATOM     26  C   UNL     1      -6.774  12.225  18.801  0.00  0.00    +0.000 C 
ATOM     27  C   UNL     1      -5.398  12.056  19.389  0.00  0.00    +0.000 C 
ATOM     28  O   UNL     1      -5.191  12.054  20.593  0.00  0.00    +0.000 OA
ENDBRANCH  20  23
ENDBRANCH  16  17
ENDBRANCH  15  16
ENDBRANCH   2  15
TORSDOF 5
ENDMDL
MODEL 6
REMARK VINA RESULT:      -8.2      2.436     10.257
REMARK  Name = 
REMARK  5 active torsions:
REMARK  status: ('A' for Active; 'I' for Inactive)
REMARK    1  A    between atoms: C_2  and  C_3
REMARK    2  A    between atoms: C_3  and  O_4
REMARK    3  A    between atoms: O_4  and  C_5
REMARK    4  A    between atoms: C_8  and  N_9
REMARK    5  A    between atoms: N_17  and  C_18
REMARK                            x       y       z     vdW  Elec       q    Type
REMARK                         _______ _______ _______ _____ _____    ______ ____
ROOT
ATOM      1  O   UNL     1       7.849  10.323  17.601  0.00  0.00    +0.000 OA
ATOM      2  C   UNL     1       8.542   9.582  18.293  0.00  0.00    +0.000 C 
ATOM      3  N   UNL     1       9.613   9.966  19.074  0.00  0.00    +0.000 N 
ATOM      4  H   UNL     1      10.229   9.200  19.322  0.00  0.00    +0.000 HD
ENDROOT
BRANCH   3   5
ATOM      5  C   UNL     1      10.145  11.269  19.095  0.00  0.00    +0.000 A 
ATOM      6  C   UNL     1      10.969  11.716  18.058  0.00  0.00    +0.000 A 
ATOM      7  C   UNL     1      11.411  13.036  18.046  0.00  0.00    +0.000 A 
ATOM      8  C   UNL     1      11.043  13.899  19.076  0.00  0.00    +0.000 A 
ATOM      9  C   UNL     1      10.239  13.454  20.141  0.00  0.00    +0.000 A 
ATOM     10  C   UNL     1       9.785  12.130  20.153  0.00  0.00    +0.000 A 
ATOM     11  C   UNL     1       8.925  11.621  21.276  0.00  0.00    +0.000 C 
ATOM     12  C   UNL     1       8.963  12.403  22.577  0.00  0.00    +0.000 C 
ATOM     13  C   UNL     1       9.238  13.894  22.488  0.00  0.00    +0.000 C 
ATOM     14  C   UNL     1       9.835  14.444  21.196  0.00  0.00    +0.000 C 
ENDBRANCH   3   5
BRANCH   2  15
ATOM     15  C   UNL     1       8.286   8.076  18.351  0.00  0.00    +0.000 C 
BRANCH  15  16
ATOM     16  O   UNL     1       7.436   7.621  17.295  0.00  0.00    +0.000 OA
BRANCH  16  17
ATOM     17  C   UNL     1       6.444   6.750  17.663  0.00  0.00    +0.000 A 
ATOM     18  C   UNL     1       6.590   5.689  18.552  0.00  0.00    +0.000 A 
ATOM     19  C   UNL     1       5.503   4.856  18.852  0.00  0.00    +0.000 A 
ATOM     20  C   UNL     1       4.246   5.048  18.269  0.00  0.00    +0.000 A 
ATOM     21  C   UNL     1       4.113   6.121  17.374  0.00  0.00    +0.000 A 
ATOM     22  C   UNL     1       5.195   6.964  17.082  0.00  0.00    +0.000 A 
BRANCH  20  23
ATOM     23  N   UNL     1       3.160   4.177  18.546  0.00  0.00    +0.000 N 
ATOM     24  C   UNL     1       3.112   2.818  18.062  0.00  0.00    +0.000 C 
ATOM     25  C   UNL     1       1.711   2.352  18.383  0.00  0.00    +0.000 C 
ATOM     26  C   UNL     1       1.327   3.145  19.611  0.00  0.00    +0.000 C 
ATOM     27  C   UNL     1       2.121   4.417  19.464  0.00  0.00    +0.000 C 
ATOM     28  O   UNL     1       1.864   5.431  20.096  0.00  0.00    +0.000 OA
ENDBRANCH  20  23
ENDBRANCH  16  17
ENDBRANCH  15  16
ENDBRANCH   2  15
TORSDOF 5
ENDMDL
MODEL 7
REMARK VINA RESULT:      -8.1      7.131      9.225
REMARK  Name = 
REMARK  5 active torsions:
REMARK  status: ('A' for Active; 'I' for Inactive)
REMARK    1  A    between atoms: C_2  and  C_3
REMARK    2  A    between atoms: C_3  and  O_4
REMARK    3  A    between atoms: O_4  and  C_5
REMARK    4  A    between atoms: C_8  and  N_9
REMARK    5  A    between atoms: N_17  and  C_18
REMARK                            x       y       z     vdW  Elec       q    Type
REMARK                         _______ _______ _______ _____ _____    ______ ____
ROOT
ATOM      1  O   UNL     1       0.875   4.381  19.570  0.00  0.00    +0.000 OA
ATOM      2  C   UNL     1       1.683   4.610  20.466  0.00  0.00    +0.000 C 
ATOM      3  N   UNL     1       2.375   5.789  20.655  0.00  0.00    +0.000 N 
ATOM      4  H   UNL     1       3.196   5.687  21.242  0.00  0.00    +0.000 HD
ENDROOT
BRANCH   3   5
ATOM      5  C   UNL     1       2.338   6.874  19.760  0.00  0.00    +0.000 A 
ATOM      6  C   UNL     1       2.970   6.791  18.516  0.00  0.00    +0.000 A 
ATOM      7  C   UNL     1       2.846   7.837  17.605  0.00  0.00    +0.000 A 
ATOM      8  C   UNL     1       2.108   8.968  17.947  0.00  0.00    +0.000 A 
ATOM      9  C   UNL     1       1.493   9.078  19.207  0.00  0.00    +0.000 A 
ATOM     10  C   UNL     1       1.607   8.025  20.122  0.00  0.00    +0.000 A 
ATOM     11  C   UNL     1       0.963   8.110  21.478  0.00  0.00    +0.000 C 
ATOM     12  C   UNL     1       0.614   9.498  21.985  0.00  0.00    +0.000 C 
ATOM     13  C   UNL     1       0.273  10.555  20.949  0.00  0.00    +0.000 C 
ATOM     14  C   UNL     1       0.669  10.300  19.498  0.00  0.00    +0.000 C 
ENDBRANCH   3   5
BRANCH   2  15
ATOM     15  C   UNL     1       2.037   3.550  21.510  0.00  0.00    +0.000 C 
BRANCH  15  16
ATOM     16  O   UNL     1       3.158   2.751  21.125  0.00  0.00    +0.000 OA
BRANCH  16  17
ATOM     17  C   UNL     1       3.701   3.038  19.900  0.00  0.00    +0.000 A 
ATOM     18  C   UNL     1       3.257   2.532  18.681  0.00  0.00    +0.000 A 
ATOM     19  C   UNL     1       3.895   2.893  17.485  0.00  0.00    +0.000 A 
ATOM     20  C   UNL     1       4.996   3.756  17.470  0.00  0.00    +0.000 A 
ATOM     21  C   UNL     1       5.434   4.257  18.706  0.00  0.00    +0.000 A 
ATOM     22  C   UNL     1       4.789   3.909  19.902  0.00  0.00    +0.000 A 
BRANCH  20  23
ATOM     23  N   UNL     1       5.662   4.084  16.260  0.00  0.00    +0.000 N 
ATOM     24  C   UNL     1       4.954   4.331  15.027  0.00  0.00    +0.000 C 
ATOM     25  C   UNL     1       6.039   4.407  13.978  0.00  0.00    +0.000 C 
ATOM     26  C   UNL     1       7.247   4.918  14.728  0.00  0.00    +0.000 C 
ATOM     27  C   UNL     1       7.023   4.415  16.130  0.00  0.00    +0.000 C 
ATOM     28  O   UNL     1       7.916   4.366  16.963  0.00  0.00    +0.000 OA
ENDBRANCH  20  23
ENDBRANCH  16  17
ENDBRANCH  15  16
ENDBRANCH   2  15
TORSDOF 5
ENDMDL
MODEL 8
REMARK VINA RESULT:      -8.1      2.386     10.265
REMARK  Name = 
REMARK  5 active torsions:
REMARK  status: ('A' for Active; 'I' for Inactive)
REMARK    1  A    between atoms: C_2  and  C_3
REMARK    2  A    between atoms: C_3  and  O_4
REMARK    3  A    between atoms: O_4  and  C_5
REMARK    4  A    between atoms: C_8  and  N_9
REMARK    5  A    between atoms: N_17  and  C_18
REMARK                            x       y       z     vdW  Elec       q    Type
REMARK                         _______ _______ _______ _____ _____    ______ ____
ROOT
ATOM      1  O   UNL     1       8.915   9.329  19.609  0.00  0.00    +0.000 OA
ATOM      2  C   UNL     1       8.705   9.537  18.418  0.00  0.00    +0.000 C 
ATOM      3  N   UNL     1       9.160  10.618  17.689  0.00  0.00    +0.000 N 
ATOM      4  H   UNL     1       8.647  10.770  16.828  0.00  0.00    +0.000 HD
ENDROOT
BRANCH   3   5
ATOM      5  C   UNL     1       9.841  11.714  18.250  0.00  0.00    +0.000 A 
ATOM      6  C   UNL     1      11.073  11.535  18.885  0.00  0.00    +0.000 A 
ATOM      7  C   UNL     1      11.779  12.641  19.352  0.00  0.00    +0.000 A 
ATOM      8  C   UNL     1      11.243  13.918  19.199  0.00  0.00    +0.000 A 
ATOM      9  C   UNL     1       9.990  14.110  18.590  0.00  0.00    +0.000 A 
ATOM     10  C   UNL     1       9.282  13.002  18.111  0.00  0.00    +0.000 A 
ATOM     11  C   UNL     1       7.940  13.170  17.455  0.00  0.00    +0.000 C 
ATOM     12  C   UNL     1       7.191  14.458  17.748  0.00  0.00    +0.000 C 
ATOM     13  C   UNL     1       8.019  15.697  18.042  0.00  0.00    +0.000 C 
ATOM     14  C   UNL     1       9.488  15.514  18.409  0.00  0.00    +0.000 C 
ENDBRANCH   3   5
BRANCH   2  15
ATOM     15  C   UNL     1       7.861   8.579  17.577  0.00  0.00    +0.000 C 
BRANCH  15  16
ATOM     16  O   UNL     1       7.974   7.221  18.011  0.00  0.00    +0.000 OA
BRANCH  16  17
ATOM     17  C   UNL     1       6.795   6.530  18.112  0.00  0.00    +0.000 A 
ATOM     18  C   UNL     1       5.682   6.708  17.296  0.00  0.00    +0.000 A 
ATOM     19  C   UNL     1       4.522   5.945  17.496  0.00  0.00    +0.000 A 
ATOM     20  C   UNL     1       4.434   4.993  18.517  0.00  0.00    +0.000 A 
ATOM     21  C   UNL     1       5.564   4.825  19.333  0.00  0.00    +0.000 A 
ATOM     22  C   UNL     1       6.730   5.577  19.128  0.00  0.00    +0.000 A 
BRANCH  20  23
ATOM     23  N   UNL     1       3.244   4.253  18.739  0.00  0.00    +0.000 N 
ATOM     24  C   UNL     1       2.066   4.838  19.334  0.00  0.00    +0.000 C 
ATOM     25  C   UNL     1       1.151   3.664  19.591  0.00  0.00    +0.000 C 
ATOM     26  C   UNL     1       1.517   2.664  18.520  0.00  0.00    +0.000 C 
ATOM     27  C   UNL     1       2.967   2.965  18.245  0.00  0.00    +0.000 C 
ATOM     28  O   UNL     1       3.703   2.185  17.658  0.00  0.00    +0.000 OA
ENDBRANCH  20  23
ENDBRANCH  16  17
ENDBRANCH  15  16
ENDBRANCH   2  15
TORSDOF 5
ENDMDL
MODEL 9
REMARK VINA RESULT:      -8.1      6.952      9.645
REMARK  Name = 
REMARK  5 active torsions:
REMARK  status: ('A' for Active; 'I' for Inactive)
REMARK    1  A    between atoms: C_2  and  C_3
REMARK    2  A    between atoms: C_3  and  O_4
REMARK    3  A    between atoms: O_4  and  C_5
REMARK    4  A    between atoms: C_8  and  N_9
REMARK    5  A    between atoms: N_17  and  C_18
REMARK                            x       y       z     vdW  Elec       q    Type
REMARK                         _______ _______ _______ _____ _____    ______ ____
ROOT
ATOM      1  O   UNL     1       0.937   5.629  20.942  0.00  0.00    +0.000 OA
ATOM      2  C   UNL     1       1.893   6.188  20.413  0.00  0.00    +0.000 C 
ATOM      3  N   UNL     1       2.160   7.542  20.440  0.00  0.00    +0.000 N 
ATOM      4  H   UNL     1       2.802   7.842  19.714  0.00  0.00    +0.000 HD
ENDROOT
BRANCH   3   5
ATOM      5  C   UNL     1       1.291   8.504  20.987  0.00  0.00    +0.000 A 
ATOM      6  C   UNL     1       1.119   8.599  22.371  0.00  0.00    +0.000 A 
ATOM      7  C   UNL     1       0.330   9.616  22.902  0.00  0.00    +0.000 A 
ATOM      8  C   UNL     1      -0.299  10.521  22.049  0.00  0.00    +0.000 A 
ATOM      9  C   UNL     1      -0.158  10.418  20.654  0.00  0.00    +0.000 A 
ATOM     10  C   UNL     1       0.642   9.403  20.116  0.00  0.00    +0.000 A 
ATOM     11  C   UNL     1       0.813   9.263  18.629  0.00  0.00    +0.000 C 
ATOM     12  C   UNL     1      -0.241   9.918  17.754  0.00  0.00    +0.000 C 
ATOM     13  C   UNL     1      -0.925  11.161  18.295  0.00  0.00    +0.000 C 
ATOM     14  C   UNL     1      -0.820  11.453  19.789  0.00  0.00    +0.000 C 
ENDBRANCH   3   5
BRANCH   2  15
ATOM     15  C   UNL     1       2.934   5.402  19.615  0.00  0.00    +0.000 C 
BRANCH  15  16
ATOM     16  O   UNL     1       3.850   6.252  18.919  0.00  0.00    +0.000 OA
BRANCH  16  17
ATOM     17  C   UNL     1       4.372   5.741  17.760  0.00  0.00    +0.000 A 
ATOM     18  C   UNL     1       4.656   4.398  17.525  0.00  0.00    +0.000 A 
ATOM     19  C   UNL     1       5.195   3.988  16.296  0.00  0.00    +0.000 A 
ATOM     20  C   UNL     1       5.476   4.901  15.275  0.00  0.00    +0.000 A 
ATOM     21  C   UNL     1       5.186   6.252  15.526  0.00  0.00    +0.000 A 
ATOM     22  C   UNL     1       4.634   6.663  16.748  0.00  0.00    +0.000 A 
BRANCH  20  23
ATOM     23  N   UNL     1       6.059   4.485  14.049  0.00  0.00    +0.000 N 
ATOM     24  C   UNL     1       5.332   3.724  13.063  0.00  0.00    +0.000 C 
ATOM     25  C   UNL     1       6.380   3.310  12.057  0.00  0.00    +0.000 C 
ATOM     26  C   UNL     1       7.414   4.410  12.122  0.00  0.00    +0.000 C 
ATOM     27  C   UNL     1       7.299   4.911  13.538  0.00  0.00    +0.000 C 
ATOM     28  O   UNL     1       8.163   5.593  14.068  0.00  0.00    +0.000 OA
ENDBRANCH  20  23
ENDBRANCH  16  17
ENDBRANCH  15  16
ENDBRANCH   2  15
TORSDOF 5
ENDMDL
