MODEL 1
REMARK VINA RESULT:      -9.7      0.000      0.000
REMARK  Name = 
REMARK  3 active torsions:
REMARK  status: ('A' for Active; 'I' for Inactive)
REMARK    1  A    between atoms: C_4  and  C_5
REMARK    2  A    between atoms: C_10  and  C_11
REMARK    3  A    between atoms: C_15  and  C_16
REMARK                            x       y       z     vdW  Elec       q    Type
REMARK                         _______ _______ _______ _____ _____    ______ ____
ROOT
ATOM      1  C   UNL     1       2.585   3.985  17.520  0.00  0.00    +0.000 C 
ATOM      2  O   UNL     1       1.528   4.619  17.532  0.00  0.00    +0.000 OA
ATOM      3  N   UNL     1       3.795   4.608  17.228  0.00  0.00    +0.000 N 
ATOM      4  C   UNL     1       3.855   6.073  17.315  0.00  0.00    +0.000 C 
ATOM      5  C   UNL     1       4.664   6.677  16.173  0.00  0.00    +0.000 C 
ATOM      6  C   UNL     1       6.059   6.039  16.053  0.00  0.00    +0.000 C 
ATOM      7  C   UNL     1       5.898   4.511  15.951  0.00  0.00    +0.000 C 
ATOM      8  C   UNL     1       5.089   3.936  17.113  0.00  0.00    +0.000 C 
ENDROOT
BRANCH   1  12
ATOM      9  O   UNL     1       0.713   2.771  20.897  0.00  0.00    +0.000 OA
ATOM     10  C   UNL     1       1.644   2.521  20.133  0.00  0.00    +0.000 C 
ATOM     11  C   UNL     1       1.414   2.053  18.716  0.00  0.00    +0.000 C 
ATOM     12  C   UNL     1       2.580   2.466  17.843  0.00  0.00    +0.000 C 
ATOM     13  N   UNL     1       3.831   2.084  18.471  0.00  0.00    +0.000 N 
ATOM     14  C   UNL     1       4.049   2.275  19.799  0.00  0.00    +0.000 C 
ATOM     15  O   UNL     1       5.170   2.192  20.280  0.00  0.00    +0.000 OA
ATOM     16  N   UNL     1       2.943   2.542  20.554  0.00  0.00    +0.000 N 
ATOM     17  H   UNL     1       4.684   2.083  17.922  0.00  0.00    +0.000 HD
ATOM     18  H   UNL     1       3.108   2.775  21.523  0.00  0.00    +0.000 HD
ENDBRANCH   1  12
BRANCH   6  19
ATOM     19  C   UNL     1       7.009   6.449  17.162  0.00  0.00    +0.000 A 
ATOM     20  N   UNL     1       7.370   5.530  18.074  0.00  0.00    +0.000 NA
ATOM     21  C   UNL     1       8.153   5.955  19.079  0.00  0.00    +0.000 A 
ATOM     22  C   UNL     1       8.583   7.254  19.211  0.00  0.00    +0.000 A 
ATOM     23  C   UNL     1       8.168   8.141  18.238  0.00  0.00    +0.000 A 
ATOM     24  N   UNL     1       7.376   7.743  17.219  0.00  0.00    +0.000 NA
BRANCH  23  25
ATOM     25  C   UNL     1       8.531   9.572  18.237  0.00  0.00    +0.000 A 
ATOM     26  C   UNL     1       9.615  10.071  18.985  0.00  0.00    +0.000 A 
ATOM     27  C   UNL     1       9.935  11.434  18.991  0.00  0.00    +0.000 A 
ATOM     28  C   UNL     1       9.179  12.328  18.239  0.00  0.00    +0.000 A 
ATOM     29  C   UNL     1       8.120  11.850  17.480  0.00  0.00    +0.000 A 
ATOM     30  F   UNL     1       7.397  12.707  16.747  0.00  0.00    +0.000 F 
ATOM     31  C   UNL     1       7.797  10.497  17.470  0.00  0.00    +0.000 A 
ENDBRANCH  23  25
ENDBRANCH   6  19
TORSDOF 3
ENDMDL
MODEL 2
REMARK VINA RESULT:      -9.6      0.939      1.287
REMARK  Name = 
REMARK  3 active torsions:
REMARK  status: ('A' for Active; 'I' for Inactive)
REMARK    1  A    between atoms: C_4  and  C_5
REMARK    2  A    between atoms: C_10  and  C_11
REMARK    3  A    between atoms: C_15  and  C_16
REMARK                            x       y       z     vdW  Elec       q    Type
REMARK                         _______ _______ _______ _____ _____    ______ ____
ROOT
ATOM      1  C   UNL     1       2.501   4.081  17.635  0.00  0.00    +0.000 C 
ATOM      2  O   UNL     1       1.455   4.732  17.708  0.00  0.00    +0.000 OA
ATOM      3  N   UNL     1       3.711   4.696  17.327  0.00  0.00    +0.000 N 
ATOM      4  C   UNL     1       3.799   6.156  17.468  0.00  0.00    +0.000 C 
ATOM      5  C   UNL     1       4.580   6.791  16.323  0.00  0.00    +0.000 C 
ATOM      6  C   UNL     1       5.958   6.136  16.131  0.00  0.00    +0.000 C 
ATOM      7  C   UNL     1       5.768   4.616  15.976  0.00  0.00    +0.000 C 
ATOM      8  C   UNL     1       4.988   4.009  17.142  0.00  0.00    +0.000 C 
ENDROOT
BRANCH   1  12
ATOM      9  O   UNL     1       0.746   2.768  21.037  0.00  0.00    +0.000 OA
ATOM     10  C   UNL     1       1.640   2.532  20.227  0.00  0.00    +0.000 C 
ATOM     11  C   UNL     1       1.343   2.125  18.803  0.00  0.00    +0.000 C 
ATOM     12  C   UNL     1       2.480   2.552  17.899  0.00  0.00    +0.000 C 
ATOM     13  N   UNL     1       3.748   2.123  18.459  0.00  0.00    +0.000 N 
ATOM     14  C   UNL     1       4.024   2.258  19.783  0.00  0.00    +0.000 C 
ATOM     15  O   UNL     1       5.163   2.137  20.214  0.00  0.00    +0.000 OA
ATOM     16  N   UNL     1       2.956   2.514  20.594  0.00  0.00    +0.000 N 
ATOM     17  H   UNL     1       4.578   2.129  17.875  0.00  0.00    +0.000 HD
ATOM     18  H   UNL     1       3.165   2.706  21.563  0.00  0.00    +0.000 HD
ENDBRANCH   1  12
BRANCH   6  19
ATOM     19  C   UNL     1       6.952   6.487  17.223  0.00  0.00    +0.000 A 
ATOM     20  N   UNL     1       7.323   5.528  18.088  0.00  0.00    +0.000 NA
ATOM     21  C   UNL     1       8.146   5.902  19.082  0.00  0.00    +0.000 A 
ATOM     22  C   UNL     1       8.607   7.186  19.246  0.00  0.00    +0.000 A 
ATOM     23  C   UNL     1       8.179   8.116  18.320  0.00  0.00    +0.000 A 
ATOM     24  N   UNL     1       7.347   7.770  17.314  0.00  0.00    +0.000 NA
BRANCH  23  25
ATOM     25  C   UNL     1       8.571   9.539  18.358  0.00  0.00    +0.000 A 
ATOM     26  C   UNL     1       8.054  10.484  17.450  0.00  0.00    +0.000 A 
ATOM     27  C   UNL     1       8.450  11.826  17.484  0.00  0.00    +0.000 A 
ATOM     28  C   UNL     1       9.371  12.254  18.436  0.00  0.00    +0.000 A 
ATOM     29  C   UNL     1       9.875  11.341  19.351  0.00  0.00    +0.000 A 
ATOM     30  F   UNL     1      10.753  11.752  20.275  0.00  0.00    +0.000 F 
ATOM     31  C   UNL     1       9.485  10.006  19.322  0.00  0.00    +0.000 A 
ENDBRANCH  23  25
ENDBRANCH   6  19
TORSDOF 3
ENDMDL
MODEL 3
REMARK VINA RESULT:      -8.8      1.192      1.361
REMARK  Name = 
REMARK  3 active torsions:
REMARK  status: ('A' for Active; 'I' for Inactive)
REMARK    1  A    between atoms: C_4  and  C_5
REMARK    2  A    between atoms: C_10  and  C_11
REMARK    3  A    between atoms: C_15  and  C_16
REMARK                            x       y       z     vdW  Elec       q    Type
REMARK                         _______ _______ _______ _____ _____    ______ ____
ROOT
ATOM      1  C   UNL     1       3.277   4.310  18.121  0.00  0.00    +0.000 C 
ATOM      2  O   UNL     1       2.149   4.806  18.168  0.00  0.00    +0.000 OA
ATOM      3  N   UNL     1       4.377   5.060  17.714  0.00  0.00    +0.000 N 
ATOM      4  C   UNL     1       4.253   6.524  17.716  0.00  0.00    +0.000 C 
ATOM      5  C   UNL     1       4.908   7.150  16.490  0.00  0.00    +0.000 C 
ATOM      6  C   UNL     1       6.364   6.685  16.313  0.00  0.00    +0.000 C 
ATOM      7  C   UNL     1       6.396   5.146  16.307  0.00  0.00    +0.000 C 
ATOM      8  C   UNL     1       5.738   4.549  17.551  0.00  0.00    +0.000 C 
ENDROOT
BRANCH   1  12
ATOM      9  O   UNL     1       0.003   1.956  18.455  0.00  0.00    +0.000 OA
ATOM     10  C   UNL     1       1.135   2.149  18.894  0.00  0.00    +0.000 C 
ATOM     11  C   UNL     1       2.369   1.922  18.054  0.00  0.00    +0.000 C 
ATOM     12  C   UNL     1       3.487   2.826  18.527  0.00  0.00    +0.000 C 
ATOM     13  N   UNL     1       3.637   2.718  19.966  0.00  0.00    +0.000 N 
ATOM     14  C   UNL     1       2.561   2.701  20.796  0.00  0.00    +0.000 C 
ATOM     15  O   UNL     1       2.681   2.864  22.002  0.00  0.00    +0.000 OA
ATOM     16  N   UNL     1       1.352   2.473  20.203  0.00  0.00    +0.000 N 
ATOM     17  H   UNL     1       4.477   3.079  20.408  0.00  0.00    +0.000 HD
ATOM     18  H   UNL     1       0.539   2.550  20.798  0.00  0.00    +0.000 HD
ENDBRANCH   1  12
BRANCH   6  19
ATOM     19  C   UNL     1       7.317   7.281  17.332  0.00  0.00    +0.000 A 
ATOM     20  N   UNL     1       7.712   6.520  18.366  0.00  0.00    +0.000 NA
ATOM     21  C   UNL     1       8.496   7.111  19.283  0.00  0.00    +0.000 A 
ATOM     22  C   UNL     1       8.896   8.423  19.209  0.00  0.00    +0.000 A 
ATOM     23  C   UNL     1       8.448   9.142  18.119  0.00  0.00    +0.000 A 
ATOM     24  N   UNL     1       7.653   8.576  17.185  0.00  0.00    +0.000 NA
BRANCH  23  25
ATOM     25  C   UNL     1       8.776  10.565  17.894  0.00  0.00    +0.000 A 
ATOM     26  C   UNL     1      10.099  11.046  17.950  0.00  0.00    +0.000 A 
ATOM     27  C   UNL     1      10.393  12.401  17.755  0.00  0.00    +0.000 A 
ATOM     28  C   UNL     1       9.367  13.304  17.492  0.00  0.00    +0.000 A 
ATOM     29  C   UNL     1       8.061  12.842  17.413  0.00  0.00    +0.000 A 
ATOM     30  F   UNL     1       7.072  13.707  17.150  0.00  0.00    +0.000 F 
ATOM     31  C   UNL     1       7.761  11.497  17.606  0.00  0.00    +0.000 A 
ENDBRANCH  23  25
ENDBRANCH   6  19
TORSDOF 3
ENDMDL
MODEL 4
REMARK VINA RESULT:      -8.8      1.438      1.795
REMARK  Name = 
REMARK  3 active torsions:
REMARK  status: ('A' for Active; 'I' for Inactive)
REMARK    1  A    between atoms: C_4  and  C_5
REMARK    2  A    between atoms: C_10  and  C_11
REMARK    3  A    between atoms: C_15  and  C_16
REMARK                            x       y       z     vdW  Elec       q    Type
REMARK                         _______ _______ _______ _____ _____    ______ ____
ROOT
ATOM      1  C   UNL     1       3.265   4.331  18.173  0.00  0.00    +0.000 C 
ATOM      2  O   UNL     1       2.137   4.824  18.248  0.00  0.00    +0.000 OA
ATOM      3  N   UNL     1       4.355   5.087  17.752  0.00  0.00    +0.000 N 
ATOM      4  C   UNL     1       4.227   6.551  17.769  0.00  0.00    +0.000 C 
ATOM      5  C   UNL     1       4.857   7.189  16.536  0.00  0.00    +0.000 C 
ATOM      6  C   UNL     1       6.309   6.730  16.325  0.00  0.00    +0.000 C 
ATOM      7  C   UNL     1       6.345   5.190  16.305  0.00  0.00    +0.000 C 
ATOM      8  C   UNL     1       5.713   4.581  17.557  0.00  0.00    +0.000 C 
ENDROOT
BRANCH   1  12
ATOM      9  O   UNL     1       0.010   1.943  18.458  0.00  0.00    +0.000 OA
ATOM     10  C   UNL     1       1.138   2.141  18.906  0.00  0.00    +0.000 C 
ATOM     11  C   UNL     1       2.379   1.936  18.070  0.00  0.00    +0.000 C 
ATOM     12  C   UNL     1       3.485   2.844  18.562  0.00  0.00    +0.000 C 
ATOM     13  N   UNL     1       3.628   2.719  20.001  0.00  0.00    +0.000 N 
ATOM     14  C   UNL     1       2.547   2.682  20.824  0.00  0.00    +0.000 C 
ATOM     15  O   UNL     1       2.659   2.830  22.032  0.00  0.00    +0.000 OA
ATOM     16  N   UNL     1       1.344   2.450  20.220  0.00  0.00    +0.000 N 
ATOM     17  H   UNL     1       4.462   3.082  20.452  0.00  0.00    +0.000 HD
ATOM     18  H   UNL     1       0.527   2.512  20.811  0.00  0.00    +0.000 HD
ENDBRANCH   1  12
BRANCH   6  19
ATOM     19  C   UNL     1       7.282   7.319  17.331  0.00  0.00    +0.000 A 
ATOM     20  N   UNL     1       7.699   6.548  18.350  0.00  0.00    +0.000 NA
ATOM     21  C   UNL     1       8.501   7.133  19.256  0.00  0.00    +0.000 A 
ATOM     22  C   UNL     1       8.895   8.447  19.187  0.00  0.00    +0.000 A 
ATOM     23  C   UNL     1       8.422   9.175  18.113  0.00  0.00    +0.000 A 
ATOM     24  N   UNL     1       7.610   8.616  17.190  0.00  0.00    +0.000 NA
BRANCH  23  25
ATOM     25  C   UNL     1       8.742  10.601  17.895  0.00  0.00    +0.000 A 
ATOM     26  C   UNL     1       7.753  11.548  17.562  0.00  0.00    +0.000 A 
ATOM     27  C   UNL     1       8.074  12.892  17.338  0.00  0.00    +0.000 A 
ATOM     28  C   UNL     1       9.393  13.320  17.451  0.00  0.00    +0.000 A 
ATOM     29  C   UNL     1      10.376  12.404  17.799  0.00  0.00    +0.000 A 
ATOM     30  F   UNL     1      11.645  12.815  17.919  0.00  0.00    +0.000 F 
ATOM     31  C   UNL     1      10.064  11.067  18.023  0.00  0.00    +0.000 A 
ENDBRANCH  23  25
ENDBRANCH   6  19
TORSDOF 3
ENDMDL
MODEL 5
REMARK VINA RESULT:      -8.7      8.712     10.498
REMARK  Name = 
REMARK  3 active torsions:
REMARK  status: ('A' for Active; 'I' for Inactive)
REMARK    1  A    between atoms: C_4  and  C_5
REMARK    2  A    between atoms: C_10  and  C_11
REMARK    3  A    between atoms: C_15  and  C_16
REMARK                            x       y       z     vdW  Elec       q    Type
REMARK                         _______ _______ _______ _____ _____    ______ ____
ROOT
ATOM      1  C   UNL     1      -4.180  12.162  19.085  0.00  0.00    +0.000 C 
ATOM      2  O   UNL     1      -4.628  13.142  19.686  0.00  0.00    +0.000 OA
ATOM      3  N   UNL     1      -2.846  11.788  19.210  0.00  0.00    +0.000 N 
ATOM      4  C   UNL     1      -2.083  12.326  20.345  0.00  0.00    +0.000 C 
ATOM      5  C   UNL     1      -0.668  12.724  19.939  0.00  0.00    +0.000 C 
ATOM      6  C   UNL     1       0.071  11.580  19.224  0.00  0.00    +0.000 C 
ATOM      7  C   UNL     1      -0.791  11.092  18.046  0.00  0.00    +0.000 C 
ATOM      8  C   UNL     1      -2.200  10.695  18.486  0.00  0.00    +0.000 C 
ENDROOT
BRANCH   1  12
ATOM      9  O   UNL     1      -7.420  13.987  17.487  0.00  0.00    +0.000 OA
ATOM     10  C   UNL     1      -6.990  12.912  17.900  0.00  0.00    +0.000 C 
ATOM     11  C   UNL     1      -5.891  12.161  17.186  0.00  0.00    +0.000 C 
ATOM     12  C   UNL     1      -5.116  11.320  18.176  0.00  0.00    +0.000 C 
ATOM     13  N   UNL     1      -6.031  10.539  18.989  0.00  0.00    +0.000 N 
ATOM     14  C   UNL     1      -7.167  11.081  19.504  0.00  0.00    +0.000 C 
ATOM     15  O   UNL     1      -7.803  10.515  20.382  0.00  0.00    +0.000 OA
ATOM     16  N   UNL     1      -7.556  12.275  18.968  0.00  0.00    +0.000 N 
ATOM     17  H   UNL     1      -5.673   9.764  19.538  0.00  0.00    +0.000 HD
ATOM     18  H   UNL     1      -8.345  12.727  19.408  0.00  0.00    +0.000 HD
ENDBRANCH   1  12
BRANCH   6  19
ATOM     19  C   UNL     1       0.478  10.450  20.152  0.00  0.00    +0.000 A 
ATOM     20  N   UNL     1       0.348  10.627  21.477  0.00  0.00    +0.000 NA
ATOM     21  C   UNL     1       0.789   9.630  22.263  0.00  0.00    +0.000 A 
ATOM     22  C   UNL     1       1.354   8.474  21.780  0.00  0.00    +0.000 A 
ATOM     23  C   UNL     1       1.457   8.367  20.408  0.00  0.00    +0.000 A 
ATOM     24  N   UNL     1       1.028   9.356  19.594  0.00  0.00    +0.000 NA
BRANCH  23  25
ATOM     25  C   UNL     1       2.048   7.197  19.727  0.00  0.00    +0.000 A 
ATOM     26  C   UNL     1       2.672   7.299  18.468  0.00  0.00    +0.000 A 
ATOM     27  C   UNL     1       3.210   6.178  17.825  0.00  0.00    +0.000 A 
ATOM     28  C   UNL     1       3.140   4.928  18.434  0.00  0.00    +0.000 A 
ATOM     29  C   UNL     1       2.547   4.814  19.683  0.00  0.00    +0.000 A 
ATOM     30  F   UNL     1       2.487   3.614  20.276  0.00  0.00    +0.000 F 
ATOM     31  C   UNL     1       2.010   5.924  20.328  0.00  0.00    +0.000 A 
ENDBRANCH  23  25
ENDBRANCH   6  19
TORSDOF 3
ENDMDL
MODEL 6
REMARK VINA RESULT:      -8.4      7.601      9.545
REMARK  Name = 
REMARK  3 active torsions:
REMARK  status: ('A' for Active; 'I' for Inactive)
REMARK    1  A    between atoms: C_4  and  C_5
REMARK    2  A    between atoms: C_10  and  C_11
REMARK    3  A    between atoms: C_15  and  C_16
REMARK                            x       y       z     vdW  Elec       q    Type
REMARK                         _______ _______ _______ _____ _____    ______ ____
ROOT
ATOM      1  C   UNL     1      -3.385  11.478  18.627  0.00  0.00    +0.000 C 
ATOM      2  O   UNL     1      -3.803  12.366  19.374  0.00  0.00    +0.000 OA
ATOM      3  N   UNL     1      -2.078  11.011  18.725  0.00  0.00    +0.000 N 
ATOM      4  C   UNL     1      -1.332  11.303  19.957  0.00  0.00    +0.000 C 
ATOM      5  C   UNL     1       0.116  11.680  19.667  0.00  0.00    +0.000 C 
ATOM      6  C   UNL     1       0.822  10.633  18.788  0.00  0.00    +0.000 C 
ATOM      7  C   UNL     1      -0.019  10.404  17.519  0.00  0.00    +0.000 C 
ATOM      8  C   UNL     1      -1.463  10.021  17.843  0.00  0.00    +0.000 C 
ENDROOT
BRANCH   1  12
ATOM      9  O   UNL     1      -6.437  13.748  17.244  0.00  0.00    +0.000 OA
ATOM     10  C   UNL     1      -6.090  12.593  17.488  0.00  0.00    +0.000 C 
ATOM     11  C   UNL     1      -5.007  11.899  16.697  0.00  0.00    +0.000 C 
ATOM     12  C   UNL     1      -4.327  10.858  17.560  0.00  0.00    +0.000 C 
ATOM     13  N   UNL     1      -5.322  10.017  18.201  0.00  0.00    +0.000 N 
ATOM     14  C   UNL     1      -6.446  10.541  18.759  0.00  0.00    +0.000 C 
ATOM     15  O   UNL     1      -7.152   9.883  19.510  0.00  0.00    +0.000 OA
ATOM     16  N   UNL     1      -6.739  11.829  18.415  0.00  0.00    +0.000 N 
ATOM     17  H   UNL     1      -5.036   9.141  18.626  0.00  0.00    +0.000 HD
ATOM     18  H   UNL     1      -7.519  12.255  18.897  0.00  0.00    +0.000 HD
ENDBRANCH   1  12
BRANCH   6  19
ATOM     19  C   UNL     1       1.132   9.340  19.520  0.00  0.00    +0.000 A 
ATOM     20  N   UNL     1       0.766   9.225  20.807  0.00  0.00    +0.000 NA
ATOM     21  C   UNL     1       1.126   8.094  21.436  0.00  0.00    +0.000 A 
ATOM     22  C   UNL     1       1.836   7.082  20.835  0.00  0.00    +0.000 A 
ATOM     23  C   UNL     1       2.179   7.275  19.511  0.00  0.00    +0.000 A 
ATOM     24  N   UNL     1       1.836   8.405  18.856  0.00  0.00    +0.000 NA
BRANCH  23  25
ATOM     25  C   UNL     1       2.949   6.293  18.721  0.00  0.00    +0.000 A 
ATOM     26  C   UNL     1       2.879   4.909  18.972  0.00  0.00    +0.000 A 
ATOM     27  C   UNL     1       3.630   3.991  18.229  0.00  0.00    +0.000 A 
ATOM     28  C   UNL     1       4.465   4.440  17.210  0.00  0.00    +0.000 A 
ATOM     29  C   UNL     1       4.530   5.799  16.936  0.00  0.00    +0.000 A 
ATOM     30  F   UNL     1       5.324   6.234  15.949  0.00  0.00    +0.000 F 
ATOM     31  C   UNL     1       3.786   6.716  17.671  0.00  0.00    +0.000 A 
ENDBRANCH  23  25
ENDBRANCH   6  19
TORSDOF 3
ENDMDL
MODEL 7
REMARK VINA RESULT:      -8.4      9.137     10.754
REMARK  Name = 
REMARK  3 active torsions:
REMARK  status: ('A' for Active; 'I' for Inactive)
REMARK    1  A    between atoms: C_4  and  C_5
REMARK    2  A    between atoms: C_10  and  C_11
REMARK    3  A    between atoms: C_15  and  C_16
REMARK                            x       y       z     vdW  Elec       q    Type
REMARK                         _______ _______ _______ _____ _____    ______ ____
ROOT
ATOM      1  C   UNL     1      -4.304  12.995  20.043  0.00  0.00    +0.000 C 
ATOM      2  O   UNL     1      -4.605  13.838  20.892  0.00  0.00    +0.000 OA
ATOM      3  N   UNL     1      -3.018  12.469  19.976  0.00  0.00    +0.000 N 
ATOM      4  C   UNL     1      -2.143  12.633  21.145  0.00  0.00    +0.000 C 
ATOM      5  C   UNL     1      -0.713  12.973  20.740  0.00  0.00    +0.000 C 
ATOM      6  C   UNL     1      -0.147  11.970  19.720  0.00  0.00    +0.000 C 
ATOM      7  C   UNL     1      -1.117  11.874  18.528  0.00  0.00    +0.000 C 
ATOM      8  C   UNL     1      -2.540  11.526  18.966  0.00  0.00    +0.000 C 
ENDROOT
BRANCH   1  12
ATOM      9  O   UNL     1      -7.913  14.828  20.050  0.00  0.00    +0.000 OA
ATOM     10  C   UNL     1      -7.344  13.757  19.847  0.00  0.00    +0.000 C 
ATOM     11  C   UNL     1      -6.396  13.559  18.688  0.00  0.00    +0.000 C 
ATOM     12  C   UNL     1      -5.375  12.498  19.034  0.00  0.00    +0.000 C 
ATOM     13  N   UNL     1      -6.041  11.318  19.553  0.00  0.00    +0.000 N 
ATOM     14  C   UNL     1      -7.058  11.409  20.450  0.00  0.00    +0.000 C 
ATOM     15  O   UNL     1      -7.449  10.433  21.074  0.00  0.00    +0.000 OA
ATOM     16  N   UNL     1      -7.621  12.645  20.592  0.00  0.00    +0.000 N 
ATOM     17  H   UNL     1      -5.528  10.444  19.618  0.00  0.00    +0.000 HD
ATOM     18  H   UNL     1      -8.313  12.742  21.321  0.00  0.00    +0.000 HD
ENDBRANCH   1  12
BRANCH   6  19
ATOM     19  C   UNL     1       0.170  10.612  20.320  0.00  0.00    +0.000 A 
ATOM     20  N   UNL     1      -0.275  10.335  21.557  0.00  0.00    +0.000 NA
ATOM     21  C   UNL     1       0.091   9.152  22.077  0.00  0.00    +0.000 A 
ATOM     22  C   UNL     1       0.882   8.243  21.416  0.00  0.00    +0.000 A 
ATOM     23  C   UNL     1       1.304   8.601  20.151  0.00  0.00    +0.000 A 
ATOM     24  N   UNL     1       0.956   9.786  19.605  0.00  0.00    +0.000 NA
BRANCH  23  25
ATOM     25  C   UNL     1       2.166   7.745  19.310  0.00  0.00    +0.000 A 
ATOM     26  C   UNL     1       2.706   8.195  18.090  0.00  0.00    +0.000 A 
ATOM     27  C   UNL     1       3.505   7.365  17.293  0.00  0.00    +0.000 A 
ATOM     28  C   UNL     1       3.787   6.067  17.707  0.00  0.00    +0.000 A 
ATOM     29  C   UNL     1       3.280   5.615  18.917  0.00  0.00    +0.000 A 
ATOM     30  F   UNL     1       3.559   4.370  19.323  0.00  0.00    +0.000 F 
ATOM     31  C   UNL     1       2.486   6.434  19.713  0.00  0.00    +0.000 A 
ENDBRANCH  23  25
ENDBRANCH   6  19
TORSDOF 3
ENDMDL
MODEL 8
REMARK VINA RESULT:      -8.4      7.426      9.245
REMARK  Name = 
REMARK  3 active torsions:
REMARK  status: ('A' for Active; 'I' for Inactive)
REMARK    1  A    between atoms: C_4  and  C_5
REMARK    2  A    between atoms: C_10  and  C_11
REMARK    3  A    between atoms: C_15  and  C_16
REMARK                            x       y       z     vdW  Elec       q    Type
REMARK                         _______ _______ _______ _____ _____    ______ ____
ROOT
ATOM      1  C   UNL     1       2.999   7.191  18.588  0.00  0.00    +0.000 C 
ATOM      2  O   UNL     1       3.848   7.225  17.693  0.00  0.00    +0.000 OA
ATOM      3  N   UNL     1       2.108   8.244  18.774  0.00  0.00    +0.000 N 
ATOM      4  C   UNL     1       1.935   9.204  17.675  0.00  0.00    +0.000 C 
ATOM      5  C   UNL     1       1.841  10.638  18.184  0.00  0.00    +0.000 C 
ATOM      6  C   UNL     1       0.767  10.795  19.275  0.00  0.00    +0.000 C 
ATOM      7  C   UNL     1       1.036   9.765  20.387  0.00  0.00    +0.000 C 
ATOM      8  C   UNL     1       1.118   8.338  19.846  0.00  0.00    +0.000 C 
ENDROOT
BRANCH   1  12
ATOM      9  O   UNL     1       5.676   4.205  18.045  0.00  0.00    +0.000 OA
ATOM     10  C   UNL     1       4.525   4.454  18.400  0.00  0.00    +0.000 C 
ATOM     11  C   UNL     1       4.226   5.225  19.664  0.00  0.00    +0.000 C 
ATOM     12  C   UNL     1       2.908   5.954  19.521  0.00  0.00    +0.000 C 
ATOM     13  N   UNL     1       1.885   5.042  19.044  0.00  0.00    +0.000 N 
ATOM     14  C   UNL     1       2.129   4.157  18.042  0.00  0.00    +0.000 C 
ATOM     15  O   UNL     1       1.220   3.571  17.471  0.00  0.00    +0.000 OA
ATOM     16  N   UNL     1       3.443   3.952  17.734  0.00  0.00    +0.000 N 
ATOM     17  H   UNL     1       0.908   5.310  19.111  0.00  0.00    +0.000 HD
ATOM     18  H   UNL     1       3.629   3.368  16.931  0.00  0.00    +0.000 HD
ENDBRANCH   1  12
BRANCH   6  19
ATOM     19  C   UNL     1      -0.652  10.716  18.742  0.00  0.00    +0.000 A 
ATOM     20  N   UNL     1      -0.888   9.971  17.649  0.00  0.00    +0.000 NA
ATOM     21  C   UNL     1      -2.143   9.989  17.169  0.00  0.00    +0.000 A 
ATOM     22  C   UNL     1      -3.162  10.720  17.732  0.00  0.00    +0.000 A 
ATOM     23  C   UNL     1      -2.841  11.463  18.850  0.00  0.00    +0.000 A 
ATOM     24  N   UNL     1      -1.586  11.469  19.351  0.00  0.00    +0.000 NA
BRANCH  23  25
ATOM     25  C   UNL     1      -3.814  12.311  19.569  0.00  0.00    +0.000 A 
ATOM     26  C   UNL     1      -3.443  13.108  20.670  0.00  0.00    +0.000 A 
ATOM     27  C   UNL     1      -4.381  13.891  21.355  0.00  0.00    +0.000 A 
ATOM     28  C   UNL     1      -5.711  13.898  20.946  0.00  0.00    +0.000 A 
ATOM     29  C   UNL     1      -6.088  13.134  19.850  0.00  0.00    +0.000 A 
ATOM     30  F   UNL     1      -7.366  13.146  19.448  0.00  0.00    +0.000 F 
ATOM     31  C   UNL     1      -5.162  12.354  19.166  0.00  0.00    +0.000 A 
ENDBRANCH  23  25
ENDBRANCH   6  19
TORSDOF 3
ENDMDL
MODEL 9
REMARK VINA RESULT:      -8.3      7.264      9.138
REMARK  Name = 
REMARK  3 active torsions:
REMARK  status: ('A' for Active; 'I' for Inactive)
REMARK    1  A    between atoms: C_4  and  C_5
REMARK    2  A    between atoms: C_10  and  C_11
REMARK    3  A    between atoms: C_15  and  C_16
REMARK                            x       y       z     vdW  Elec       q    Type
REMARK                         _______ _______ _______ _____ _____    ______ ____
ROOT
ATOM      1  C   UNL     1       2.948   7.113  18.590  0.00  0.00    +0.000 C 
ATOM      2  O   UNL     1       3.790   7.129  17.689  0.00  0.00    +0.000 OA
ATOM      3  N   UNL     1       2.079   8.182  18.782  0.00  0.00    +0.000 N 
ATOM      4  C   UNL     1       1.915   9.145  17.684  0.00  0.00    +0.000 C 
ATOM      5  C   UNL     1       1.853  10.580  18.192  0.00  0.00    +0.000 C 
ATOM      6  C   UNL     1       0.791  10.759  19.291  0.00  0.00    +0.000 C 
ATOM      7  C   UNL     1       1.049   9.724  20.402  0.00  0.00    +0.000 C 
ATOM      8  C   UNL     1       1.099   8.295  19.862  0.00  0.00    +0.000 C 
ENDROOT
BRANCH   1  12
ATOM      9  O   UNL     1       5.644   4.132  18.113  0.00  0.00    +0.000 OA
ATOM     10  C   UNL     1       4.485   4.379  18.444  0.00  0.00    +0.000 C 
ATOM     11  C   UNL     1       4.157   5.153  19.698  0.00  0.00    +0.000 C 
ATOM     12  C   UNL     1       2.840   5.878  19.525  0.00  0.00    +0.000 C 
ATOM     13  N   UNL     1       1.830   4.962  19.030  0.00  0.00    +0.000 N 
ATOM     14  C   UNL     1       2.098   4.074  18.036  0.00  0.00    +0.000 C 
ATOM     15  O   UNL     1       1.203   3.484  17.448  0.00  0.00    +0.000 OA
ATOM     16  N   UNL     1       3.419   3.872  17.756  0.00  0.00    +0.000 N 
ATOM     17  H   UNL     1       0.851   5.227  19.075  0.00  0.00    +0.000 HD
ATOM     18  H   UNL     1       3.624   3.285  16.959  0.00  0.00    +0.000 HD
ENDBRANCH   1  12
BRANCH   6  19
ATOM     19  C   UNL     1      -0.633  10.707  18.769  0.00  0.00    +0.000 A 
ATOM     20  N   UNL     1      -0.882  10.015  17.644  0.00  0.00    +0.000 NA
ATOM     21  C   UNL     1      -2.141  10.057  17.179  0.00  0.00    +0.000 A 
ATOM     22  C   UNL     1      -3.154  10.761  17.786  0.00  0.00    +0.000 A 
ATOM     23  C   UNL     1      -2.820  11.449  18.935  0.00  0.00    +0.000 A 
ATOM     24  N   UNL     1      -1.560  11.430  19.423  0.00  0.00    +0.000 NA
BRANCH  23  25
ATOM     25  C   UNL     1      -3.784  12.263  19.704  0.00  0.00    +0.000 A 
ATOM     26  C   UNL     1      -5.159  12.286  19.394  0.00  0.00    +0.000 A 
ATOM     27  C   UNL     1      -6.058  13.078  20.118  0.00  0.00    +0.000 A 
ATOM     28  C   UNL     1      -5.601  13.859  21.175  0.00  0.00    +0.000 A 
ATOM     29  C   UNL     1      -4.254  13.831  21.506  0.00  0.00    +0.000 A 
ATOM     30  F   UNL     1      -3.813  14.574  22.530  0.00  0.00    +0.000 F 
ATOM     31  C   UNL     1      -3.354  13.047  20.791  0.00  0.00    +0.000 A 
ENDBRANCH  23  25
ENDBRANCH   6  19
TORSDOF 3
ENDMDL
