MODEL 1
REMARK VINA RESULT:      -7.9      0.000      0.000
REMARK  Name = 
REMARK  7 active torsions:
REMARK  status: ('A' for Active; 'I' for Inactive)
REMARK    1  A    between atoms: C_1  and  N_2
REMARK    2  A    between atoms: N_2  and  C_3
REMARK    3  A    between atoms: C_3  and  C_4
REMARK    4  A    between atoms: C_7  and  C_8
REMARK    5  A    between atoms: N_10  and  C_11
REMARK    6  A    between atoms: C_16  and  C_18
REMARK    7  A    between atoms: C_18  and  C_19
REMARK                            x       y       z     vdW  Elec       q    Type
REMARK                         _______ _______ _______ _____ _____    ______ ____
ROOT
ATOM      1  C   UNL     1       7.073   5.416  19.793  0.00  0.00    +0.000 C 
ATOM      2  N   UNL     1       5.804   5.441  19.074  0.00  0.00    +0.000 N 
ATOM      3  C   UNL     1       4.864   4.483  19.473  0.00  0.00    +0.000 C 
ATOM      4  O   UNL     1       5.147   3.701  20.394  0.00  0.00    +0.000 OA
ENDROOT
BRANCH   3   5
ATOM      5  C   UNL     1       3.408   4.452  18.872  0.00  0.00    +0.000 C 
ATOM      6  C   UNL     1       2.648   3.247  19.519  0.00  0.00    +0.000 C 
ATOM      7  C   UNL     1       1.551   2.826  18.542  0.00  0.00    +0.000 C 
ATOM      8  C   UNL     1       1.952   3.386  17.192  0.00  0.00    +0.000 C 
ATOM      9  C   UNL     1       3.332   3.985  17.400  0.00  0.00    +0.000 C 
BRANCH   5  10
ATOM     10  C   UNL     1       2.713   5.785  19.219  0.00  0.00    +0.000 A 
ATOM     11  C   UNL     1       2.238   6.003  20.531  0.00  0.00    +0.000 A 
ATOM     12  C   UNL     1       1.676   7.223  20.920  0.00  0.00    +0.000 A 
ATOM     13  C   UNL     1       1.586   8.266  20.008  0.00  0.00    +0.000 A 
ATOM     14  C   UNL     1       2.046   8.075  18.709  0.00  0.00    +0.000 A 
ATOM     15 CL   UNL     1       1.969   9.375  17.580  0.00  0.00    +0.000 Cl
ATOM     16  C   UNL     1       2.594   6.849  18.309  0.00  0.00    +0.000 A 
ENDBRANCH   5  10
ENDBRANCH   3   5
BRANCH   2  17
ATOM     17  C   UNL     1       5.643   6.285  17.895  0.00  0.00    +0.000 C 
BRANCH  17  18
ATOM     18  C   UNL     1       5.937   5.720  16.532  0.00  0.00    +0.000 A 
ATOM     19  C   UNL     1       6.909   4.713  16.382  0.00  0.00    +0.000 A 
ATOM     20  C   UNL     1       7.126   4.117  15.139  0.00  0.00    +0.000 A 
ATOM     21  C   UNL     1       6.382   4.534  14.030  0.00  0.00    +0.000 A 
ATOM     22  C   UNL     1       5.422   5.544  14.175  0.00  0.00    +0.000 A 
ATOM     23  C   UNL     1       5.203   6.139  15.417  0.00  0.00    +0.000 A 
BRANCH  21  24
ATOM     24  C   UNL     1       6.532   3.909  12.689  0.00  0.00    +0.000 C 
ATOM     25  O   UNL     1       7.267   4.428  11.855  0.00  0.00    +0.000 OA
ATOM     26  N   UNL     1       5.842   2.730  12.475  0.00  0.00    +0.000 N 
ATOM     27  H   UNL     1       5.389   2.267  13.250  0.00  0.00    +0.000 HD
BRANCH  26  28
ATOM     28  C   UNL     1       5.973   2.016  11.245  0.00  0.00    +0.000 C 
ATOM     29  C   UNL     1       6.112   0.518  11.250  0.00  0.00    +0.000 C 
ATOM     30  C   UNL     1       7.273   1.377  10.850  0.00  0.00    +0.000 C 
ENDBRANCH  26  28
ENDBRANCH  21  24
ENDBRANCH  17  18
ENDBRANCH   2  17
TORSDOF 6
ENDMDL
MODEL 2
REMARK VINA RESULT:      -7.7      3.484      8.523
REMARK  Name = 
REMARK  7 active torsions:
REMARK  status: ('A' for Active; 'I' for Inactive)
REMARK    1  A    between atoms: C_1  and  N_2
REMARK    2  A    between atoms: N_2  and  C_3
REMARK    3  A    between atoms: C_3  and  C_4
REMARK    4  A    between atoms: C_7  and  C_8
REMARK    5  A    between atoms: N_10  and  C_11
REMARK    6  A    between atoms: C_16  and  C_18
REMARK    7  A    between atoms: C_18  and  C_19
REMARK                            x       y       z     vdW  Elec       q    Type
REMARK                         _______ _______ _______ _____ _____    ______ ____
ROOT
ATOM      1  C   UNL     1       2.085   4.697  18.560  0.00  0.00    +0.000 C 
ATOM      2  N   UNL     1       3.276   5.220  17.901  0.00  0.00    +0.000 N 
ATOM      3  C   UNL     1       4.117   4.262  17.322  0.00  0.00    +0.000 C 
ATOM      4  O   UNL     1       3.807   3.062  17.386  0.00  0.00    +0.000 OA
ENDROOT
BRANCH   3   5
ATOM      5  C   UNL     1       5.382   4.674  16.478  0.00  0.00    +0.000 C 
ATOM      6  C   UNL     1       4.895   5.561  15.285  0.00  0.00    +0.000 C 
ATOM      7  C   UNL     1       5.931   5.429  14.168  0.00  0.00    +0.000 C 
ATOM      8  C   UNL     1       6.705   4.159  14.461  0.00  0.00    +0.000 C 
ATOM      9  C   UNL     1       6.001   3.525  15.648  0.00  0.00    +0.000 C 
BRANCH   5  10
ATOM     10  C   UNL     1       6.337   5.467  17.394  0.00  0.00    +0.000 A 
ATOM     11  C   UNL     1       6.941   4.822  18.496  0.00  0.00    +0.000 A 
ATOM     12  C   UNL     1       7.875   5.471  19.309  0.00  0.00    +0.000 A 
ATOM     13  C   UNL     1       8.244   6.780  19.031  0.00  0.00    +0.000 A 
ATOM     14  C   UNL     1       7.663   7.437  17.951  0.00  0.00    +0.000 A 
ATOM     15 CL   UNL     1       8.139   9.051  17.581  0.00  0.00    +0.000 Cl
ATOM     16  C   UNL     1       6.712   6.797  17.145  0.00  0.00    +0.000 A 
ENDBRANCH   5  10
ENDBRANCH   3   5
BRANCH   2  17
ATOM     17  C   UNL     1       3.632   6.629  18.036  0.00  0.00    +0.000 C 
BRANCH  17  18
ATOM     18  C   UNL     1       2.596   7.615  18.500  0.00  0.00    +0.000 A 
ATOM     19  C   UNL     1       2.178   7.619  19.843  0.00  0.00    +0.000 A 
ATOM     20  C   UNL     1       1.286   8.586  20.307  0.00  0.00    +0.000 A 
ATOM     21  C   UNL     1       0.790   9.552  19.424  0.00  0.00    +0.000 A 
ATOM     22  C   UNL     1       1.195   9.542  18.083  0.00  0.00    +0.000 A 
ATOM     23  C   UNL     1       2.088   8.578  17.620  0.00  0.00    +0.000 A 
BRANCH  21  24
ATOM     24  C   UNL     1      -0.128  10.637  19.863  0.00  0.00    +0.000 C 
ATOM     25  O   UNL     1      -0.576  11.425  19.036  0.00  0.00    +0.000 OA
ATOM     26  N   UNL     1      -0.453  10.667  21.206  0.00  0.00    +0.000 N 
ATOM     27  H   UNL     1      -0.186   9.897  21.804  0.00  0.00    +0.000 HD
BRANCH  26  28
ATOM     28  C   UNL     1      -1.379  11.628  21.716  0.00  0.00    +0.000 C 
ATOM     29  C   UNL     1      -0.928  12.661  22.711  0.00  0.00    +0.000 C 
ATOM     30  C   UNL     1      -1.860  11.567  23.136  0.00  0.00    +0.000 C 
ENDBRANCH  26  28
ENDBRANCH  21  24
ENDBRANCH  17  18
ENDBRANCH   2  17
TORSDOF 6
ENDMDL
MODEL 3
REMARK VINA RESULT:      -7.6      0.965      1.313
REMARK  Name = 
REMARK  7 active torsions:
REMARK  status: ('A' for Active; 'I' for Inactive)
REMARK    1  A    between atoms: C_1  and  N_2
REMARK    2  A    between atoms: N_2  and  C_3
REMARK    3  A    between atoms: C_3  and  C_4
REMARK    4  A    between atoms: C_7  and  C_8
REMARK    5  A    between atoms: N_10  and  C_11
REMARK    6  A    between atoms: C_16  and  C_18
REMARK    7  A    between atoms: C_18  and  C_19
REMARK                            x       y       z     vdW  Elec       q    Type
REMARK                         _______ _______ _______ _____ _____    ______ ____
ROOT
ATOM      1  C   UNL     1       6.948   5.255  19.528  0.00  0.00    +0.000 C 
ATOM      2  N   UNL     1       5.634   5.385  18.910  0.00  0.00    +0.000 N 
ATOM      3  C   UNL     1       4.650   4.513  19.391  0.00  0.00    +0.000 C 
ATOM      4  O   UNL     1       4.936   3.713  20.296  0.00  0.00    +0.000 OA
ENDROOT
BRANCH   3   5
ATOM      5  C   UNL     1       3.154   4.603  18.904  0.00  0.00    +0.000 C 
ATOM      6  C   UNL     1       2.296   3.664  19.815  0.00  0.00    +0.000 C 
ATOM      7  C   UNL     1       1.064   3.253  19.011  0.00  0.00    +0.000 C 
ATOM      8  C   UNL     1       1.411   3.497  17.555  0.00  0.00    +0.000 C 
ATOM      9  C   UNL     1       2.875   3.901  17.555  0.00  0.00    +0.000 C 
BRANCH   5  10
ATOM     10  C   UNL     1       2.690   6.068  19.039  0.00  0.00    +0.000 A 
ATOM     11  C   UNL     1       2.583   6.874  17.884  0.00  0.00    +0.000 A 
ATOM     12  C   UNL     1       2.091   8.182  17.940  0.00  0.00    +0.000 A 
ATOM     13  C   UNL     1       1.675   8.714  19.152  0.00  0.00    +0.000 A 
ATOM     14  C   UNL     1       1.771   7.940  20.304  0.00  0.00    +0.000 A 
ATOM     15 CL   UNL     1       1.227   8.582  21.808  0.00  0.00    +0.000 Cl
ATOM     16  C   UNL     1       2.281   6.635  20.257  0.00  0.00    +0.000 A 
ENDBRANCH   5  10
ENDBRANCH   3   5
BRANCH   2  17
ATOM     17  C   UNL     1       5.454   6.234  17.737  0.00  0.00    +0.000 C 
BRANCH  17  18
ATOM     18  C   UNL     1       5.758   5.685  16.370  0.00  0.00    +0.000 A 
ATOM     19  C   UNL     1       7.090   5.437  15.991  0.00  0.00    +0.000 A 
ATOM     20  C   UNL     1       7.379   4.843  14.761  0.00  0.00    +0.000 A 
ATOM     21  C   UNL     1       6.336   4.507  13.891  0.00  0.00    +0.000 A 
ATOM     22  C   UNL     1       5.010   4.764  14.262  0.00  0.00    +0.000 A 
ATOM     23  C   UNL     1       4.720   5.355  15.491  0.00  0.00    +0.000 A 
BRANCH  21  24
ATOM     24  C   UNL     1       6.572   3.831  12.587  0.00  0.00    +0.000 C 
ATOM     25  O   UNL     1       7.386   4.300  11.798  0.00  0.00    +0.000 OA
ATOM     26  N   UNL     1       5.866   2.666  12.358  0.00  0.00    +0.000 N 
ATOM     27  H   UNL     1       5.338   2.242  13.109  0.00  0.00    +0.000 HD
BRANCH  26  28
ATOM     28  C   UNL     1       6.071   1.905  11.166  0.00  0.00    +0.000 C 
ATOM     29  C   UNL     1       6.118   0.403  11.225  0.00  0.00    +0.000 C 
ATOM     30  C   UNL     1       7.362   1.180  10.918  0.00  0.00    +0.000 C 
ENDBRANCH  26  28
ENDBRANCH  21  24
ENDBRANCH  17  18
ENDBRANCH   2  17
TORSDOF 6
ENDMDL
MODEL 4
REMARK VINA RESULT:      -7.4      4.895     10.263
REMARK  Name = 
REMARK  7 active torsions:
REMARK  status: ('A' for Active; 'I' for Inactive)
REMARK    1  A    between atoms: C_1  and  N_2
REMARK    2  A    between atoms: N_2  and  C_3
REMARK    3  A    between atoms: C_3  and  C_4
REMARK    4  A    between atoms: C_7  and  C_8
REMARK    5  A    between atoms: N_10  and  C_11
REMARK    6  A    between atoms: C_16  and  C_18
REMARK    7  A    between atoms: C_18  and  C_19
REMARK                            x       y       z     vdW  Elec       q    Type
REMARK                         _______ _______ _______ _____ _____    ______ ____
ROOT
ATOM      1  C   UNL     1       2.151   9.626  18.105  0.00  0.00    +0.000 C 
ATOM      2  N   UNL     1       2.116   8.282  18.670  0.00  0.00    +0.000 N 
ATOM      3  C   UNL     1       2.845   7.313  17.970  0.00  0.00    +0.000 C 
ATOM      4  O   UNL     1       3.471   7.642  16.951  0.00  0.00    +0.000 OA
ENDROOT
BRANCH   3   5
ATOM      5  C   UNL     1       2.998   5.841  18.512  0.00  0.00    +0.000 C 
ATOM      6  C   UNL     1       1.896   4.964  17.831  0.00  0.00    +0.000 C 
ATOM      7  C   UNL     1       1.617   3.783  18.761  0.00  0.00    +0.000 C 
ATOM      8  C   UNL     1       2.124   4.196  20.129  0.00  0.00    +0.000 C 
ATOM      9  C   UNL     1       2.545   5.648  19.978  0.00  0.00    +0.000 C 
BRANCH   5  10
ATOM     10  C   UNL     1       4.407   5.334  18.143  0.00  0.00    +0.000 A 
ATOM     11  C   UNL     1       4.601   4.639  16.929  0.00  0.00    +0.000 A 
ATOM     12  C   UNL     1       5.870   4.229  16.508  0.00  0.00    +0.000 A 
ATOM     13  C   UNL     1       6.984   4.518  17.285  0.00  0.00    +0.000 A 
ATOM     14  C   UNL     1       6.818   5.201  18.486  0.00  0.00    +0.000 A 
ATOM     15 CL   UNL     1       8.198   5.591  19.440  0.00  0.00    +0.000 Cl
ATOM     16  C   UNL     1       5.546   5.597  18.921  0.00  0.00    +0.000 A 
ENDBRANCH   5  10
ENDBRANCH   3   5
BRANCH   2  17
ATOM     17  C   UNL     1       1.209   7.970  19.769  0.00  0.00    +0.000 C 
BRANCH  17  18
ATOM     18  C   UNL     1       0.621   9.088  20.587  0.00  0.00    +0.000 A 
ATOM     19  C   UNL     1      -0.252  10.014  19.988  0.00  0.00    +0.000 A 
ATOM     20  C   UNL     1      -0.874  11.000  20.754  0.00  0.00    +0.000 A 
ATOM     21  C   UNL     1      -0.617  11.078  22.127  0.00  0.00    +0.000 A 
ATOM     22  C   UNL     1       0.262  10.163  22.723  0.00  0.00    +0.000 A 
ATOM     23  C   UNL     1       0.882   9.177  21.959  0.00  0.00    +0.000 A 
BRANCH  21  24
ATOM     24  C   UNL     1      -1.282  12.075  23.009  0.00  0.00    +0.000 C 
ATOM     25  O   UNL     1      -0.661  13.064  23.383  0.00  0.00    +0.000 OA
ATOM     26  N   UNL     1      -2.604  11.833  23.327  0.00  0.00    +0.000 N 
ATOM     27  H   UNL     1      -3.107  11.093  22.857  0.00  0.00    +0.000 HD
BRANCH  26  28
ATOM     28  C   UNL     1      -3.353  12.764  24.112  0.00  0.00    +0.000 C 
ATOM     29  C   UNL     1      -4.745  12.424  24.567  0.00  0.00    +0.000 C 
ATOM     30  C   UNL     1      -4.533  13.492  23.538  0.00  0.00    +0.000 C 
ENDBRANCH  26  28
ENDBRANCH  21  24
ENDBRANCH  17  18
ENDBRANCH   2  17
TORSDOF 6
ENDMDL
MODEL 5
REMARK VINA RESULT:      -7.4      3.512      8.710
REMARK  Name = 
REMARK  7 active torsions:
REMARK  status: ('A' for Active; 'I' for Inactive)
REMARK    1  A    between atoms: C_1  and  N_2
REMARK    2  A    between atoms: N_2  and  C_3
REMARK    3  A    between atoms: C_3  and  C_4
REMARK    4  A    between atoms: C_7  and  C_8
REMARK    5  A    between atoms: N_10  and  C_11
REMARK    6  A    between atoms: C_16  and  C_18
REMARK    7  A    between atoms: C_18  and  C_19
REMARK                            x       y       z     vdW  Elec       q    Type
REMARK                         _______ _______ _______ _____ _____    ______ ____
ROOT
ATOM      1  C   UNL     1       2.926   4.064  19.397  0.00  0.00    +0.000 C 
ATOM      2  N   UNL     1       3.693   4.993  18.575  0.00  0.00    +0.000 N 
ATOM      3  C   UNL     1       5.084   4.920  18.719  0.00  0.00    +0.000 C 
ATOM      4  O   UNL     1       5.572   4.088  19.499  0.00  0.00    +0.000 OA
ENDROOT
BRANCH   3   5
ATOM      5  C   UNL     1       6.055   5.778  17.821  0.00  0.00    +0.000 C 
ATOM      6  C   UNL     1       7.433   5.869  18.556  0.00  0.00    +0.000 C 
ATOM      7  C   UNL     1       8.123   7.143  18.072  0.00  0.00    +0.000 C 
ATOM      8  C   UNL     1       7.029   8.020  17.493  0.00  0.00    +0.000 C 
ATOM      9  C   UNL     1       5.731   7.290  17.791  0.00  0.00    +0.000 C 
BRANCH   5  10
ATOM     10  C   UNL     1       6.207   5.069  16.459  0.00  0.00    +0.000 A 
ATOM     11  C   UNL     1       5.397   3.952  16.161  0.00  0.00    +0.000 A 
ATOM     12  C   UNL     1       5.437   3.324  14.912  0.00  0.00    +0.000 A 
ATOM     13  C   UNL     1       6.280   3.807  13.921  0.00  0.00    +0.000 A 
ATOM     14  C   UNL     1       7.089   4.906  14.191  0.00  0.00    +0.000 A 
ATOM     15 CL   UNL     1       8.114   5.532  12.956  0.00  0.00    +0.000 Cl
ATOM     16  C   UNL     1       7.066   5.528  15.447  0.00  0.00    +0.000 A 
ENDBRANCH   5  10
ENDBRANCH   3   5
BRANCH   2  17
ATOM     17  C   UNL     1       3.015   6.045  17.826  0.00  0.00    +0.000 C 
BRANCH  17  18
ATOM     18  C   UNL     1       2.415   7.212  18.562  0.00  0.00    +0.000 A 
ATOM     19  C   UNL     1       2.024   8.364  17.856  0.00  0.00    +0.000 A 
ATOM     20  C   UNL     1       1.384   9.416  18.513  0.00  0.00    +0.000 A 
ATOM     21  C   UNL     1       1.142   9.330  19.888  0.00  0.00    +0.000 A 
ATOM     22  C   UNL     1       1.542   8.189  20.595  0.00  0.00    +0.000 A 
ATOM     23  C   UNL     1       2.180   7.137  19.940  0.00  0.00    +0.000 A 
BRANCH  21  24
ATOM     24  C   UNL     1       0.425  10.394  20.640  0.00  0.00    +0.000 C 
ATOM     25  O   UNL     1       0.908  10.836  21.678  0.00  0.00    +0.000 OA
ATOM     26  N   UNL     1      -0.754  10.855  20.085  0.00  0.00    +0.000 N 
ATOM     27  H   UNL     1      -1.014  10.572  19.151  0.00  0.00    +0.000 HD
BRANCH  26  28
ATOM     28  C   UNL     1      -1.484  11.922  20.694  0.00  0.00    +0.000 C 
ATOM     29  C   UNL     1      -2.687  12.506  20.005  0.00  0.00    +0.000 C 
ATOM     30  C   UNL     1      -1.433  13.316  20.138  0.00  0.00    +0.000 C 
ENDBRANCH  26  28
ENDBRANCH  21  24
ENDBRANCH  17  18
ENDBRANCH   2  17
TORSDOF 6
ENDMDL
MODEL 6
REMARK VINA RESULT:      -7.3      3.377      7.912
REMARK  Name = 
REMARK  7 active torsions:
REMARK  status: ('A' for Active; 'I' for Inactive)
REMARK    1  A    between atoms: C_1  and  N_2
REMARK    2  A    between atoms: N_2  and  C_3
REMARK    3  A    between atoms: C_3  and  C_4
REMARK    4  A    between atoms: C_7  and  C_8
REMARK    5  A    between atoms: N_10  and  C_11
REMARK    6  A    between atoms: C_16  and  C_18
REMARK    7  A    between atoms: C_18  and  C_19
REMARK                            x       y       z     vdW  Elec       q    Type
REMARK                         _______ _______ _______ _____ _____    ______ ____
ROOT
ATOM      1  C   UNL     1       2.663   3.961  19.329  0.00  0.00    +0.000 C 
ATOM      2  N   UNL     1       3.690   4.665  18.569  0.00  0.00    +0.000 N 
ATOM      3  C   UNL     1       4.414   3.882  17.661  0.00  0.00    +0.000 C 
ATOM      4  O   UNL     1       4.141   2.677  17.546  0.00  0.00    +0.000 OA
ENDROOT
BRANCH   3   5
ATOM      5  C   UNL     1       5.479   4.515  16.688  0.00  0.00    +0.000 C 
ATOM      6  C   UNL     1       4.712   5.390  15.642  0.00  0.00    +0.000 C 
ATOM      7  C   UNL     1       5.585   5.468  14.389  0.00  0.00    +0.000 C 
ATOM      8  C   UNL     1       6.555   4.306  14.479  0.00  0.00    +0.000 C 
ATOM      9  C   UNL     1       6.118   3.513  15.699  0.00  0.00    +0.000 C 
BRANCH   5  10
ATOM     10  C   UNL     1       6.443   5.383  17.524  0.00  0.00    +0.000 A 
ATOM     11  C   UNL     1       7.219   4.781  18.539  0.00  0.00    +0.000 A 
ATOM     12  C   UNL     1       8.166   5.506  19.270  0.00  0.00    +0.000 A 
ATOM     13  C   UNL     1       8.373   6.850  18.995  0.00  0.00    +0.000 A 
ATOM     14  C   UNL     1       7.619   7.466  18.001  0.00  0.00    +0.000 A 
ATOM     15 CL   UNL     1       7.892   9.126  17.631  0.00  0.00    +0.000 Cl
ATOM     16  C   UNL     1       6.656   6.749  17.277  0.00  0.00    +0.000 A 
ENDBRANCH   5  10
ENDBRANCH   3   5
BRANCH   2  17
ATOM     17  C   UNL     1       4.045   6.039  18.909  0.00  0.00    +0.000 C 
BRANCH  17  18
ATOM     18  C   UNL     1       2.998   7.116  18.833  0.00  0.00    +0.000 A 
ATOM     19  C   UNL     1       2.190   7.392  19.952  0.00  0.00    +0.000 A 
ATOM     20  C   UNL     1       1.277   8.448  19.924  0.00  0.00    +0.000 A 
ATOM     21  C   UNL     1       1.154   9.229  18.770  0.00  0.00    +0.000 A 
ATOM     22  C   UNL     1       1.950   8.948  17.651  0.00  0.00    +0.000 A 
ATOM     23  C   UNL     1       2.862   7.895  17.678  0.00  0.00    +0.000 A 
BRANCH  21  24
ATOM     24  C   UNL     1       0.236  10.396  18.691  0.00  0.00    +0.000 C 
ATOM     25  O   UNL     1      -0.975  10.224  18.787  0.00  0.00    +0.000 OA
ATOM     26  N   UNL     1       0.825  11.638  18.546  0.00  0.00    +0.000 N 
ATOM     27  H   UNL     1       1.826  11.732  18.640  0.00  0.00    +0.000 HD
BRANCH  26  28
ATOM     28  C   UNL     1       0.034  12.828  18.529  0.00  0.00    +0.000 C 
ATOM     29  C   UNL     1       0.663  14.160  18.831  0.00  0.00    +0.000 C 
ATOM     30  C   UNL     1      -0.309  13.553  19.797  0.00  0.00    +0.000 C 
ENDBRANCH  26  28
ENDBRANCH  21  24
ENDBRANCH  17  18
ENDBRANCH   2  17
TORSDOF 6
ENDMDL
MODEL 7
REMARK VINA RESULT:      -7.3      4.754      8.401
REMARK  Name = 
REMARK  7 active torsions:
REMARK  status: ('A' for Active; 'I' for Inactive)
REMARK    1  A    between atoms: C_1  and  N_2
REMARK    2  A    between atoms: N_2  and  C_3
REMARK    3  A    between atoms: C_3  and  C_4
REMARK    4  A    between atoms: C_7  and  C_8
REMARK    5  A    between atoms: N_10  and  C_11
REMARK    6  A    between atoms: C_16  and  C_18
REMARK    7  A    between atoms: C_18  and  C_19
REMARK                            x       y       z     vdW  Elec       q    Type
REMARK                         _______ _______ _______ _____ _____    ______ ____
ROOT
ATOM      1  C   UNL     1      -1.024   9.734  17.174  0.00  0.00    +0.000 C 
ATOM      2  N   UNL     1      -0.298  10.622  18.074  0.00  0.00    +0.000 N 
ATOM      3  C   UNL     1      -0.984  11.778  18.467  0.00  0.00    +0.000 C 
ATOM      4  O   UNL     1      -2.138  11.970  18.053  0.00  0.00    +0.000 OA
ENDROOT
BRANCH   3   5
ATOM      5  C   UNL     1      -0.380  12.781  19.522  0.00  0.00    +0.000 C 
ATOM      6  C   UNL     1      -0.925  14.209  19.192  0.00  0.00    +0.000 C 
ATOM      7  C   UNL     1       0.085  15.218  19.740  0.00  0.00    +0.000 C 
ATOM      8  C   UNL     1       1.384  14.458  19.918  0.00  0.00    +0.000 C 
ATOM      9  C   UNL     1       1.125  13.080  19.334  0.00  0.00    +0.000 C 
BRANCH   5  10
ATOM     10  C   UNL     1      -0.833  12.334  20.928  0.00  0.00    +0.000 A 
ATOM     11  C   UNL     1      -1.951  12.953  21.529  0.00  0.00    +0.000 A 
ATOM     12  C   UNL     1      -2.452  12.531  22.765  0.00  0.00    +0.000 A 
ATOM     13  C   UNL     1      -1.856  11.465  23.426  0.00  0.00    +0.000 A 
ATOM     14  C   UNL     1      -0.753  10.840  22.854  0.00  0.00    +0.000 A 
ATOM     15 CL   UNL     1      -0.029   9.496  23.653  0.00  0.00    +0.000 Cl
ATOM     16  C   UNL     1      -0.236  11.271  21.625  0.00  0.00    +0.000 A 
ENDBRANCH   5  10
ENDBRANCH   3   5
BRANCH   2  17
ATOM     17  C   UNL     1       1.114  10.388  18.357  0.00  0.00    +0.000 C 
BRANCH  17  18
ATOM     18  C   UNL     1       1.562   9.033  18.830  0.00  0.00    +0.000 A 
ATOM     19  C   UNL     1       1.267   8.611  20.140  0.00  0.00    +0.000 A 
ATOM     20  C   UNL     1       1.597   7.323  20.562  0.00  0.00    +0.000 A 
ATOM     21  C   UNL     1       2.240   6.447  19.680  0.00  0.00    +0.000 A 
ATOM     22  C   UNL     1       2.544   6.869  18.379  0.00  0.00    +0.000 A 
ATOM     23  C   UNL     1       2.213   8.155  17.956  0.00  0.00    +0.000 A 
BRANCH  21  24
ATOM     24  C   UNL     1       2.577   5.047  20.050  0.00  0.00    +0.000 C 
ATOM     25  O   UNL     1       2.427   4.672  21.209  0.00  0.00    +0.000 OA
ATOM     26  N   UNL     1       3.015   4.225  19.029  0.00  0.00    +0.000 N 
ATOM     27  H   UNL     1       2.960   4.542  18.071  0.00  0.00    +0.000 HD
BRANCH  26  28
ATOM     28  C   UNL     1       3.300   2.845  19.268  0.00  0.00    +0.000 C 
ATOM     29  C   UNL     1       3.457   1.894  18.114  0.00  0.00    +0.000 C 
ATOM     30  C   UNL     1       2.268   1.784  19.019  0.00  0.00    +0.000 C 
ENDBRANCH  26  28
ENDBRANCH  21  24
ENDBRANCH  17  18
ENDBRANCH   2  17
TORSDOF 6
ENDMDL
MODEL 8
REMARK VINA RESULT:      -7.3      5.101     10.419
REMARK  Name = 
REMARK  7 active torsions:
REMARK  status: ('A' for Active; 'I' for Inactive)
REMARK    1  A    between atoms: C_1  and  N_2
REMARK    2  A    between atoms: N_2  and  C_3
REMARK    3  A    between atoms: C_3  and  C_4
REMARK    4  A    between atoms: C_7  and  C_8
REMARK    5  A    between atoms: N_10  and  C_11
REMARK    6  A    between atoms: C_16  and  C_18
REMARK    7  A    between atoms: C_18  and  C_19
REMARK                            x       y       z     vdW  Elec       q    Type
REMARK                         _______ _______ _______ _____ _____    ______ ____
ROOT
ATOM      1  C   UNL     1       1.854   9.810  18.450  0.00  0.00    +0.000 C 
ATOM      2  N   UNL     1       1.889   8.456  18.989  0.00  0.00    +0.000 N 
ATOM      3  C   UNL     1       2.473   7.489  18.161  0.00  0.00    +0.000 C 
ATOM      4  O   UNL     1       2.926   7.829  17.057  0.00  0.00    +0.000 OA
ENDROOT
BRANCH   3   5
ATOM      5  C   UNL     1       2.686   6.005  18.644  0.00  0.00    +0.000 C 
ATOM      6  C   UNL     1       1.640   5.106  17.906  0.00  0.00    +0.000 C 
ATOM      7  C   UNL     1       1.401   3.876  18.781  0.00  0.00    +0.000 C 
ATOM      8  C   UNL     1       1.865   4.254  20.174  0.00  0.00    +0.000 C 
ATOM      9  C   UNL     1       2.219   5.729  20.092  0.00  0.00    +0.000 C 
BRANCH   5  10
ATOM     10  C   UNL     1       4.124   5.580  18.281  0.00  0.00    +0.000 A 
ATOM     11  C   UNL     1       5.153   5.715  19.239  0.00  0.00    +0.000 A 
ATOM     12  C   UNL     1       6.455   5.270  18.990  0.00  0.00    +0.000 A 
ATOM     13  C   UNL     1       6.761   4.664  17.780  0.00  0.00    +0.000 A 
ATOM     14  C   UNL     1       5.764   4.520  16.820  0.00  0.00    +0.000 A 
ATOM     15 CL   UNL     1       6.127   3.740  15.327  0.00  0.00    +0.000 Cl
ATOM     16  C   UNL     1       4.462   4.981  17.057  0.00  0.00    +0.000 A 
ENDBRANCH   5  10
ENDBRANCH   3   5
BRANCH   2  17
ATOM     17  C   UNL     1       1.172   8.135  20.219  0.00  0.00    +0.000 C 
BRANCH  17  18
ATOM     18  C   UNL     1       0.474   9.230  20.978  0.00  0.00    +0.000 A 
ATOM     19  C   UNL     1      -0.118  10.301  20.284  0.00  0.00    +0.000 A 
ATOM     20  C   UNL     1      -0.845  11.275  20.969  0.00  0.00    +0.000 A 
ATOM     21  C   UNL     1      -0.974  11.195  22.360  0.00  0.00    +0.000 A 
ATOM     22  C   UNL     1      -0.375  10.136  23.054  0.00  0.00    +0.000 A 
ATOM     23  C   UNL     1       0.350   9.161  22.371  0.00  0.00    +0.000 A 
BRANCH  21  24
ATOM     24  C   UNL     1      -1.773  12.173  23.145  0.00  0.00    +0.000 C 
ATOM     25  O   UNL     1      -1.333  13.302  23.338  0.00  0.00    +0.000 OA
ATOM     26  N   UNL     1      -3.011  11.747  23.588  0.00  0.00    +0.000 N 
ATOM     27  H   UNL     1      -3.387  10.869  23.259  0.00  0.00    +0.000 HD
BRANCH  26  28
ATOM     28  C   UNL     1      -3.884  12.632  24.292  0.00  0.00    +0.000 C 
ATOM     29  C   UNL     1      -5.343  12.299  24.439  0.00  0.00    +0.000 C 
ATOM     30  C   UNL     1      -4.919  13.442  23.568  0.00  0.00    +0.000 C 
ENDBRANCH  26  28
ENDBRANCH  21  24
ENDBRANCH  17  18
ENDBRANCH   2  17
TORSDOF 6
ENDMDL
MODEL 9
REMARK VINA RESULT:      -7.3      3.481      8.435
REMARK  Name = 
REMARK  7 active torsions:
REMARK  status: ('A' for Active; 'I' for Inactive)
REMARK    1  A    between atoms: C_1  and  N_2
REMARK    2  A    between atoms: N_2  and  C_3
REMARK    3  A    between atoms: C_3  and  C_4
REMARK    4  A    between atoms: C_7  and  C_8
REMARK    5  A    between atoms: N_10  and  C_11
REMARK    6  A    between atoms: C_16  and  C_18
REMARK    7  A    between atoms: C_18  and  C_19
REMARK                            x       y       z     vdW  Elec       q    Type
REMARK                         _______ _______ _______ _____ _____    ______ ____
ROOT
ATOM      1  C   UNL     1       1.945   4.857  18.303  0.00  0.00    +0.000 C 
ATOM      2  N   UNL     1       3.164   5.335  17.663  0.00  0.00    +0.000 N 
ATOM      3  C   UNL     1       4.021   4.341  17.175  0.00  0.00    +0.000 C 
ATOM      4  O   UNL     1       3.700   3.148  17.298  0.00  0.00    +0.000 OA
ENDROOT
BRANCH   3   5
ATOM      5  C   UNL     1       5.323   4.696  16.361  0.00  0.00    +0.000 C 
ATOM      6  C   UNL     1       4.901   5.597  15.154  0.00  0.00    +0.000 C 
ATOM      7  C   UNL     1       5.957   5.417  14.063  0.00  0.00    +0.000 C 
ATOM      8  C   UNL     1       6.671   4.118  14.378  0.00  0.00    +0.000 C 
ATOM      9  C   UNL     1       5.912   3.519  15.550  0.00  0.00    +0.000 C 
BRANCH   5  10
ATOM     10  C   UNL     1       6.288   5.452  17.297  0.00  0.00    +0.000 A 
ATOM     11  C   UNL     1       6.956   4.750  18.324  0.00  0.00    +0.000 A 
ATOM     12  C   UNL     1       7.901   5.370  19.147  0.00  0.00    +0.000 A 
ATOM     13  C   UNL     1       8.216   6.708  18.955  0.00  0.00    +0.000 A 
ATOM     14  C   UNL     1       7.570   7.422  17.950  0.00  0.00    +0.000 A 
ATOM     15 CL   UNL     1       7.979   9.074  17.684  0.00  0.00    +0.000 Cl
ATOM     16  C   UNL     1       6.609   6.810  17.134  0.00  0.00    +0.000 A 
ENDBRANCH   5  10
ENDBRANCH   3   5
BRANCH   2  17
ATOM     17  C   UNL     1       3.525   6.747  17.729  0.00  0.00    +0.000 C 
BRANCH  17  18
ATOM     18  C   UNL     1       2.620   7.711  18.446  0.00  0.00    +0.000 A 
ATOM     19  C   UNL     1       2.347   7.536  19.815  0.00  0.00    +0.000 A 
ATOM     20  C   UNL     1       1.583   8.473  20.512  0.00  0.00    +0.000 A 
ATOM     21  C   UNL     1       1.071   9.588  19.840  0.00  0.00    +0.000 A 
ATOM     22  C   UNL     1       1.332   9.759  18.474  0.00  0.00    +0.000 A 
ATOM     23  C   UNL     1       2.097   8.824  17.778  0.00  0.00    +0.000 A 
BRANCH  21  24
ATOM     24  C   UNL     1       0.289  10.647  20.533  0.00  0.00    +0.000 C 
ATOM     25  O   UNL     1       0.817  11.310  21.420  0.00  0.00    +0.000 OA
ATOM     26  N   UNL     1      -1.006  10.846  20.095  0.00  0.00    +0.000 N 
ATOM     27  H   UNL     1      -1.328  10.385  19.255  0.00  0.00    +0.000 HD
BRANCH  26  28
ATOM     28  C   UNL     1      -1.818  11.883  20.648  0.00  0.00    +0.000 C 
ATOM     29  C   UNL     1      -2.944  12.473  19.845  0.00  0.00    +0.000 C 
ATOM     30  C   UNL     1      -1.727  13.294  20.145  0.00  0.00    +0.000 C 
ENDBRANCH  26  28
ENDBRANCH  21  24
ENDBRANCH  17  18
ENDBRANCH   2  17
TORSDOF 6
ENDMDL
