MODEL 1
REMARK VINA RESULT:      -8.7      0.000      0.000
REMARK  Name = 
REMARK  5 active torsions:
REMARK  status: ('A' for Active; 'I' for Inactive)
REMARK    1  A    between atoms: C_2  and  C_19
REMARK    2  A    between atoms: N_3  and  C_4
REMARK    3  A    between atoms: C_4  and  C_5
REMARK    4  A    between atoms: C_5  and  C_6
REMARK    5  A    between atoms: C_5  and  N_13
REMARK                            x       y       z     vdW  Elec       q    Type
REMARK                         _______ _______ _______ _____ _____    ______ ____
ROOT
ATOM      1  O   UNL     1       1.521   9.386  18.004  0.00  0.00    +0.000 OA
ATOM      2  C   UNL     1       1.577   8.828  19.087  0.00  0.00    +0.000 C 
ATOM      3  N   UNL     1       2.253   7.648  19.309  0.00  0.00    +0.000 N 
ATOM      4  H   UNL     1       2.068   7.133  20.156  0.00  0.00    +0.000 HD
ENDROOT
BRANCH   2   5
ATOM      5  C   UNL     1       0.843   9.379  20.259  0.00  0.00    +0.000 A 
ATOM      6  C   UNL     1       0.973   8.804  21.552  0.00  0.00    +0.000 A 
ATOM      7  C   UNL     1       0.259   9.313  22.645  0.00  0.00    +0.000 A 
ATOM      8  C   UNL     1      -0.563  10.387  22.396  0.00  0.00    +0.000 A 
ATOM      9  N   UNL     1      -1.393  11.087  23.265  0.00  0.00    +0.000 N 
ATOM     10  C   UNL     1      -2.040  12.104  22.544  0.00  0.00    +0.000 A 
ATOM     11  O   UNL     1      -2.839  12.906  22.984  0.00  0.00    +0.000 OA
ATOM     12  N   UNL     1      -1.580  12.015  21.221  0.00  0.00    +0.000 N 
ATOM     13  C   UNL     1      -0.679  10.960  21.134  0.00  0.00    +0.000 A 
ATOM     14  C   UNL     1       0.012  10.490  20.044  0.00  0.00    +0.000 A 
ATOM     15  H   UNL     1      -1.538  10.923  24.245  0.00  0.00    +0.000 HD
ATOM     16  H   UNL     1      -1.881  12.626  20.484  0.00  0.00    +0.000 HD
ENDBRANCH   2   5
BRANCH   3  17
ATOM     17  C   UNL     1       2.901   6.944  18.203  0.00  0.00    +0.000 C 
BRANCH  17  18
ATOM     18  C   UNL     1       3.788   5.757  18.683  0.00  0.00    +0.000 C 
BRANCH  18  19
ATOM     19  C   UNL     1       2.941   4.659  19.332  0.00  0.00    +0.000 A 
ATOM     20  C   UNL     1       2.797   4.613  20.731  0.00  0.00    +0.000 A 
ATOM     21  C   UNL     1       1.885   3.753  21.345  0.00  0.00    +0.000 A 
ATOM     22  C   UNL     1       1.155   2.855  20.578  0.00  0.00    +0.000 A 
ATOM     23  C   UNL     1       1.379   2.785  19.206  0.00  0.00    +0.000 A 
ATOM     24  C   UNL     1       2.267   3.674  18.585  0.00  0.00    +0.000 A 
ATOM     25 CL   UNL     1       2.516   3.458  16.888  0.00  0.00    +0.000 Cl
ENDBRANCH  18  19
BRANCH  18  26
ATOM     26  N   UNL     1       4.762   5.307  17.662  0.00  0.00    +0.000 NA
ATOM     27  C   UNL     1       5.877   4.429  18.038  0.00  0.00    +0.000 C 
ATOM     28  C   UNL     1       7.222   5.133  18.328  0.00  0.00    +0.000 C 
ATOM     29  O   UNL     1       7.570   6.088  17.321  0.00  0.00    +0.000 OA
ATOM     30  C   UNL     1       6.514   7.042  17.145  0.00  0.00    +0.000 C 
ATOM     31  C   UNL     1       5.219   6.338  16.717  0.00  0.00    +0.000 C 
ENDBRANCH  18  26
ENDBRANCH  17  18
ENDBRANCH   3  17
TORSDOF 5
ENDMDL
MODEL 2
REMARK VINA RESULT:      -8.5      0.949      1.106
REMARK  Name = 
REMARK  5 active torsions:
REMARK  status: ('A' for Active; 'I' for Inactive)
REMARK    1  A    between atoms: C_2  and  C_19
REMARK    2  A    between atoms: N_3  and  C_4
REMARK    3  A    between atoms: C_4  and  C_5
REMARK    4  A    between atoms: C_5  and  C_6
REMARK    5  A    between atoms: C_5  and  N_13
REMARK                            x       y       z     vdW  Elec       q    Type
REMARK                         _______ _______ _______ _____ _____    ______ ____
ROOT
ATOM      1  O   UNL     1       2.094   9.330  17.265  0.00  0.00    +0.000 OA
ATOM      2  C   UNL     1       1.792   8.887  18.361  0.00  0.00    +0.000 C 
ATOM      3  N   UNL     1       2.175   7.646  18.820  0.00  0.00    +0.000 N 
ATOM      4  H   UNL     1       1.705   7.260  19.624  0.00  0.00    +0.000 HD
ENDROOT
BRANCH   2   5
ATOM      5  C   UNL     1       0.912   9.668  19.273  0.00  0.00    +0.000 A 
ATOM      6  C   UNL     1       0.851   9.385  20.664  0.00  0.00    +0.000 A 
ATOM      7  C   UNL     1       0.001  10.109  21.513  0.00  0.00    +0.000 A 
ATOM      8  C   UNL     1      -0.759  11.093  20.928  0.00  0.00    +0.000 A 
ATOM      9  N   UNL     1      -1.689  11.953  21.502  0.00  0.00    +0.000 N 
ATOM     10  C   UNL     1      -2.211  12.784  20.497  0.00  0.00    +0.000 A 
ATOM     11  O   UNL     1      -3.049  13.652  20.639  0.00  0.00    +0.000 OA
ATOM     12  N   UNL     1      -1.574  12.419  19.301  0.00  0.00    +0.000 N 
ATOM     13  C   UNL     1      -0.688  11.381  19.568  0.00  0.00    +0.000 A 
ATOM     14  C   UNL     1       0.139  10.697  18.711  0.00  0.00    +0.000 A 
ATOM     15  H   UNL     1      -1.971  12.001  22.465  0.00  0.00    +0.000 HD
ATOM     16  H   UNL     1      -1.758  12.855  18.416  0.00  0.00    +0.000 HD
ENDBRANCH   2   5
BRANCH   3  17
ATOM     17  C   UNL     1       2.929   6.736  17.959  0.00  0.00    +0.000 C 
BRANCH  17  18
ATOM     18  C   UNL     1       3.790   5.721  18.766  0.00  0.00    +0.000 C 
BRANCH  18  19
ATOM     19  C   UNL     1       2.919   4.623  19.383  0.00  0.00    +0.000 A 
ATOM     20  C   UNL     1       2.678   4.609  20.770  0.00  0.00    +0.000 A 
ATOM     21  C   UNL     1       1.740   3.747  21.341  0.00  0.00    +0.000 A 
ATOM     22  C   UNL     1       1.083   2.815  20.549  0.00  0.00    +0.000 A 
ATOM     23  C   UNL     1       1.405   2.715  19.199  0.00  0.00    +0.000 A 
ATOM     24  C   UNL     1       2.318   3.606  18.618  0.00  0.00    +0.000 A 
ATOM     25 CL   UNL     1       2.691   3.351  16.949  0.00  0.00    +0.000 Cl
ENDBRANCH  18  19
BRANCH  18  26
ATOM     26  N   UNL     1       4.991   5.259  18.031  0.00  0.00    +0.000 NA
ATOM     27  C   UNL     1       6.142   4.714  18.760  0.00  0.00    +0.000 C 
ATOM     28  C   UNL     1       7.286   5.708  19.057  0.00  0.00    +0.000 C 
ATOM     29  O   UNL     1       7.658   6.476  17.908  0.00  0.00    +0.000 OA
ATOM     30  C   UNL     1       6.516   7.149  17.361  0.00  0.00    +0.000 C 
ATOM     31  C   UNL     1       5.445   6.134  16.938  0.00  0.00    +0.000 C 
ENDBRANCH  18  26
ENDBRANCH  17  18
ENDBRANCH   3  17
TORSDOF 5
ENDMDL
MODEL 3
REMARK VINA RESULT:      -8.5      1.164      1.530
REMARK  Name = 
REMARK  5 active torsions:
REMARK  status: ('A' for Active; 'I' for Inactive)
REMARK    1  A    between atoms: C_2  and  C_19
REMARK    2  A    between atoms: N_3  and  C_4
REMARK    3  A    between atoms: C_4  and  C_5
REMARK    4  A    between atoms: C_5  and  C_6
REMARK    5  A    between atoms: C_5  and  N_13
REMARK                            x       y       z     vdW  Elec       q    Type
REMARK                         _______ _______ _______ _____ _____    ______ ____
ROOT
ATOM      1  O   UNL     1       1.841   9.209  17.485  0.00  0.00    +0.000 OA
ATOM      2  C   UNL     1       1.859   8.693  18.590  0.00  0.00    +0.000 C 
ATOM      3  N   UNL     1       2.518   7.518  18.878  0.00  0.00    +0.000 N 
ATOM      4  H   UNL     1       2.302   7.038  19.738  0.00  0.00    +0.000 HD
ENDROOT
BRANCH   2   5
ATOM      5  C   UNL     1       1.093   9.294  19.716  0.00  0.00    +0.000 A 
ATOM      6  C   UNL     1       1.152   8.747  21.026  0.00  0.00    +0.000 A 
ATOM      7  C   UNL     1       0.408   9.305  22.076  0.00  0.00    +0.000 A 
ATOM      8  C   UNL     1      -0.370  10.395  21.767  0.00  0.00    +0.000 A 
ATOM      9  N   UNL     1      -1.214  11.140  22.583  0.00  0.00    +0.000 N 
ATOM     10  C   UNL     1      -1.799  12.158  21.811  0.00  0.00    +0.000 A 
ATOM     11  O   UNL     1      -2.592  12.993  22.197  0.00  0.00    +0.000 OA
ATOM     12  N   UNL     1      -1.288  12.022  20.511  0.00  0.00    +0.000 N 
ATOM     13  C   UNL     1      -0.416  10.940  20.488  0.00  0.00    +0.000 A 
ATOM     14  C   UNL     1       0.306  10.423  19.439  0.00  0.00    +0.000 A 
ATOM     15  H   UNL     1      -1.405  11.005  23.560  0.00  0.00    +0.000 HD
ATOM     16  H   UNL     1      -1.539  12.624  19.748  0.00  0.00    +0.000 HD
ENDBRANCH   2   5
BRANCH   3  17
ATOM     17  C   UNL     1       3.194   6.767  17.821  0.00  0.00    +0.000 C 
BRANCH  17  18
ATOM     18  C   UNL     1       4.011   5.560  18.369  0.00  0.00    +0.000 C 
BRANCH  18  19
ATOM     19  C   UNL     1       3.128   4.318  18.521  0.00  0.00    +0.000 A 
ATOM     20  C   UNL     1       3.004   3.405  17.457  0.00  0.00    +0.000 A 
ATOM     21  C   UNL     1       2.371   2.171  17.621  0.00  0.00    +0.000 A 
ATOM     22  C   UNL     1       1.769   1.857  18.832  0.00  0.00    +0.000 A 
ATOM     23  C   UNL     1       1.758   2.799  19.857  0.00  0.00    +0.000 A 
ATOM     24  C   UNL     1       2.426   4.021  19.705  0.00  0.00    +0.000 A 
ATOM     25 CL   UNL     1       2.295   5.141  21.016  0.00  0.00    +0.000 Cl
ENDBRANCH  18  19
BRANCH  18  26
ATOM     26  N   UNL     1       5.298   5.358  17.664  0.00  0.00    +0.000 NA
ATOM     27  C   UNL     1       6.442   4.765  18.367  0.00  0.00    +0.000 C 
ATOM     28  C   UNL     1       7.463   5.762  18.958  0.00  0.00    +0.000 C 
ATOM     29  O   UNL     1       7.839   6.779  18.024  0.00  0.00    +0.000 OA
ATOM     30  C   UNL     1       6.680   7.460  17.526  0.00  0.00    +0.000 C 
ATOM     31  C   UNL     1       5.743   6.474  16.815  0.00  0.00    +0.000 C 
ENDBRANCH  18  26
ENDBRANCH  17  18
ENDBRANCH   3  17
TORSDOF 5
ENDMDL
MODEL 4
REMARK VINA RESULT:      -8.2      1.838      3.432
REMARK  Name = 
REMARK  5 active torsions:
REMARK  status: ('A' for Active; 'I' for Inactive)
REMARK    1  A    between atoms: C_2  and  C_19
REMARK    2  A    between atoms: N_3  and  C_4
REMARK    3  A    between atoms: C_4  and  C_5
REMARK    4  A    between atoms: C_5  and  C_6
REMARK    5  A    between atoms: C_5  and  N_13
REMARK                            x       y       z     vdW  Elec       q    Type
REMARK                         _______ _______ _______ _____ _____    ______ ____
ROOT
ATOM      1  O   UNL     1       1.639   9.420  17.629  0.00  0.00    +0.000 OA
ATOM      2  C   UNL     1       1.819   8.777  18.650  0.00  0.00    +0.000 C 
ATOM      3  N   UNL     1       2.620   7.659  18.722  0.00  0.00    +0.000 N 
ATOM      4  H   UNL     1       2.541   7.054  19.525  0.00  0.00    +0.000 HD
ENDROOT
BRANCH   2   5
ATOM      5  C   UNL     1       1.109   9.143  19.907  0.00  0.00    +0.000 A 
ATOM      6  C   UNL     1       1.083   8.265  21.024  0.00  0.00    +0.000 A 
ATOM      7  C   UNL     1       0.392   8.607  22.195  0.00  0.00    +0.000 A 
ATOM      8  C   UNL     1      -0.250   9.822  22.198  0.00  0.00    +0.000 A 
ATOM      9  N   UNL     1      -1.015  10.417  23.195  0.00  0.00    +0.000 N 
ATOM     10  C   UNL     1      -1.466  11.663  22.730  0.00  0.00    +0.000 A 
ATOM     11  O   UNL     1      -2.163  12.453  23.336  0.00  0.00    +0.000 OA
ATOM     12  N   UNL     1      -0.953  11.819  21.433  0.00  0.00    +0.000 N 
ATOM     13  C   UNL     1      -0.212  10.688  21.110  0.00  0.00    +0.000 A 
ATOM     14  C   UNL     1       0.462  10.388  19.951  0.00  0.00    +0.000 A 
ATOM     15  H   UNL     1      -1.236  10.051  24.104  0.00  0.00    +0.000 HD
ATOM     16  H   UNL     1      -1.120  12.626  20.861  0.00  0.00    +0.000 HD
ENDBRANCH   2   5
BRANCH   3  17
ATOM     17  C   UNL     1       3.263   7.127  17.520  0.00  0.00    +0.000 C 
BRANCH  17  18
ATOM     18  C   UNL     1       3.631   5.620  17.653  0.00  0.00    +0.000 C 
BRANCH  18  19
ATOM     19  C   UNL     1       5.146   5.427  17.758  0.00  0.00    +0.000 A 
ATOM     20  C   UNL     1       5.846   5.923  18.874  0.00  0.00    +0.000 A 
ATOM     21  C   UNL     1       7.186   5.602  19.100  0.00  0.00    +0.000 A 
ATOM     22  C   UNL     1       7.884   4.846  18.168  0.00  0.00    +0.000 A 
ATOM     23  C   UNL     1       7.253   4.459  16.989  0.00  0.00    +0.000 A 
ATOM     24  C   UNL     1       5.899   4.748  16.780  0.00  0.00    +0.000 A 
ATOM     25 CL   UNL     1       5.234   4.276  15.255  0.00  0.00    +0.000 Cl
ENDBRANCH  18  19
BRANCH  18  26
ATOM     26  N   UNL     1       2.815   4.906  18.664  0.00  0.00    +0.000 NA
ATOM     27  C   UNL     1       3.463   4.225  19.791  0.00  0.00    +0.000 C 
ATOM     28  C   UNL     1       3.711   2.711  19.613  0.00  0.00    +0.000 C 
ATOM     29  O   UNL     1       2.558   2.020  19.122  0.00  0.00    +0.000 OA
ATOM     30  C   UNL     1       2.095   2.615  17.902  0.00  0.00    +0.000 C 
ATOM     31  C   UNL     1       1.716   4.085  18.132  0.00  0.00    +0.000 C 
ENDBRANCH  18  26
ENDBRANCH  17  18
ENDBRANCH   3  17
TORSDOF 5
ENDMDL
MODEL 5
REMARK VINA RESULT:      -8.2      1.159      1.765
REMARK  Name = 
REMARK  5 active torsions:
REMARK  status: ('A' for Active; 'I' for Inactive)
REMARK    1  A    between atoms: C_2  and  C_19
REMARK    2  A    between atoms: N_3  and  C_4
REMARK    3  A    between atoms: C_4  and  C_5
REMARK    4  A    between atoms: C_5  and  C_6
REMARK    5  A    between atoms: C_5  and  N_13
REMARK                            x       y       z     vdW  Elec       q    Type
REMARK                         _______ _______ _______ _____ _____    ______ ____
ROOT
ATOM      1  O   UNL     1       2.884   8.729  17.108  0.00  0.00    +0.000 OA
ATOM      2  C   UNL     1       2.188   8.273  18.000  0.00  0.00    +0.000 C 
ATOM      3  N   UNL     1       2.177   6.943  18.360  0.00  0.00    +0.000 N 
ATOM      4  H   UNL     1       1.422   6.602  18.937  0.00  0.00    +0.000 HD
ENDROOT
BRANCH   2   5
ATOM      5  C   UNL     1       1.235   9.148  18.736  0.00  0.00    +0.000 A 
ATOM      6  C   UNL     1       0.291   9.957  18.048  0.00  0.00    +0.000 A 
ATOM      7  C   UNL     1      -0.587  10.798  18.747  0.00  0.00    +0.000 A 
ATOM      8  C   UNL     1      -0.482  10.793  20.118  0.00  0.00    +0.000 A 
ATOM      9  N   UNL     1      -1.196  11.520  21.064  0.00  0.00    +0.000 N 
ATOM     10  C   UNL     1      -0.726  11.176  22.342  0.00  0.00    +0.000 A 
ATOM     11  O   UNL     1      -1.120  11.621  23.402  0.00  0.00    +0.000 OA
ATOM     12  N   UNL     1       0.283  10.218  22.156  0.00  0.00    +0.000 N 
ATOM     13  C   UNL     1       0.432   9.989  20.793  0.00  0.00    +0.000 A 
ATOM     14  C   UNL     1       1.300   9.149  20.139  0.00  0.00    +0.000 A 
ATOM     15  H   UNL     1      -1.927  12.190  20.903  0.00  0.00    +0.000 HD
ATOM     16  H   UNL     1       0.795   9.795  22.908  0.00  0.00    +0.000 HD
ENDBRANCH   2   5
BRANCH   3  17
ATOM     17  C   UNL     1       2.973   5.966  17.619  0.00  0.00    +0.000 C 
BRANCH  17  18
ATOM     18  C   UNL     1       3.901   5.123  18.542  0.00  0.00    +0.000 C 
BRANCH  18  19
ATOM     19  C   UNL     1       3.088   4.178  19.432  0.00  0.00    +0.000 A 
ATOM     20  C   UNL     1       3.015   4.404  20.820  0.00  0.00    +0.000 A 
ATOM     21  C   UNL     1       2.136   3.687  21.632  0.00  0.00    +0.000 A 
ATOM     22  C   UNL     1       1.369   2.664  21.090  0.00  0.00    +0.000 A 
ATOM     23  C   UNL     1       1.524   2.329  19.748  0.00  0.00    +0.000 A 
ATOM     24  C   UNL     1       2.378   3.074  18.924  0.00  0.00    +0.000 A 
ATOM     25 CL   UNL     1       2.542   2.532  17.291  0.00  0.00    +0.000 Cl
ENDBRANCH  18  19
BRANCH  18  26
ATOM     26  N   UNL     1       5.043   4.513  17.821  0.00  0.00    +0.000 NA
ATOM     27  C   UNL     1       6.413   4.695  18.315  0.00  0.00    +0.000 C 
ATOM     28  C   UNL     1       7.221   5.837  17.660  0.00  0.00    +0.000 C 
ATOM     29  O   UNL     1       7.132   5.823  16.232  0.00  0.00    +0.000 OA
ATOM     30  C   UNL     1       5.762   5.852  15.812  0.00  0.00    +0.000 C 
ATOM     31  C   UNL     1       5.008   4.630  16.355  0.00  0.00    +0.000 C 
ENDBRANCH  18  26
ENDBRANCH  17  18
ENDBRANCH   3  17
TORSDOF 5
ENDMDL
MODEL 6
REMARK VINA RESULT:      -8.2      0.984      1.543
REMARK  Name = 
REMARK  5 active torsions:
REMARK  status: ('A' for Active; 'I' for Inactive)
REMARK    1  A    between atoms: C_2  and  C_19
REMARK    2  A    between atoms: N_3  and  C_4
REMARK    3  A    between atoms: C_4  and  C_5
REMARK    4  A    between atoms: C_5  and  C_6
REMARK    5  A    between atoms: C_5  and  N_13
REMARK                            x       y       z     vdW  Elec       q    Type
REMARK                         _______ _______ _______ _____ _____    ______ ____
ROOT
ATOM      1  O   UNL     1       2.726   9.515  17.282  0.00  0.00    +0.000 OA
ATOM      2  C   UNL     1       2.031   8.949  18.110  0.00  0.00    +0.000 C 
ATOM      3  N   UNL     1       2.148   7.613  18.426  0.00  0.00    +0.000 N 
ATOM      4  H   UNL     1       1.402   7.168  18.939  0.00  0.00    +0.000 HD
ENDROOT
BRANCH   2   5
ATOM      5  C   UNL     1       0.939   9.683  18.806  0.00  0.00    +0.000 A 
ATOM      6  C   UNL     1      -0.208  10.143  18.104  0.00  0.00    +0.000 A 
ATOM      7  C   UNL     1      -1.220  10.855  18.762  0.00  0.00    +0.000 A 
ATOM      8  C   UNL     1      -1.040  11.080  20.107  0.00  0.00    +0.000 A 
ATOM      9  N   UNL     1      -1.854  11.757  21.008  0.00  0.00    +0.000 N 
ATOM     10  C   UNL     1      -1.244  11.724  22.273  0.00  0.00    +0.000 A 
ATOM     11  O   UNL     1      -1.673  12.220  23.296  0.00  0.00    +0.000 OA
ATOM     12  N   UNL     1      -0.048  11.006  22.126  0.00  0.00    +0.000 N 
ATOM     13  C   UNL     1       0.075  10.616  20.797  0.00  0.00    +0.000 A 
ATOM     14  C   UNL     1       1.081   9.909  20.184  0.00  0.00    +0.000 A 
ATOM     15  H   UNL     1      -2.731  12.210  20.826  0.00  0.00    +0.000 HD
ATOM     16  H   UNL     1       0.592  10.828  22.878  0.00  0.00    +0.000 HD
ENDBRANCH   2   5
BRANCH   3  17
ATOM     17  C   UNL     1       3.097   6.760  17.711  0.00  0.00    +0.000 C 
BRANCH  17  18
ATOM     18  C   UNL     1       3.849   5.776  18.653  0.00  0.00    +0.000 C 
BRANCH  18  19
ATOM     19  C   UNL     1       2.896   4.730  19.237  0.00  0.00    +0.000 A 
ATOM     20  C   UNL     1       2.554   4.770  20.602  0.00  0.00    +0.000 A 
ATOM     21  C   UNL     1       1.546   3.960  21.128  0.00  0.00    +0.000 A 
ATOM     22  C   UNL     1       0.914   3.026  20.318  0.00  0.00    +0.000 A 
ATOM     23  C   UNL     1       1.329   2.870  18.999  0.00  0.00    +0.000 A 
ATOM     24  C   UNL     1       2.314   3.709  18.461  0.00  0.00    +0.000 A 
ATOM     25 CL   UNL     1       2.798   3.388  16.832  0.00  0.00    +0.000 Cl
ENDBRANCH  18  19
BRANCH  18  26
ATOM     26  N   UNL     1       5.106   5.253  18.068  0.00  0.00    +0.000 NA
ATOM     27  C   UNL     1       6.169   4.737  18.938  0.00  0.00    +0.000 C 
ATOM     28  C   UNL     1       7.300   5.730  19.286  0.00  0.00    +0.000 C 
ATOM     29  O   UNL     1       7.797   6.421  18.136  0.00  0.00    +0.000 OA
ATOM     30  C   UNL     1       6.728   7.077  17.441  0.00  0.00    +0.000 C 
ATOM     31  C   UNL     1       5.682   6.053  16.976  0.00  0.00    +0.000 C 
ENDBRANCH  18  26
ENDBRANCH  17  18
ENDBRANCH   3  17
TORSDOF 5
ENDMDL
MODEL 7
REMARK VINA RESULT:      -8.2      1.429      1.680
REMARK  Name = 
REMARK  5 active torsions:
REMARK  status: ('A' for Active; 'I' for Inactive)
REMARK    1  A    between atoms: C_2  and  C_19
REMARK    2  A    between atoms: N_3  and  C_4
REMARK    3  A    between atoms: C_4  and  C_5
REMARK    4  A    between atoms: C_5  and  C_6
REMARK    5  A    between atoms: C_5  and  N_13
REMARK                            x       y       z     vdW  Elec       q    Type
REMARK                         _______ _______ _______ _____ _____    ______ ____
ROOT
ATOM      1  O   UNL     1       2.179   8.733  17.378  0.00  0.00    +0.000 OA
ATOM      2  C   UNL     1       2.220   8.277  18.509  0.00  0.00    +0.000 C 
ATOM      3  N   UNL     1       2.935   7.153  18.858  0.00  0.00    +0.000 N 
ATOM      4  H   UNL     1       2.740   6.709  19.743  0.00  0.00    +0.000 HD
ENDROOT
BRANCH   2   5
ATOM      5  C   UNL     1       1.422   8.899  19.602  0.00  0.00    +0.000 A 
ATOM      6  C   UNL     1       1.379   8.329  20.902  0.00  0.00    +0.000 A 
ATOM      7  C   UNL     1       0.605   8.906  21.919  0.00  0.00    +0.000 A 
ATOM      8  C   UNL     1      -0.099  10.040  21.588  0.00  0.00    +0.000 A 
ATOM      9  N   UNL     1      -0.949  10.814  22.369  0.00  0.00    +0.000 N 
ATOM     10  C   UNL     1      -1.438  11.872  21.586  0.00  0.00    +0.000 A 
ATOM     11  O   UNL     1      -2.209  12.741  21.943  0.00  0.00    +0.000 OA
ATOM     12  N   UNL     1      -0.861  11.732  20.314  0.00  0.00    +0.000 N 
ATOM     13  C   UNL     1      -0.044  10.607  20.319  0.00  0.00    +0.000 A 
ATOM     14  C   UNL     1       0.709  10.071  19.303  0.00  0.00    +0.000 A 
ATOM     15  H   UNL     1      -1.202  10.673  23.331  0.00  0.00    +0.000 HD
ATOM     16  H   UNL     1      -1.038  12.357  19.550  0.00  0.00    +0.000 HD
ENDBRANCH   2   5
BRANCH   3  17
ATOM     17  C   UNL     1       3.650   6.381  17.842  0.00  0.00    +0.000 C 
BRANCH  17  18
ATOM     18  C   UNL     1       4.160   5.011  18.377  0.00  0.00    +0.000 C 
BRANCH  18  19
ATOM     19  C   UNL     1       2.997   4.049  18.634  0.00  0.00    +0.000 A 
ATOM     20  C   UNL     1       1.708   4.356  18.158  0.00  0.00    +0.000 A 
ATOM     21  C   UNL     1       0.670   3.423  18.202  0.00  0.00    +0.000 A 
ATOM     22  C   UNL     1       0.873   2.189  18.804  0.00  0.00    +0.000 A 
ATOM     23  C   UNL     1       2.098   1.912  19.405  0.00  0.00    +0.000 A 
ATOM     24  C   UNL     1       3.151   2.833  19.327  0.00  0.00    +0.000 A 
ATOM     25 CL   UNL     1       4.606   2.415  20.162  0.00  0.00    +0.000 Cl
ENDBRANCH  18  19
BRANCH  18  26
ATOM     26  N   UNL     1       5.292   4.464  17.594  0.00  0.00    +0.000 NA
ATOM     27  C   UNL     1       6.662   4.925  17.851  0.00  0.00    +0.000 C 
ATOM     28  C   UNL     1       7.182   6.048  16.928  0.00  0.00    +0.000 C 
ATOM     29  O   UNL     1       6.925   5.784  15.545  0.00  0.00    +0.000 OA
ATOM     30  C   UNL     1       5.529   5.542  15.329  0.00  0.00    +0.000 C 
ATOM     31  C   UNL     1       5.062   4.330  16.147  0.00  0.00    +0.000 C 
ENDBRANCH  18  26
ENDBRANCH  17  18
ENDBRANCH   3  17
TORSDOF 5
ENDMDL
MODEL 8
REMARK VINA RESULT:      -8.2      1.479      1.745
REMARK  Name = 
REMARK  5 active torsions:
REMARK  status: ('A' for Active; 'I' for Inactive)
REMARK    1  A    between atoms: C_2  and  C_19
REMARK    2  A    between atoms: N_3  and  C_4
REMARK    3  A    between atoms: C_4  and  C_5
REMARK    4  A    between atoms: C_5  and  C_6
REMARK    5  A    between atoms: C_5  and  N_13
REMARK                            x       y       z     vdW  Elec       q    Type
REMARK                         _______ _______ _______ _____ _____    ______ ____
ROOT
ATOM      1  O   UNL     1       1.357   9.768  17.686  0.00  0.00    +0.000 OA
ATOM      2  C   UNL     1       1.541   9.089  18.683  0.00  0.00    +0.000 C 
ATOM      3  N   UNL     1       2.291   7.934  18.697  0.00  0.00    +0.000 N 
ATOM      4  H   UNL     1       2.211   7.312  19.486  0.00  0.00    +0.000 HD
ENDROOT
BRANCH   2   5
ATOM      5  C   UNL     1       0.893   9.452  19.973  0.00  0.00    +0.000 A 
ATOM      6  C   UNL     1       1.138   8.708  21.159  0.00  0.00    +0.000 A 
ATOM      7  C   UNL     1       0.504   9.040  22.365  0.00  0.00    +0.000 A 
ATOM      8  C   UNL     1      -0.356  10.112  22.333  0.00  0.00    +0.000 A 
ATOM      9  N   UNL     1      -1.126  10.660  23.352  0.00  0.00    +0.000 N 
ATOM     10  C   UNL     1      -1.849  11.747  22.832  0.00  0.00    +0.000 A 
ATOM     11  O   UNL     1      -2.626  12.456  23.440  0.00  0.00    +0.000 OA
ATOM     12  N   UNL     1      -1.496  11.855  21.478  0.00  0.00    +0.000 N 
ATOM     13  C   UNL     1      -0.585  10.850  21.175  0.00  0.00    +0.000 A 
ATOM     14  C   UNL     1       0.025  10.555  19.980  0.00  0.00    +0.000 A 
ATOM     15  H   UNL     1      -1.189  10.359  24.308  0.00  0.00    +0.000 HD
ATOM     16  H   UNL     1      -1.867  12.552  20.859  0.00  0.00    +0.000 HD
ENDBRANCH   2   5
BRANCH   3  17
ATOM     17  C   UNL     1       2.867   7.407  17.460  0.00  0.00    +0.000 C 
BRANCH  17  18
ATOM     18  C   UNL     1       4.032   6.407  17.717  0.00  0.00    +0.000 C 
BRANCH  18  19
ATOM     19  C   UNL     1       3.500   5.025  18.107  0.00  0.00    +0.000 A 
ATOM     20  C   UNL     1       2.244   4.595  17.639  0.00  0.00    +0.000 A 
ATOM     21  C   UNL     1       1.812   3.278  17.809  0.00  0.00    +0.000 A 
ATOM     22  C   UNL     1       2.589   2.381  18.529  0.00  0.00    +0.000 A 
ATOM     23  C   UNL     1       3.771   2.819  19.120  0.00  0.00    +0.000 A 
ATOM     24  C   UNL     1       4.224   4.129  18.917  0.00  0.00    +0.000 A 
ATOM     25 CL   UNL     1       5.670   4.584  19.747  0.00  0.00    +0.000 Cl
ENDBRANCH  18  19
BRANCH  18  26
ATOM     26  N   UNL     1       5.065   6.429  16.656  0.00  0.00    +0.000 NA
ATOM     27  C   UNL     1       5.264   5.259  15.792  0.00  0.00    +0.000 C 
ATOM     28  C   UNL     1       6.392   4.292  16.213  0.00  0.00    +0.000 C 
ATOM     29  O   UNL     1       7.610   4.973  16.530  0.00  0.00    +0.000 OA
ATOM     30  C   UNL     1       7.382   5.971  17.534  0.00  0.00    +0.000 C 
ATOM     31  C   UNL     1       6.363   7.007  17.040  0.00  0.00    +0.000 C 
ENDBRANCH  18  26
ENDBRANCH  17  18
ENDBRANCH   3  17
TORSDOF 5
ENDMDL
MODEL 9
REMARK VINA RESULT:      -8.1      2.631      4.554
REMARK  Name = 
REMARK  5 active torsions:
REMARK  status: ('A' for Active; 'I' for Inactive)
REMARK    1  A    between atoms: C_2  and  C_19
REMARK    2  A    between atoms: N_3  and  C_4
REMARK    3  A    between atoms: C_4  and  C_5
REMARK    4  A    between atoms: C_5  and  C_6
REMARK    5  A    between atoms: C_5  and  N_13
REMARK                            x       y       z     vdW  Elec       q    Type
REMARK                         _______ _______ _______ _____ _____    ______ ____
ROOT
ATOM      1  O   UNL     1       3.489   7.570  17.849  0.00  0.00    +0.000 OA
ATOM      2  C   UNL     1       2.825   7.452  18.866  0.00  0.00    +0.000 C 
ATOM      3  N   UNL     1       3.006   6.443  19.788  0.00  0.00    +0.000 N 
ATOM      4  H   UNL     1       2.284   6.276  20.472  0.00  0.00    +0.000 HD
ENDROOT
BRANCH   2   5
ATOM      5  C   UNL     1       1.705   8.390  19.149  0.00  0.00    +0.000 A 
ATOM      6  C   UNL     1       1.259   8.631  20.476  0.00  0.00    +0.000 A 
ATOM      7  C   UNL     1       0.186   9.498  20.732  0.00  0.00    +0.000 A 
ATOM      8  C   UNL     1      -0.401  10.090  19.639  0.00  0.00    +0.000 A 
ATOM      9  N   UNL     1      -1.475  10.970  19.579  0.00  0.00    +0.000 N 
ATOM     10  C   UNL     1      -1.711  11.298  18.233  0.00  0.00    +0.000 A 
ATOM     11  O   UNL     1      -2.575  12.039  17.809  0.00  0.00    +0.000 OA
ATOM     12  N   UNL     1      -0.752  10.606  17.476  0.00  0.00    +0.000 N 
ATOM     13  C   UNL     1       0.046   9.865  18.340  0.00  0.00    +0.000 A 
ATOM     14  C   UNL     1       1.098   9.029  18.056  0.00  0.00    +0.000 A 
ATOM     15  H   UNL     1      -2.020  11.330  20.341  0.00  0.00    +0.000 HD
ATOM     16  H   UNL     1      -0.688  10.658  16.476  0.00  0.00    +0.000 HD
ENDBRANCH   2   5
BRANCH   3  17
ATOM     17  C   UNL     1       3.988   5.387  19.550  0.00  0.00    +0.000 C 
BRANCH  17  18
ATOM     18  C   UNL     1       3.670   4.545  18.280  0.00  0.00    +0.000 C 
BRANCH  18  19
ATOM     19  C   UNL     1       4.887   4.456  17.355  0.00  0.00    +0.000 A 
ATOM     20  C   UNL     1       4.742   3.973  16.041  0.00  0.00    +0.000 A 
ATOM     21  C   UNL     1       5.779   4.058  15.110  0.00  0.00    +0.000 A 
ATOM     22  C   UNL     1       7.019   4.549  15.498  0.00  0.00    +0.000 A 
ATOM     23  C   UNL     1       7.230   4.905  16.827  0.00  0.00    +0.000 A 
ATOM     24  C   UNL     1       6.178   4.856  17.751  0.00  0.00    +0.000 A 
ATOM     25 CL   UNL     1       6.567   5.259  19.387  0.00  0.00    +0.000 Cl
ENDBRANCH  18  19
BRANCH  18  26
ATOM     26  N   UNL     1       2.992   3.263  18.584  0.00  0.00    +0.000 NA
ATOM     27  C   UNL     1       1.527   3.182  18.583  0.00  0.00    +0.000 C 
ATOM     28  C   UNL     1       0.842   3.327  19.960  0.00  0.00    +0.000 C 
ATOM     29  O   UNL     1       1.452   2.511  20.965  0.00  0.00    +0.000 OA
ATOM     30  C   UNL     1       2.856   2.788  21.054  0.00  0.00    +0.000 C 
ATOM     31  C   UNL     1       3.546   2.500  19.714  0.00  0.00    +0.000 C 
ENDBRANCH  18  26
ENDBRANCH  17  18
ENDBRANCH   3  17
TORSDOF 5
ENDMDL
