MODEL 1
REMARK VINA RESULT:      -8.8      0.000      0.000
REMARK  Name = 
REMARK  5 active torsions:
REMARK  status: ('A' for Active; 'I' for Inactive)
REMARK    1  A    between atoms: C_1  and  N_2
REMARK    2  A    between atoms: C_6  and  C_7
REMARK    3  A    between atoms: C_7  and  C_8
REMARK    4  A    between atoms: C_12  and  N_13
REMARK    5  A    between atoms: C_16  and  C_17
REMARK                            x       y       z     vdW  Elec       q    Type
REMARK                         _______ _______ _______ _____ _____    ______ ____
ROOT
ATOM      1  N   UNL     1       2.044   7.789  19.156  0.00  0.00    +0.000 N 
ATOM      2  C   UNL     1       1.422   7.932  20.474  0.00  0.00    +0.000 C 
ATOM      3  C   UNL     1       0.800   9.307  20.452  0.00  0.00    +0.000 C 
ATOM      4  C   UNL     1       0.099   9.993  21.372  0.00  0.00    +0.000 C 
ATOM      5  C   UNL     1      -0.481  11.357  21.045  0.00  0.00    +0.000 C 
ATOM      6  C   UNL     1      -0.275  11.880  19.603  0.00  0.00    +0.000 C 
ATOM      7  C   UNL     1       0.586  11.028  18.726  0.00  0.00    +0.000 C 
ATOM      8  C   UNL     1       1.066   9.857  19.155  0.00  0.00    +0.000 C 
ATOM      9  C   UNL     1       1.876   8.927  18.350  0.00  0.00    +0.000 C 
ATOM     10  O   UNL     1       2.210   9.161  17.202  0.00  0.00    +0.000 OA
ENDROOT
BRANCH   1  15
ATOM     11  C   UNL     1       4.394   5.168  17.830  0.00  0.00    +0.000 A 
ATOM     12  C   UNL     1       3.622   4.017  18.042  0.00  0.00    +0.000 A 
ATOM     13  C   UNL     1       2.311   4.128  18.478  0.00  0.00    +0.000 A 
ATOM     14  C   UNL     1       1.781   5.384  18.761  0.00  0.00    +0.000 A 
ATOM     15  C   UNL     1       2.546   6.554  18.646  0.00  0.00    +0.000 A 
ATOM     16  C   UNL     1       3.834   6.437  18.102  0.00  0.00    +0.000 A 
BRANCH  11  17
ATOM     17  C   UNL     1       5.794   5.013  17.276  0.00  0.00    +0.000 C 
BRANCH  17  23
ATOM     18  C   UNL     1       7.725   5.552  19.718  0.00  0.00    +0.000 C 
ATOM     19  N   UNL     1       7.541   6.378  18.555  0.00  0.00    +0.000 N 
ATOM     20  C   UNL     1       8.203   7.540  18.302  0.00  0.00    +0.000 A 
ATOM     21  N   UNL     1       7.807   8.031  17.152  0.00  0.00    +0.000 NA
ATOM     22  N   UNL     1       6.862   7.178  16.641  0.00  0.00    +0.000 NA
ATOM     23  C   UNL     1       6.698   6.179  17.489  0.00  0.00    +0.000 A 
ENDBRANCH  17  23
ENDBRANCH  11  17
ENDBRANCH   1  15
BRANCH   4  24
ATOM     24  C   UNL     1      -0.155   9.484  22.754  0.00  0.00    +0.000 C 
ATOM     25  F   UNL     1      -0.843  10.366  23.519  0.00  0.00    +0.000 F 
ATOM     26  F   UNL     1      -0.868   8.332  22.734  0.00  0.00    +0.000 F 
ATOM     27  F   UNL     1       1.007   9.221  23.403  0.00  0.00    +0.000 F 
ENDBRANCH   4  24
TORSDOF 4
ENDMDL
MODEL 2
REMARK VINA RESULT:      -8.7      2.416      3.786
REMARK  Name = 
REMARK  5 active torsions:
REMARK  status: ('A' for Active; 'I' for Inactive)
REMARK    1  A    between atoms: C_1  and  N_2
REMARK    2  A    between atoms: C_6  and  C_7
REMARK    3  A    between atoms: C_7  and  C_8
REMARK    4  A    between atoms: C_12  and  N_13
REMARK    5  A    between atoms: C_16  and  C_17
REMARK                            x       y       z     vdW  Elec       q    Type
REMARK                         _______ _______ _______ _____ _____    ______ ____
ROOT
ATOM      1  N   UNL     1       2.036   8.367  19.124  0.00  0.00    +0.000 N 
ATOM      2  C   UNL     1       1.398   8.383  20.442  0.00  0.00    +0.000 C 
ATOM      3  C   UNL     1       0.595   9.661  20.459  0.00  0.00    +0.000 C 
ATOM      4  C   UNL     1      -0.195  10.216  21.395  0.00  0.00    +0.000 C 
ATOM      5  C   UNL     1      -0.955  11.498  21.107  0.00  0.00    +0.000 C 
ATOM      6  C   UNL     1      -0.819  12.089  19.682  0.00  0.00    +0.000 C 
ATOM      7  C   UNL     1       0.151  11.390  18.786  0.00  0.00    +0.000 C 
ATOM      8  C   UNL     1       0.786  10.282  19.181  0.00  0.00    +0.000 C 
ATOM      9  C   UNL     1       1.716   9.496  18.353  0.00  0.00    +0.000 C 
ATOM     10  O   UNL     1       2.017   9.810  17.214  0.00  0.00    +0.000 OA
ENDROOT
BRANCH   1  15
ATOM     11  C   UNL     1       2.766   4.838  18.049  0.00  0.00    +0.000 A 
ATOM     12  C   UNL     1       3.815   5.068  17.147  0.00  0.00    +0.000 A 
ATOM     13  C   UNL     1       4.351   6.339  17.012  0.00  0.00    +0.000 A 
ATOM     14  C   UNL     1       3.807   7.399  17.733  0.00  0.00    +0.000 A 
ATOM     15  C   UNL     1       2.702   7.228  18.580  0.00  0.00    +0.000 A 
ATOM     16  C   UNL     1       2.239   5.920  18.790  0.00  0.00    +0.000 A 
BRANCH  11  17
ATOM     17  C   UNL     1       2.260   3.423  18.230  0.00  0.00    +0.000 C 
BRANCH  17  23
ATOM     18  C   UNL     1       4.485   2.295  20.168  0.00  0.00    +0.000 C 
ATOM     19  N   UNL     1       3.094   2.506  20.468  0.00  0.00    +0.000 N 
ATOM     20  C   UNL     1       2.504   2.271  21.672  0.00  0.00    +0.000 A 
ATOM     21  N   UNL     1       1.231   2.580  21.607  0.00  0.00    +0.000 NA
ATOM     22  N   UNL     1       0.978   3.022  20.333  0.00  0.00    +0.000 NA
ATOM     23  C   UNL     1       2.102   2.976  19.643  0.00  0.00    +0.000 A 
ENDBRANCH  17  23
ENDBRANCH  11  17
ENDBRANCH   1  15
BRANCH   4  24
ATOM     24  C   UNL     1      -0.380   9.635  22.759  0.00  0.00    +0.000 C 
ATOM     25  F   UNL     1       0.790   9.478  23.425  0.00  0.00    +0.000 F 
ATOM     26  F   UNL     1      -1.174  10.419  23.528  0.00  0.00    +0.000 F 
ATOM     27  F   UNL     1      -0.966   8.413  22.698  0.00  0.00    +0.000 F 
ENDBRANCH   4  24
TORSDOF 4
ENDMDL
MODEL 3
REMARK VINA RESULT:      -8.6      1.151      1.574
REMARK  Name = 
REMARK  5 active torsions:
REMARK  status: ('A' for Active; 'I' for Inactive)
REMARK    1  A    between atoms: C_1  and  N_2
REMARK    2  A    between atoms: C_6  and  C_7
REMARK    3  A    between atoms: C_7  and  C_8
REMARK    4  A    between atoms: C_12  and  N_13
REMARK    5  A    between atoms: C_16  and  C_17
REMARK                            x       y       z     vdW  Elec       q    Type
REMARK                         _______ _______ _______ _____ _____    ______ ____
ROOT
ATOM      1  N   UNL     1       1.951   7.290  20.015  0.00  0.00    +0.000 N 
ATOM      2  C   UNL     1       1.233   7.765  21.199  0.00  0.00    +0.000 C 
ATOM      3  C   UNL     1       0.749   9.144  20.822  0.00  0.00    +0.000 C 
ATOM      4  C   UNL     1       0.040  10.066  21.497  0.00  0.00    +0.000 C 
ATOM      5  C   UNL     1      -0.377  11.365  20.830  0.00  0.00    +0.000 C 
ATOM      6  C   UNL     1       0.004  11.541  19.339  0.00  0.00    +0.000 C 
ATOM      7  C   UNL     1       0.851  10.455  18.759  0.00  0.00    +0.000 C 
ATOM      8  C   UNL     1       1.179   9.375  19.474  0.00  0.00    +0.000 C 
ATOM      9  C   UNL     1       1.963   8.233  18.974  0.00  0.00    +0.000 C 
ATOM     10  O   UNL     1       2.417   8.184  17.844  0.00  0.00    +0.000 OA
ENDROOT
BRANCH   1  15
ATOM     11  C   UNL     1       4.073   4.298  19.184  0.00  0.00    +0.000 A 
ATOM     12  C   UNL     1       3.366   3.299  19.868  0.00  0.00    +0.000 A 
ATOM     13  C   UNL     1       2.150   3.590  20.465  0.00  0.00    +0.000 A 
ATOM     14  C   UNL     1       1.658   4.893  20.433  0.00  0.00    +0.000 A 
ATOM     15  C   UNL     1       2.374   5.940  19.834  0.00  0.00    +0.000 A 
ATOM     16  C   UNL     1       3.550   5.611  19.141  0.00  0.00    +0.000 A 
BRANCH  11  17
ATOM     17  C   UNL     1       5.358   3.926  18.475  0.00  0.00    +0.000 C 
BRANCH  17  23
ATOM     18  C   UNL     1       5.740   5.907  16.045  0.00  0.00    +0.000 C 
ATOM     19  N   UNL     1       6.485   5.884  17.274  0.00  0.00    +0.000 N 
ATOM     20  C   UNL     1       7.482   6.748  17.607  0.00  0.00    +0.000 A 
ATOM     21  N   UNL     1       7.939   6.455  18.800  0.00  0.00    +0.000 NA
ATOM     22  N   UNL     1       7.232   5.373  19.261  0.00  0.00    +0.000 NA
ATOM     23  C   UNL     1       6.354   5.026  18.338  0.00  0.00    +0.000 A 
ENDBRANCH  17  23
ENDBRANCH  11  17
ENDBRANCH   1  15
BRANCH   4  24
ATOM     24  C   UNL     1      -0.381   9.894  22.920  0.00  0.00    +0.000 C 
ATOM     25  F   UNL     1      -1.019  10.983  23.414  0.00  0.00    +0.000 F 
ATOM     26  F   UNL     1      -1.221   8.840  23.064  0.00  0.00    +0.000 F 
ATOM     27  F   UNL     1       0.687   9.664  23.725  0.00  0.00    +0.000 F 
ENDBRANCH   4  24
TORSDOF 4
ENDMDL
MODEL 4
REMARK VINA RESULT:      -8.6      0.724      1.462
REMARK  Name = 
REMARK  5 active torsions:
REMARK  status: ('A' for Active; 'I' for Inactive)
REMARK    1  A    between atoms: C_1  and  N_2
REMARK    2  A    between atoms: C_6  and  C_7
REMARK    3  A    between atoms: C_7  and  C_8
REMARK    4  A    between atoms: C_12  and  N_13
REMARK    5  A    between atoms: C_16  and  C_17
REMARK                            x       y       z     vdW  Elec       q    Type
REMARK                         _______ _______ _______ _____ _____    ______ ____
ROOT
ATOM      1  N   UNL     1       1.965   8.150  18.972  0.00  0.00    +0.000 N 
ATOM      2  C   UNL     1       1.332   8.173  20.292  0.00  0.00    +0.000 C 
ATOM      3  C   UNL     1       0.759   9.563  20.415  0.00  0.00    +0.000 C 
ATOM      4  C   UNL     1       0.071  10.171  21.397  0.00  0.00    +0.000 C 
ATOM      5  C   UNL     1      -0.457  11.583  21.215  0.00  0.00    +0.000 C 
ATOM      6  C   UNL     1      -0.213  12.251  19.840  0.00  0.00    +0.000 C 
ATOM      7  C   UNL     1       0.628  11.468  18.884  0.00  0.00    +0.000 C 
ATOM      8  C   UNL     1       1.061  10.241  19.187  0.00  0.00    +0.000 C 
ATOM      9  C   UNL     1       1.848   9.374  18.294  0.00  0.00    +0.000 C 
ATOM     10  O   UNL     1       2.205   9.719  17.180  0.00  0.00    +0.000 OA
ENDROOT
BRANCH   1  15
ATOM     11  C   UNL     1       4.242   5.590  17.422  0.00  0.00    +0.000 A 
ATOM     12  C   UNL     1       3.411   4.462  17.469  0.00  0.00    +0.000 A 
ATOM     13  C   UNL     1       2.091   4.586  17.872  0.00  0.00    +0.000 A 
ATOM     14  C   UNL     1       1.608   5.824  18.286  0.00  0.00    +0.000 A 
ATOM     15  C   UNL     1       2.429   6.960  18.336  0.00  0.00    +0.000 A 
ATOM     16  C   UNL     1       3.731   6.845  17.824  0.00  0.00    +0.000 A 
BRANCH  11  17
ATOM     17  C   UNL     1       5.655   5.432  16.899  0.00  0.00    +0.000 C 
BRANCH  17  23
ATOM     18  C   UNL     1       7.520   7.926  17.428  0.00  0.00    +0.000 C 
ATOM     19  N   UNL     1       7.517   6.675  18.138  0.00  0.00    +0.000 N 
ATOM     20  C   UNL     1       8.320   6.366  19.193  0.00  0.00    +0.000 A 
ATOM     21  N   UNL     1       8.051   5.152  19.610  0.00  0.00    +0.000 NA
ATOM     22  N   UNL     1       7.055   4.651  18.811  0.00  0.00    +0.000 NA
ATOM     23  C   UNL     1       6.733   5.569  17.919  0.00  0.00    +0.000 A 
ENDBRANCH  17  23
ENDBRANCH  11  17
ENDBRANCH   1  15
BRANCH   4  24
ATOM     24  C   UNL     1      -0.219   9.526  22.713  0.00  0.00    +0.000 C 
ATOM     25  F   UNL     1       0.904   9.257  23.424  0.00  0.00    +0.000 F 
ATOM     26  F   UNL     1      -1.003  10.313  23.489  0.00  0.00    +0.000 F 
ATOM     27  F   UNL     1      -0.874   8.349  22.550  0.00  0.00    +0.000 F 
ENDBRANCH   4  24
TORSDOF 4
ENDMDL
MODEL 5
REMARK VINA RESULT:      -8.6      1.368      1.915
REMARK  Name = 
REMARK  5 active torsions:
REMARK  status: ('A' for Active; 'I' for Inactive)
REMARK    1  A    between atoms: C_1  and  N_2
REMARK    2  A    between atoms: C_6  and  C_7
REMARK    3  A    between atoms: C_7  and  C_8
REMARK    4  A    between atoms: C_12  and  N_13
REMARK    5  A    between atoms: C_16  and  C_17
REMARK                            x       y       z     vdW  Elec       q    Type
REMARK                         _______ _______ _______ _____ _____    ______ ____
ROOT
ATOM      1  N   UNL     1       2.071   7.420  19.720  0.00  0.00    +0.000 N 
ATOM      2  C   UNL     1       1.367   7.800  20.947  0.00  0.00    +0.000 C 
ATOM      3  C   UNL     1       0.780   9.156  20.644  0.00  0.00    +0.000 C 
ATOM      4  C   UNL     1       0.036  10.001  21.379  0.00  0.00    +0.000 C 
ATOM      5  C   UNL     1      -0.490  11.293  20.781  0.00  0.00    +0.000 C 
ATOM      6  C   UNL     1      -0.176  11.553  19.287  0.00  0.00    +0.000 C 
ATOM      7  C   UNL     1       0.720  10.551  18.634  0.00  0.00    +0.000 C 
ATOM      8  C   UNL     1       1.144   9.468  19.292  0.00  0.00    +0.000 C 
ATOM      9  C   UNL     1       1.983   8.402  18.719  0.00  0.00    +0.000 C 
ATOM     10  O   UNL     1       2.398   8.427  17.574  0.00  0.00    +0.000 OA
ENDROOT
BRANCH   1  15
ATOM     11  C   UNL     1       4.440   4.584  19.021  0.00  0.00    +0.000 A 
ATOM     12  C   UNL     1       3.636   3.497  19.391  0.00  0.00    +0.000 A 
ATOM     13  C   UNL     1       2.306   3.695  19.725  0.00  0.00    +0.000 A 
ATOM     14  C   UNL     1       1.784   4.986  19.749  0.00  0.00    +0.000 A 
ATOM     15  C   UNL     1       2.576   6.110  19.469  0.00  0.00    +0.000 A 
ATOM     16  C   UNL     1       3.890   5.886  19.028  0.00  0.00    +0.000 A 
BRANCH  11  17
ATOM     17  C   UNL     1       5.865   4.320  18.583  0.00  0.00    +0.000 C 
BRANCH  17  23
ATOM     18  C   UNL     1       7.320   6.718  17.129  0.00  0.00    +0.000 C 
ATOM     19  N   UNL     1       6.779   5.531  16.523  0.00  0.00    +0.000 N 
ATOM     20  C   UNL     1       6.829   5.232  15.196  0.00  0.00    +0.000 A 
ATOM     21  N   UNL     1       6.254   4.073  14.983  0.00  0.00    +0.000 NA
ATOM     22  N   UNL     1       5.812   3.602  16.194  0.00  0.00    +0.000 NA
ATOM     23  C   UNL     1       6.127   4.484  17.125  0.00  0.00    +0.000 A 
ENDBRANCH  17  23
ENDBRANCH  11  17
ENDBRANCH   1  15
BRANCH   4  24
ATOM     24  C   UNL     1      -0.321   9.745  22.807  0.00  0.00    +0.000 C 
ATOM     25  F   UNL     1       0.767   9.550  23.592  0.00  0.00    +0.000 F 
ATOM     26  F   UNL     1      -1.014  10.782  23.338  0.00  0.00    +0.000 F 
ATOM     27  F   UNL     1      -1.100   8.642  22.931  0.00  0.00    +0.000 F 
ENDBRANCH   4  24
TORSDOF 4
ENDMDL
MODEL 6
REMARK VINA RESULT:      -8.6      1.630      2.223
REMARK  Name = 
REMARK  5 active torsions:
REMARK  status: ('A' for Active; 'I' for Inactive)
REMARK    1  A    between atoms: C_1  and  N_2
REMARK    2  A    between atoms: C_6  and  C_7
REMARK    3  A    between atoms: C_7  and  C_8
REMARK    4  A    between atoms: C_12  and  N_13
REMARK    5  A    between atoms: C_16  and  C_17
REMARK                            x       y       z     vdW  Elec       q    Type
REMARK                         _______ _______ _______ _____ _____    ______ ____
ROOT
ATOM      1  N   UNL     1       2.031   7.204  19.758  0.00  0.00    +0.000 N 
ATOM      2  C   UNL     1       1.325   7.655  20.958  0.00  0.00    +0.000 C 
ATOM      3  C   UNL     1       0.904   9.070  20.642  0.00  0.00    +0.000 C 
ATOM      4  C   UNL     1       0.229   9.990  21.354  0.00  0.00    +0.000 C 
ATOM      5  C   UNL     1      -0.126  11.334  20.744  0.00  0.00    +0.000 C 
ATOM      6  C   UNL     1       0.274  11.561  19.265  0.00  0.00    +0.000 C 
ATOM      7  C   UNL     1       1.079  10.468  18.641  0.00  0.00    +0.000 C 
ATOM      8  C   UNL     1       1.354   9.342  19.308  0.00  0.00    +0.000 C 
ATOM      9  C   UNL     1       2.093   8.191  18.761  0.00  0.00    +0.000 C 
ATOM     10  O   UNL     1       2.553   8.174  17.633  0.00  0.00    +0.000 OA
ENDROOT
BRANCH   1  15
ATOM     11  C   UNL     1       3.518   4.138  18.165  0.00  0.00    +0.000 A 
ATOM     12  C   UNL     1       3.479   3.254  19.252  0.00  0.00    +0.000 A 
ATOM     13  C   UNL     1       2.848   3.624  20.429  0.00  0.00    +0.000 A 
ATOM     14  C   UNL     1       2.304   4.900  20.550  0.00  0.00    +0.000 A 
ATOM     15  C   UNL     1       2.398   5.846  19.518  0.00  0.00    +0.000 A 
ATOM     16  C   UNL     1       2.942   5.423  18.296  0.00  0.00    +0.000 A 
BRANCH  11  17
ATOM     17  C   UNL     1       4.144   3.671  16.868  0.00  0.00    +0.000 C 
BRANCH  17  23
ATOM     18  C   UNL     1       5.562   4.157  14.087  0.00  0.00    +0.000 C 
ATOM     19  N   UNL     1       6.118   4.366  15.397  0.00  0.00    +0.000 N 
ATOM     20  C   UNL     1       7.367   4.843  15.655  0.00  0.00    +0.000 A 
ATOM     21  N   UNL     1       7.548   4.923  16.951  0.00  0.00    +0.000 NA
ATOM     22  N   UNL     1       6.398   4.486  17.558  0.00  0.00    +0.000 NA
ATOM     23  C   UNL     1       5.534   4.147  16.620  0.00  0.00    +0.000 A 
ENDBRANCH  17  23
ENDBRANCH  11  17
ENDBRANCH   1  15
BRANCH   4  24
ATOM     24  C   UNL     1      -0.210   9.771  22.764  0.00  0.00    +0.000 C 
ATOM     25  F   UNL     1       0.825   9.522  23.603  0.00  0.00    +0.000 F 
ATOM     26  F   UNL     1      -0.866  10.852  23.252  0.00  0.00    +0.000 F 
ATOM     27  F   UNL     1      -1.058   8.716  22.859  0.00  0.00    +0.000 F 
ENDBRANCH   4  24
TORSDOF 4
ENDMDL
MODEL 7
REMARK VINA RESULT:      -8.5      1.254      1.884
REMARK  Name = 
REMARK  5 active torsions:
REMARK  status: ('A' for Active; 'I' for Inactive)
REMARK    1  A    between atoms: C_1  and  N_2
REMARK    2  A    between atoms: C_6  and  C_7
REMARK    3  A    between atoms: C_7  and  C_8
REMARK    4  A    between atoms: C_12  and  N_13
REMARK    5  A    between atoms: C_16  and  C_17
REMARK                            x       y       z     vdW  Elec       q    Type
REMARK                         _______ _______ _______ _____ _____    ______ ____
ROOT
ATOM      1  N   UNL     1       2.152   7.416  19.774  0.00  0.00    +0.000 N 
ATOM      2  C   UNL     1       1.418   7.804  20.980  0.00  0.00    +0.000 C 
ATOM      3  C   UNL     1       0.785   9.128  20.631  0.00  0.00    +0.000 C 
ATOM      4  C   UNL     1      -0.000   9.965  21.332  0.00  0.00    +0.000 C 
ATOM      5  C   UNL     1      -0.566  11.218  20.690  0.00  0.00    +0.000 C 
ATOM      6  C   UNL     1      -0.243  11.447  19.193  0.00  0.00    +0.000 C 
ATOM      7  C   UNL     1       0.699  10.461  18.580  0.00  0.00    +0.000 C 
ATOM      8  C   UNL     1       1.154   9.414  19.275  0.00  0.00    +0.000 C 
ATOM      9  C   UNL     1       2.040   8.364  18.744  0.00  0.00    +0.000 C 
ATOM     10  O   UNL     1       2.469   8.373  17.603  0.00  0.00    +0.000 OA
ENDROOT
BRANCH   1  15
ATOM     11  C   UNL     1       4.639   4.647  19.231  0.00  0.00    +0.000 A 
ATOM     12  C   UNL     1       3.852   3.540  19.580  0.00  0.00    +0.000 A 
ATOM     13  C   UNL     1       2.502   3.701  19.848  0.00  0.00    +0.000 A 
ATOM     14  C   UNL     1       1.940   4.975  19.827  0.00  0.00    +0.000 A 
ATOM     15  C   UNL     1       2.709   6.119  19.568  0.00  0.00    +0.000 A 
ATOM     16  C   UNL     1       4.048   5.931  19.193  0.00  0.00    +0.000 A 
BRANCH  11  17
ATOM     17  C   UNL     1       6.091   4.423  18.866  0.00  0.00    +0.000 C 
BRANCH  17  23
ATOM     18  C   UNL     1       4.764   3.689  16.095  0.00  0.00    +0.000 C 
ATOM     19  N   UNL     1       5.880   4.568  16.320  0.00  0.00    +0.000 N 
ATOM     20  C   UNL     1       6.543   5.261  15.355  0.00  0.00    +0.000 A 
ATOM     21  N   UNL     1       7.497   5.975  15.902  0.00  0.00    +0.000 NA
ATOM     22  N   UNL     1       7.464   5.743  17.254  0.00  0.00    +0.000 NA
ATOM     23  C   UNL     1       6.488   4.892  17.508  0.00  0.00    +0.000 A 
ENDBRANCH  17  23
ENDBRANCH  11  17
ENDBRANCH   1  15
BRANCH   4  24
ATOM     24  C   UNL     1      -0.366   9.737  22.763  0.00  0.00    +0.000 C 
ATOM     25  F   UNL     1      -1.111   8.619  22.942  0.00  0.00    +0.000 F 
ATOM     26  F   UNL     1       0.737   9.609  23.541  0.00  0.00    +0.000 F 
ATOM     27  F   UNL     1      -1.085  10.774  23.259  0.00  0.00    +0.000 F 
ENDBRANCH   4  24
TORSDOF 4
ENDMDL
MODEL 8
REMARK VINA RESULT:      -8.5      4.097      8.268
REMARK  Name = 
REMARK  5 active torsions:
REMARK  status: ('A' for Active; 'I' for Inactive)
REMARK    1  A    between atoms: C_1  and  N_2
REMARK    2  A    between atoms: C_6  and  C_7
REMARK    3  A    between atoms: C_7  and  C_8
REMARK    4  A    between atoms: C_12  and  N_13
REMARK    5  A    between atoms: C_16  and  C_17
REMARK                            x       y       z     vdW  Elec       q    Type
REMARK                         _______ _______ _______ _____ _____    ______ ____
ROOT
ATOM      1  N   UNL     1       2.492   7.086  19.304  0.00  0.00    +0.000 N 
ATOM      2  C   UNL     1       3.436   7.237  18.194  0.00  0.00    +0.000 C 
ATOM      3  C   UNL     1       3.803   5.824  17.813  0.00  0.00    +0.000 C 
ATOM      4  C   UNL     1       4.626   5.329  16.870  0.00  0.00    +0.000 C 
ATOM      5  C   UNL     1       4.749   3.831  16.658  0.00  0.00    +0.000 C 
ATOM      6  C   UNL     1       3.850   2.922  17.532  0.00  0.00    +0.000 C 
ATOM      7  C   UNL     1       3.047   3.626  18.577  0.00  0.00    +0.000 C 
ATOM      8  C   UNL     1       3.058   4.958  18.680  0.00  0.00    +0.000 C 
ATOM      9  C   UNL     1       2.262   5.742  19.640  0.00  0.00    +0.000 C 
ATOM     10  O   UNL     1       1.525   5.229  20.465  0.00  0.00    +0.000 OA
ENDROOT
BRANCH   1  15
ATOM     11  C   UNL     1       0.213  10.071  19.495  0.00  0.00    +0.000 A 
ATOM     12  C   UNL     1      -0.178   9.995  20.840  0.00  0.00    +0.000 A 
ATOM     13  C   UNL     1       0.409   9.066  21.684  0.00  0.00    +0.000 A 
ATOM     14  C   UNL     1       1.347   8.169  21.180  0.00  0.00    +0.000 A 
ATOM     15  C   UNL     1       1.703   8.155  19.824  0.00  0.00    +0.000 A 
ATOM     16  C   UNL     1       1.183   9.168  19.004  0.00  0.00    +0.000 A 
BRANCH  11  17
ATOM     17  C   UNL     1      -0.390  11.151  18.622  0.00  0.00    +0.000 C 
BRANCH  17  23
ATOM     18  C   UNL     1      -3.219  12.247  19.501  0.00  0.00    +0.000 C 
ATOM     19  N   UNL     1      -2.935  11.335  18.426  0.00  0.00    +0.000 N 
ATOM     20  C   UNL     1      -3.858  10.803  17.579  0.00  0.00    +0.000 A 
ATOM     21  N   UNL     1      -3.261  10.023  16.711  0.00  0.00    +0.000 NA
ATOM     22  N   UNL     1      -1.919  10.037  16.995  0.00  0.00    +0.000 NA
ATOM     23  C   UNL     1      -1.720  10.828  18.033  0.00  0.00    +0.000 A 
ENDBRANCH  17  23
ENDBRANCH  11  17
ENDBRANCH   1  15
BRANCH   4  24
ATOM     24  C   UNL     1       5.464   6.190  15.983  0.00  0.00    +0.000 C 
ATOM     25  F   UNL     1       6.227   5.472  15.124  0.00  0.00    +0.000 F 
ATOM     26  F   UNL     1       4.699   7.024  15.236  0.00  0.00    +0.000 F 
ATOM     27  F   UNL     1       6.309   6.967  16.706  0.00  0.00    +0.000 F 
ENDBRANCH   4  24
TORSDOF 4
ENDMDL
MODEL 9
REMARK VINA RESULT:      -8.4      4.178      8.292
REMARK  Name = 
REMARK  5 active torsions:
REMARK  status: ('A' for Active; 'I' for Inactive)
REMARK    1  A    between atoms: C_1  and  N_2
REMARK    2  A    between atoms: C_6  and  C_7
REMARK    3  A    between atoms: C_7  and  C_8
REMARK    4  A    between atoms: C_12  and  N_13
REMARK    5  A    between atoms: C_16  and  C_17
REMARK                            x       y       z     vdW  Elec       q    Type
REMARK                         _______ _______ _______ _____ _____    ______ ____
ROOT
ATOM      1  N   UNL     1       2.437   7.105  19.315  0.00  0.00    +0.000 N 
ATOM      2  C   UNL     1       3.385   7.259  18.209  0.00  0.00    +0.000 C 
ATOM      3  C   UNL     1       3.736   5.846  17.811  0.00  0.00    +0.000 C 
ATOM      4  C   UNL     1       4.554   5.354  16.864  0.00  0.00    +0.000 C 
ATOM      5  C   UNL     1       4.659   3.857  16.633  0.00  0.00    +0.000 C 
ATOM      6  C   UNL     1       3.747   2.948  17.492  0.00  0.00    +0.000 C 
ATOM      7  C   UNL     1       2.950   3.648  18.546  0.00  0.00    +0.000 C 
ATOM      8  C   UNL     1       2.977   4.979  18.665  0.00  0.00    +0.000 C 
ATOM      9  C   UNL     1       2.190   5.760  19.634  0.00  0.00    +0.000 C 
ATOM     10  O   UNL     1       1.445   5.246  20.450  0.00  0.00    +0.000 OA
ENDROOT
BRANCH   1  15
ATOM     11  C   UNL     1       0.272  10.172  19.541  0.00  0.00    +0.000 A 
ATOM     12  C   UNL     1      -0.206  10.038  20.853  0.00  0.00    +0.000 A 
ATOM     13  C   UNL     1       0.289   9.039  21.676  0.00  0.00    +0.000 A 
ATOM     14  C   UNL     1       1.220   8.132  21.179  0.00  0.00    +0.000 A 
ATOM     15  C   UNL     1       1.660   8.177  19.848  0.00  0.00    +0.000 A 
ATOM     16  C   UNL     1       1.234   9.256  19.058  0.00  0.00    +0.000 A 
BRANCH  11  17
ATOM     17  C   UNL     1      -0.231  11.324  18.697  0.00  0.00    +0.000 C 
BRANCH  17  23
ATOM     18  C   UNL     1      -2.209   9.841  16.730  0.00  0.00    +0.000 C 
ATOM     19  N   UNL     1      -2.550  10.785  17.760  0.00  0.00    +0.000 N 
ATOM     20  C   UNL     1      -3.813  11.182  18.077  0.00  0.00    +0.000 A 
ATOM     21  N   UNL     1      -3.769  12.039  19.068  0.00  0.00    +0.000 NA
ATOM     22  N   UNL     1      -2.451  12.213  19.408  0.00  0.00    +0.000 NA
ATOM     23  C   UNL     1      -1.713  11.457  18.616  0.00  0.00    +0.000 A 
ENDBRANCH  17  23
ENDBRANCH  11  17
ENDBRANCH   1  15
BRANCH   4  24
ATOM     24  C   UNL     1       5.404   6.216  15.990  0.00  0.00    +0.000 C 
ATOM     25  F   UNL     1       4.677   7.066  15.224  0.00  0.00    +0.000 F 
ATOM     26  F   UNL     1       6.261   6.970  16.720  0.00  0.00    +0.000 F 
ATOM     27  F   UNL     1       6.157   5.468  15.143  0.00  0.00    +0.000 F 
ENDBRANCH   4  24
TORSDOF 4
ENDMDL
