MODEL 1
REMARK VINA RESULT:      -9.3      0.000      0.000
REMARK  Name = 
REMARK  4 active torsions:
REMARK  status: ('A' for Active; 'I' for Inactive)
REMARK    1  A    between atoms: C_1  and  C_2
REMARK    2  A    between atoms: C_9  and  S_10
REMARK    3  A    between atoms: S_10  and  N_13
REMARK    4  A    between atoms: C_15  and  C_16
REMARK                            x       y       z     vdW  Elec       q    Type
REMARK                         _______ _______ _______ _____ _____    ______ ____
ROOT
ATOM      1  S   UNL     1       4.251   4.042  18.380  0.00  0.00    +0.000 S 
ATOM      2  O   UNL     1       4.648   3.353  19.588  0.00  0.00    +0.000 OA
ATOM      3  O   UNL     1       3.403   3.368  17.414  0.00  0.00    +0.000 OA
ENDROOT
BRANCH   1  12
ATOM      4  C   UNL     1       0.429   8.879  22.084  0.00  0.00    +0.000 C 
ATOM      5  C   UNL     1       0.574   9.606  20.778  0.00  0.00    +0.000 C 
ATOM      6  O   UNL     1       0.086  10.736  20.664  0.00  0.00    +0.000 OA
ATOM      7  N   UNL     1       1.267   9.018  19.741  0.00  0.00    +0.000 N 
ATOM      8  C   UNL     1       1.514   9.804  18.523  0.00  0.00    +0.000 C 
ATOM      9  C   UNL     1       2.237   8.901  17.525  0.00  0.00    +0.000 C 
ATOM     10  C   UNL     1       2.525   7.693  18.359  0.00  0.00    +0.000 A 
ATOM     11  C   UNL     1       3.258   6.578  17.970  0.00  0.00    +0.000 A 
ATOM     12  C   UNL     1       3.377   5.518  18.874  0.00  0.00    +0.000 A 
ATOM     13  C   UNL     1       2.725   5.563  20.113  0.00  0.00    +0.000 A 
ATOM     14  C   UNL     1       1.992   6.699  20.488  0.00  0.00    +0.000 A 
ATOM     15  C   UNL     1       1.910   7.772  19.614  0.00  0.00    +0.000 A 
ENDBRANCH   1  12
BRANCH   1  16
ATOM     16  N   UNL     1       5.583   4.652  17.551  0.00  0.00    +0.000 N 
ATOM     17  C   UNL     1       6.633   5.349  18.325  0.00  0.00    +0.000 C 
ATOM     18  C   UNL     1       7.025   6.587  17.518  0.00  0.00    +0.000 C 
ATOM     19  C   UNL     1       8.040   7.439  18.269  0.00  0.00    +0.000 C 
ATOM     20  O   UNL     1       7.614   6.207  16.266  0.00  0.00    +0.000 OA
ATOM     21  C   UNL     1       6.896   5.253  15.575  0.00  0.00    +0.000 A 
ATOM     22  C   UNL     1       7.223   5.110  14.224  0.00  0.00    +0.000 A 
ATOM     23  F   UNL     1       8.157   5.894  13.667  0.00  0.00    +0.000 F 
ATOM     24  C   UNL     1       6.579   4.172  13.427  0.00  0.00    +0.000 A 
ATOM     25  C   UNL     1       5.612   3.349  13.994  0.00  0.00    +0.000 A 
ATOM     26  C   UNL     1       5.281   3.474  15.350  0.00  0.00    +0.000 A 
ATOM     27  C   UNL     1       5.906   4.431  16.160  0.00  0.00    +0.000 A 
ENDBRANCH   1  16
TORSDOF 2
ENDMDL
MODEL 2
REMARK VINA RESULT:      -8.7      0.569      1.696
REMARK  Name = 
REMARK  4 active torsions:
REMARK  status: ('A' for Active; 'I' for Inactive)
REMARK    1  A    between atoms: C_1  and  C_2
REMARK    2  A    between atoms: C_9  and  S_10
REMARK    3  A    between atoms: S_10  and  N_13
REMARK    4  A    between atoms: C_15  and  C_16
REMARK                            x       y       z     vdW  Elec       q    Type
REMARK                         _______ _______ _______ _____ _____    ______ ____
ROOT
ATOM      1  S   UNL     1       4.119   4.219  18.092  0.00  0.00    +0.000 S 
ATOM      2  O   UNL     1       4.431   3.547  19.334  0.00  0.00    +0.000 OA
ATOM      3  O   UNL     1       3.299   3.551  17.098  0.00  0.00    +0.000 OA
ENDROOT
BRANCH   1  12
ATOM      4  C   UNL     1       1.558  10.939  17.991  0.00  0.00    +0.000 C 
ATOM      5  C   UNL     1       1.050  10.486  19.330  0.00  0.00    +0.000 C 
ATOM      6  O   UNL     1       0.373  11.267  20.009  0.00  0.00    +0.000 OA
ATOM      7  N   UNL     1       1.321   9.208  19.768  0.00  0.00    +0.000 N 
ATOM      8  C   UNL     1       0.698   8.743  21.016  0.00  0.00    +0.000 C 
ATOM      9  C   UNL     1       1.213   7.332  21.296  0.00  0.00    +0.000 C 
ATOM     10  C   UNL     1       1.963   7.025  20.039  0.00  0.00    +0.000 A 
ATOM     11  C   UNL     1       2.566   5.816  19.713  0.00  0.00    +0.000 A 
ATOM     12  C   UNL     1       3.271   5.734  18.508  0.00  0.00    +0.000 A 
ATOM     13  C   UNL     1       3.407   6.860  17.685  0.00  0.00    +0.000 A 
ATOM     14  C   UNL     1       2.786   8.070  18.031  0.00  0.00    +0.000 A 
ATOM     15  C   UNL     1       2.047   8.144  19.201  0.00  0.00    +0.000 A 
ENDBRANCH   1  12
BRANCH   1  16
ATOM     16  N   UNL     1       5.511   4.767  17.320  0.00  0.00    +0.000 N 
ATOM     17  C   UNL     1       6.551   5.431  18.135  0.00  0.00    +0.000 C 
ATOM     18  C   UNL     1       7.029   6.643  17.335  0.00  0.00    +0.000 C 
ATOM     19  C   UNL     1       8.041   7.462  18.125  0.00  0.00    +0.000 C 
ATOM     20  O   UNL     1       7.659   6.226  16.116  0.00  0.00    +0.000 OA
ATOM     21  C   UNL     1       6.937   5.293  15.402  0.00  0.00    +0.000 A 
ATOM     22  C   UNL     1       7.319   5.122  14.069  0.00  0.00    +0.000 A 
ATOM     23  F   UNL     1       8.309   5.861  13.548  0.00  0.00    +0.000 F 
ATOM     24  C   UNL     1       6.676   4.201  13.251  0.00  0.00    +0.000 A 
ATOM     25  C   UNL     1       5.652   3.423  13.781  0.00  0.00    +0.000 A 
ATOM     26  C   UNL     1       5.264   3.577  15.119  0.00  0.00    +0.000 A 
ATOM     27  C   UNL     1       5.888   4.517  15.947  0.00  0.00    +0.000 A 
ENDBRANCH   1  16
TORSDOF 2
ENDMDL
MODEL 3
REMARK VINA RESULT:      -8.2      4.716      9.459
REMARK  Name = 
REMARK  4 active torsions:
REMARK  status: ('A' for Active; 'I' for Inactive)
REMARK    1  A    between atoms: C_1  and  C_2
REMARK    2  A    between atoms: C_9  and  S_10
REMARK    3  A    between atoms: S_10  and  N_13
REMARK    4  A    between atoms: C_15  and  C_16
REMARK                            x       y       z     vdW  Elec       q    Type
REMARK                         _______ _______ _______ _____ _____    ______ ____
ROOT
ATOM      1  S   UNL     1       0.573  11.421  19.420  0.00  0.00    +0.000 S 
ATOM      2  O   UNL     1       0.661  11.895  20.783  0.00  0.00    +0.000 OA
ATOM      3  O   UNL     1       1.270  12.132  18.364  0.00  0.00    +0.000 OA
ENDROOT
BRANCH   1  12
ATOM      4  C   UNL     1       2.151   4.626  21.171  0.00  0.00    +0.000 C 
ATOM      5  C   UNL     1       2.917   4.748  19.885  0.00  0.00    +0.000 C 
ATOM      6  O   UNL     1       3.542   3.769  19.464  0.00  0.00    +0.000 OA
ATOM      7  N   UNL     1       2.890   5.935  19.183  0.00  0.00    +0.000 N 
ATOM      8  C   UNL     1       3.532   5.987  17.861  0.00  0.00    +0.000 C 
ATOM      9  C   UNL     1       3.411   7.418  17.340  0.00  0.00    +0.000 C 
ATOM     10  C   UNL     1       2.507   8.038  18.359  0.00  0.00    +0.000 A 
ATOM     11  C   UNL     1       1.987   9.326  18.324  0.00  0.00    +0.000 A 
ATOM     12  C   UNL     1       1.198   9.749  19.398  0.00  0.00    +0.000 A 
ATOM     13  C   UNL     1       0.992   8.911  20.502  0.00  0.00    +0.000 A 
ATOM     14  C   UNL     1       1.524   7.613  20.516  0.00  0.00    +0.000 A 
ATOM     15  C   UNL     1       2.267   7.172  19.432  0.00  0.00    +0.000 A 
ENDBRANCH   1  12
BRANCH   1  16
ATOM     16  N   UNL     1      -1.028  11.230  18.935  0.00  0.00    +0.000 N 
ATOM     17  C   UNL     1      -1.325  10.256  17.863  0.00  0.00    +0.000 C 
ATOM     18  C   UNL     1      -2.339  10.923  16.933  0.00  0.00    +0.000 C 
ATOM     19  C   UNL     1      -2.650  10.041  15.730  0.00  0.00    +0.000 C 
ATOM     20  O   UNL     1      -3.572  11.169  17.624  0.00  0.00    +0.000 OA
ATOM     21  C   UNL     1      -3.414  11.771  18.855  0.00  0.00    +0.000 A 
ATOM     22  C   UNL     1      -4.564  12.345  19.401  0.00  0.00    +0.000 A 
ATOM     23  F   UNL     1      -5.721  12.319  18.723  0.00  0.00    +0.000 F 
ATOM     24  C   UNL     1      -4.535  12.968  20.643  0.00  0.00    +0.000 A 
ATOM     25  C   UNL     1      -3.343  12.996  21.359  0.00  0.00    +0.000 A 
ATOM     26  C   UNL     1      -2.183  12.416  20.828  0.00  0.00    +0.000 A 
ATOM     27  C   UNL     1      -2.193  11.805  19.568  0.00  0.00    +0.000 A 
ENDBRANCH   1  16
TORSDOF 2
ENDMDL
MODEL 4
REMARK VINA RESULT:      -7.9      4.880      9.741
REMARK  Name = 
REMARK  4 active torsions:
REMARK  status: ('A' for Active; 'I' for Inactive)
REMARK    1  A    between atoms: C_1  and  C_2
REMARK    2  A    between atoms: C_9  and  S_10
REMARK    3  A    between atoms: S_10  and  N_13
REMARK    4  A    between atoms: C_15  and  C_16
REMARK                            x       y       z     vdW  Elec       q    Type
REMARK                         _______ _______ _______ _____ _____    ______ ____
ROOT
ATOM      1  S   UNL     1       0.257  11.780  19.284  0.00  0.00    +0.000 S 
ATOM      2  O   UNL     1       0.279  12.131  20.686  0.00  0.00    +0.000 OA
ATOM      3  O   UNL     1       0.839  12.683  18.307  0.00  0.00    +0.000 OA
ENDROOT
BRANCH   1  12
ATOM      4  C   UNL     1       4.382   6.419  16.841  0.00  0.00    +0.000 C 
ATOM      5  C   UNL     1       3.802   5.766  18.063  0.00  0.00    +0.000 C 
ATOM      6  O   UNL     1       4.143   4.611  18.344  0.00  0.00    +0.000 OA
ATOM      7  N   UNL     1       2.922   6.466  18.861  0.00  0.00    +0.000 N 
ATOM      8  C   UNL     1       2.476   5.857  20.122  0.00  0.00    +0.000 C 
ATOM      9  C   UNL     1       1.471   6.809  20.770  0.00  0.00    +0.000 C 
ATOM     10  C   UNL     1       1.579   8.012  19.887  0.00  0.00    +0.000 A 
ATOM     11  C   UNL     1       0.939   9.231  20.075  0.00  0.00    +0.000 A 
ATOM     12  C   UNL     1       1.122  10.228  19.111  0.00  0.00    +0.000 A 
ATOM     13  C   UNL     1       1.884   9.976  17.963  0.00  0.00    +0.000 A 
ATOM     14  C   UNL     1       2.525   8.739  17.795  0.00  0.00    +0.000 A 
ATOM     15  C   UNL     1       2.386   7.764  18.770  0.00  0.00    +0.000 A 
ENDBRANCH   1  12
BRANCH   1  16
ATOM     16  N   UNL     1      -1.299  11.404  18.765  0.00  0.00    +0.000 N 
ATOM     17  C   UNL     1      -1.464  10.343  17.748  0.00  0.00    +0.000 C 
ATOM     18  C   UNL     1      -2.504  10.850  16.749  0.00  0.00    +0.000 C 
ATOM     19  C   UNL     1      -2.686   9.872  15.595  0.00  0.00    +0.000 C 
ATOM     20  O   UNL     1      -3.778  11.014  17.388  0.00  0.00    +0.000 OA
ATOM     21  C   UNL     1      -3.722  11.701  18.583  0.00  0.00    +0.000 A 
ATOM     22  C   UNL     1      -4.941  12.190  19.058  0.00  0.00    +0.000 A 
ATOM     23  F   UNL     1      -6.065  12.009  18.350  0.00  0.00    +0.000 F 
ATOM     24  C   UNL     1      -5.015  12.885  20.259  0.00  0.00    +0.000 A 
ATOM     25  C   UNL     1      -3.858  13.073  21.006  0.00  0.00    +0.000 A 
ATOM     26  C   UNL     1      -2.629  12.580  20.546  0.00  0.00    +0.000 A 
ATOM     27  C   UNL     1      -2.536  11.897  19.327  0.00  0.00    +0.000 A 
ENDBRANCH   1  16
TORSDOF 2
ENDMDL
MODEL 5
REMARK VINA RESULT:      -7.6      3.741      8.599
REMARK  Name = 
REMARK  4 active torsions:
REMARK  status: ('A' for Active; 'I' for Inactive)
REMARK    1  A    between atoms: C_1  and  C_2
REMARK    2  A    between atoms: C_9  and  S_10
REMARK    3  A    between atoms: S_10  and  N_13
REMARK    4  A    between atoms: C_15  and  C_16
REMARK                            x       y       z     vdW  Elec       q    Type
REMARK                         _______ _______ _______ _____ _____    ______ ____
ROOT
ATOM      1  S   UNL     1       0.283   9.162  21.443  0.00  0.00    +0.000 S 
ATOM      2  O   UNL     1      -0.771   8.321  21.964  0.00  0.00    +0.000 OA
ATOM      3  O   UNL     1       1.157   9.870  22.360  0.00  0.00    +0.000 OA
ENDROOT
BRANCH   1  12
ATOM      4  C   UNL     1       4.676   6.744  16.288  0.00  0.00    +0.000 C 
ATOM      5  C   UNL     1       4.454   5.474  17.058  0.00  0.00    +0.000 C 
ATOM      6  O   UNL     1       5.025   4.442  16.689  0.00  0.00    +0.000 OA
ATOM      7  N   UNL     1       3.643   5.482  18.173  0.00  0.00    +0.000 N 
ATOM      8  C   UNL     1       3.550   4.262  18.988  0.00  0.00    +0.000 C 
ATOM      9  C   UNL     1       2.548   4.526  20.110  0.00  0.00    +0.000 C 
ATOM     10  C   UNL     1       2.288   5.991  19.950  0.00  0.00    +0.000 A 
ATOM     11  C   UNL     1       1.507   6.785  20.780  0.00  0.00    +0.000 A 
ATOM     12  C   UNL     1       1.338   8.131  20.439  0.00  0.00    +0.000 A 
ATOM     13  C   UNL     1       1.897   8.641  19.260  0.00  0.00    +0.000 A 
ATOM     14  C   UNL     1       2.685   7.822  18.436  0.00  0.00    +0.000 A 
ATOM     15  C   UNL     1       2.895   6.500  18.795  0.00  0.00    +0.000 A 
ENDBRANCH   1  12
BRANCH   1  16
ATOM     16  N   UNL     1      -0.311  10.283  20.337  0.00  0.00    +0.000 N 
ATOM     17  C   UNL     1      -1.371   9.852  19.401  0.00  0.00    +0.000 C 
ATOM     18  C   UNL     1      -1.009  10.430  18.032  0.00  0.00    +0.000 C 
ATOM     19  C   UNL     1      -1.989   9.967  16.961  0.00  0.00    +0.000 C 
ATOM     20  O   UNL     1      -1.042  11.863  18.065  0.00  0.00    +0.000 OA
ATOM     21  C   UNL     1      -0.369  12.415  19.136  0.00  0.00    +0.000 A 
ATOM     22  C   UNL     1      -0.071  13.775  19.028  0.00  0.00    +0.000 A 
ATOM     23  F   UNL     1      -0.405  14.456  17.921  0.00  0.00    +0.000 F 
ATOM     24  C   UNL     1       0.591  14.447  20.048  0.00  0.00    +0.000 A 
ATOM     25  C   UNL     1       0.937  13.754  21.203  0.00  0.00    +0.000 A 
ATOM     26  C   UNL     1       0.635  12.392  21.329  0.00  0.00    +0.000 A 
ATOM     27  C   UNL     1      -0.011  11.697  20.300  0.00  0.00    +0.000 A 
ENDBRANCH   1  16
TORSDOF 2
ENDMDL
MODEL 6
REMARK VINA RESULT:      -7.4      5.463     10.125
REMARK  Name = 
REMARK  4 active torsions:
REMARK  status: ('A' for Active; 'I' for Inactive)
REMARK    1  A    between atoms: C_1  and  C_2
REMARK    2  A    between atoms: C_9  and  S_10
REMARK    3  A    between atoms: S_10  and  N_13
REMARK    4  A    between atoms: C_15  and  C_16
REMARK                            x       y       z     vdW  Elec       q    Type
REMARK                         _______ _______ _______ _____ _____    ______ ____
ROOT
ATOM      1  S   UNL     1      -1.120  11.927  19.818  0.00  0.00    +0.000 S 
ATOM      2  O   UNL     1      -1.454  12.087  21.216  0.00  0.00    +0.000 OA
ATOM      3  O   UNL     1      -0.399  12.979  19.126  0.00  0.00    +0.000 OA
ENDROOT
BRANCH   1  12
ATOM      4  C   UNL     1       1.952   5.536  21.020  0.00  0.00    +0.000 C 
ATOM      5  C   UNL     1       2.706   5.961  19.792  0.00  0.00    +0.000 C 
ATOM      6  O   UNL     1       3.556   5.199  19.318  0.00  0.00    +0.000 OA
ATOM      7  N   UNL     1       2.424   7.174  19.201  0.00  0.00    +0.000 N 
ATOM      8  C   UNL     1       3.074   7.506  17.926  0.00  0.00    +0.000 C 
ATOM      9  C   UNL     1       2.637   8.916  17.532  0.00  0.00    +0.000 C 
ATOM     10  C   UNL     1       1.584   9.206  18.555  0.00  0.00    +0.000 A 
ATOM     11  C   UNL     1       0.777  10.336  18.610  0.00  0.00    +0.000 A 
ATOM     12  C   UNL     1      -0.120  10.455  19.676  0.00  0.00    +0.000 A 
ATOM     13  C   UNL     1      -0.158   9.485  20.686  0.00  0.00    +0.000 A 
ATOM     14  C   UNL     1       0.663   8.349  20.610  0.00  0.00    +0.000 A 
ATOM     15  C   UNL     1       1.520   8.203  19.530  0.00  0.00    +0.000 A 
ENDBRANCH   1  12
BRANCH   1  16
ATOM     16  N   UNL     1      -2.478  11.550  18.897  0.00  0.00    +0.000 N 
ATOM     17  C   UNL     1      -2.365  10.476  17.887  0.00  0.00    +0.000 C 
ATOM     18  C   UNL     1      -3.089  10.973  16.635  0.00  0.00    +0.000 C 
ATOM     19  C   UNL     1      -2.955   9.980  15.488  0.00  0.00    +0.000 C 
ATOM     20  O   UNL     1      -4.487  11.151  16.899  0.00  0.00    +0.000 OA
ATOM     21  C   UNL     1      -4.756  11.854  18.055  0.00  0.00    +0.000 A 
ATOM     22  C   UNL     1      -6.055  12.353  18.173  0.00  0.00    +0.000 A 
ATOM     23  F   UNL     1      -6.943  12.168  17.186  0.00  0.00    +0.000 F 
ATOM     24  C   UNL     1      -6.450  13.065  19.298  0.00  0.00    +0.000 A 
ATOM     25  C   UNL     1      -5.539  13.259  20.332  0.00  0.00    +0.000 A 
ATOM     26  C   UNL     1      -4.236  12.755  20.232  0.00  0.00    +0.000 A 
ATOM     27  C   UNL     1      -3.818  12.056  19.094  0.00  0.00    +0.000 A 
ENDBRANCH   1  16
TORSDOF 2
ENDMDL
MODEL 7
REMARK VINA RESULT:      -7.4      6.878     12.017
REMARK  Name = 
REMARK  4 active torsions:
REMARK  status: ('A' for Active; 'I' for Inactive)
REMARK    1  A    between atoms: C_1  and  C_2
REMARK    2  A    between atoms: C_9  and  S_10
REMARK    3  A    between atoms: S_10  and  N_13
REMARK    4  A    between atoms: C_15  and  C_16
REMARK                            x       y       z     vdW  Elec       q    Type
REMARK                         _______ _______ _______ _____ _____    ______ ____
ROOT
ATOM      1  S   UNL     1      -3.037  14.313  21.619  0.00  0.00    +0.000 S 
ATOM      2  O   UNL     1      -2.713  14.877  22.911  0.00  0.00    +0.000 OA
ATOM      3  O   UNL     1      -2.942  15.139  20.430  0.00  0.00    +0.000 OA
ENDROOT
BRANCH   1  12
ATOM      4  C   UNL     1       1.359   9.468  18.632  0.00  0.00    +0.000 C 
ATOM      5  C   UNL     1       1.246   8.898  20.017  0.00  0.00    +0.000 C 
ATOM      6  O   UNL     1       1.875   7.871  20.295  0.00  0.00    +0.000 OA
ATOM      7  N   UNL     1       0.468   9.538  20.958  0.00  0.00    +0.000 N 
ATOM      8  C   UNL     1       0.483   9.040  22.341  0.00  0.00    +0.000 C 
ATOM      9  C   UNL     1      -0.503   9.882  23.151  0.00  0.00    +0.000 C 
ATOM     10  C   UNL     1      -0.865  10.953  22.170  0.00  0.00    +0.000 A 
ATOM     11  C   UNL     1      -1.674  12.056  22.417  0.00  0.00    +0.000 A 
ATOM     12  C   UNL     1      -1.944  12.927  21.356  0.00  0.00    +0.000 A 
ATOM     13  C   UNL     1      -1.455  12.655  20.071  0.00  0.00    +0.000 A 
ATOM     14  C   UNL     1      -0.637  11.538  19.845  0.00  0.00    +0.000 A 
ATOM     15  C   UNL     1      -0.328  10.698  20.903  0.00  0.00    +0.000 A 
ENDBRANCH   1  12
BRANCH   1  16
ATOM     16  N   UNL     1      -4.560  13.597  21.622  0.00  0.00    +0.000 N 
ATOM     17  C   UNL     1      -5.535  14.022  22.649  0.00  0.00    +0.000 C 
ATOM     18  C   UNL     1      -6.214  12.752  23.162  0.00  0.00    +0.000 C 
ATOM     19  C   UNL     1      -7.178  13.063  24.301  0.00  0.00    +0.000 C 
ATOM     20  O   UNL     1      -6.964  12.123  22.114  0.00  0.00    +0.000 OA
ATOM     21  C   UNL     1      -6.267  11.984  20.932  0.00  0.00    +0.000 A 
ATOM     22  C   UNL     1      -6.807  11.082  20.012  0.00  0.00    +0.000 A 
ATOM     23  F   UNL     1      -7.916  10.390  20.314  0.00  0.00    +0.000 F 
ATOM     24  C   UNL     1      -6.204  10.866  18.780  0.00  0.00    +0.000 A 
ATOM     25  C   UNL     1      -5.057  11.581  18.453  0.00  0.00    +0.000 A 
ATOM     26  C   UNL     1      -4.509  12.497  19.361  0.00  0.00    +0.000 A 
ATOM     27  C   UNL     1      -5.094  12.707  20.615  0.00  0.00    +0.000 A 
ENDBRANCH   1  16
TORSDOF 2
ENDMDL
MODEL 8
REMARK VINA RESULT:      -7.3      5.608     10.486
REMARK  Name = 
REMARK  4 active torsions:
REMARK  status: ('A' for Active; 'I' for Inactive)
REMARK    1  A    between atoms: C_1  and  C_2
REMARK    2  A    between atoms: C_9  and  S_10
REMARK    3  A    between atoms: S_10  and  N_13
REMARK    4  A    between atoms: C_15  and  C_16
REMARK                            x       y       z     vdW  Elec       q    Type
REMARK                         _______ _______ _______ _____ _____    ______ ____
ROOT
ATOM      1  S   UNL     1      -1.078  12.527  19.281  0.00  0.00    +0.000 S 
ATOM      2  O   UNL     1      -1.195  13.010  20.639  0.00  0.00    +0.000 OA
ATOM      3  O   UNL     1      -0.520  13.389  18.256  0.00  0.00    +0.000 OA
ENDROOT
BRANCH   1  12
ATOM      4  C   UNL     1       3.635   7.360  17.600  0.00  0.00    +0.000 C 
ATOM      5  C   UNL     1       3.111   6.822  18.900  0.00  0.00    +0.000 C 
ATOM      6  O   UNL     1       3.570   5.761  19.338  0.00  0.00    +0.000 OA
ATOM      7  N   UNL     1       2.150   7.525  19.595  0.00  0.00    +0.000 N 
ATOM      8  C   UNL     1       1.754   7.050  20.928  0.00  0.00    +0.000 C 
ATOM      9  C   UNL     1       0.643   7.967  21.439  0.00  0.00    +0.000 C 
ATOM     10  C   UNL     1       0.633   9.043  20.399  0.00  0.00    +0.000 A 
ATOM     11  C   UNL     1      -0.137  10.200  20.417  0.00  0.00    +0.000 A 
ATOM     12  C   UNL     1      -0.049  11.068  19.324  0.00  0.00    +0.000 A 
ATOM     13  C   UNL     1       0.753  10.745  18.221  0.00  0.00    +0.000 A 
ATOM     14  C   UNL     1       1.525   9.574  18.225  0.00  0.00    +0.000 A 
ATOM     15  C   UNL     1       1.478   8.733  19.326  0.00  0.00    +0.000 A 
ENDBRANCH   1  12
BRANCH   1  16
ATOM     16  N   UNL     1      -2.545  11.935  18.707  0.00  0.00    +0.000 N 
ATOM     17  C   UNL     1      -2.523  10.964  17.591  0.00  0.00    +0.000 C 
ATOM     18  C   UNL     1      -3.639  11.375  16.630  0.00  0.00    +0.000 C 
ATOM     19  C   UNL     1      -3.649  10.495  15.387  0.00  0.00    +0.000 C 
ATOM     20  O   UNL     1      -4.920  11.251  17.264  0.00  0.00    +0.000 OA
ATOM     21  C   UNL     1      -4.983  11.819  18.519  0.00  0.00    +0.000 A 
ATOM     22  C   UNL     1      -6.267  12.039  19.022  0.00  0.00    +0.000 A 
ATOM     23  F   UNL     1      -7.344  11.733  18.283  0.00  0.00    +0.000 F 
ATOM     24  C   UNL     1      -6.460  12.592  20.281  0.00  0.00    +0.000 A 
ATOM     25  C   UNL     1      -5.351  12.907  21.059  0.00  0.00    +0.000 A 
ATOM     26  C   UNL     1      -4.056  12.683  20.572  0.00  0.00    +0.000 A 
ATOM     27  C   UNL     1      -3.848  12.148  19.296  0.00  0.00    +0.000 A 
ENDBRANCH   1  16
TORSDOF 2
ENDMDL
MODEL 9
REMARK VINA RESULT:      -7.2      4.803      9.500
REMARK  Name = 
REMARK  4 active torsions:
REMARK  status: ('A' for Active; 'I' for Inactive)
REMARK    1  A    between atoms: C_1  and  C_2
REMARK    2  A    between atoms: C_9  and  S_10
REMARK    3  A    between atoms: S_10  and  N_13
REMARK    4  A    between atoms: C_15  and  C_16
REMARK                            x       y       z     vdW  Elec       q    Type
REMARK                         _______ _______ _______ _____ _____    ______ ____
ROOT
ATOM      1  S   UNL     1       0.527  12.894  19.276  0.00  0.00    +0.000 S 
ATOM      2  O   UNL     1       1.066  13.535  20.455  0.00  0.00    +0.000 OA
ATOM      3  O   UNL     1       0.857  13.411  17.961  0.00  0.00    +0.000 OA
ENDROOT
BRANCH   1  12
ATOM      4  C   UNL     1       3.536   6.595  17.545  0.00  0.00    +0.000 C 
ATOM      5  C   UNL     1       2.843   6.210  18.820  0.00  0.00    +0.000 C 
ATOM      6  O   UNL     1       2.955   5.052  19.238  0.00  0.00    +0.000 OA
ATOM      7  N   UNL     1       2.116   7.154  19.516  0.00  0.00    +0.000 N 
ATOM      8  C   UNL     1       1.563   6.791  20.828  0.00  0.00    +0.000 C 
ATOM      9  C   UNL     1       0.762   7.987  21.343  0.00  0.00    +0.000 C 
ATOM     10  C   UNL     1       1.098   9.037  20.332  0.00  0.00    +0.000 A 
ATOM     11  C   UNL     1       0.706  10.370  20.367  0.00  0.00    +0.000 A 
ATOM     12  C   UNL     1       1.076  11.195  19.300  0.00  0.00    +0.000 A 
ATOM     13  C   UNL     1       1.773  10.670  18.203  0.00  0.00    +0.000 A 
ATOM     14  C   UNL     1       2.163   9.322  18.190  0.00  0.00    +0.000 A 
ATOM     15  C   UNL     1       1.840   8.512  19.267  0.00  0.00    +0.000 A 
ENDBRANCH   1  12
BRANCH   1  16
ATOM     16  N   UNL     1      -1.147  12.750  19.362  0.00  0.00    +0.000 N 
ATOM     17  C   UNL     1      -1.876  13.587  20.339  0.00  0.00    +0.000 C 
ATOM     18  C   UNL     1      -2.927  12.689  20.990  0.00  0.00    +0.000 C 
ATOM     19  C   UNL     1      -3.680  13.427  22.090  0.00  0.00    +0.000 C 
ATOM     20  O   UNL     1      -3.889  12.253  20.019  0.00  0.00    +0.000 OA
ATOM     21  C   UNL     1      -3.329  11.762  18.858  0.00  0.00    +0.000 A 
ATOM     22  C   UNL     1      -4.182  11.012  18.045  0.00  0.00    +0.000 A 
ATOM     23  F   UNL     1      -5.448  10.780  18.423  0.00  0.00    +0.000 F 
ATOM     24  C   UNL     1      -3.739  10.477  16.842  0.00  0.00    +0.000 A 
ATOM     25  C   UNL     1      -2.431  10.716  16.435  0.00  0.00    +0.000 A 
ATOM     26  C   UNL     1      -1.567  11.474  17.235  0.00  0.00    +0.000 A 
ATOM     27  C   UNL     1      -1.993  12.000  18.461  0.00  0.00    +0.000 A 
ENDBRANCH   1  16
TORSDOF 2
ENDMDL
