MODEL 1
REMARK VINA RESULT:      -8.6      0.000      0.000
REMARK  Name = 
REMARK  6 active torsions:
REMARK  status: ('A' for Active; 'I' for Inactive)
REMARK    1  A    between atoms: C_1  and  C_2
REMARK    2  A    between atoms: C_4  and  C_5
REMARK    3  A    between atoms: N_6  and  C_7
REMARK    4  A    between atoms: C_10  and  C_11
REMARK    5  A    between atoms: N_13  and  C_14
REMARK    6  A    between atoms: N_17  and  C_18
REMARK                            x       y       z     vdW  Elec       q    Type
REMARK                         _______ _______ _______ _____ _____    ______ ____
ROOT
ATOM      1  C   UNL     1       7.844   8.094  18.096  0.00  0.00    +0.000 C 
ATOM      2  O   UNL     1       8.402   7.213  18.739  0.00  0.00    +0.000 OA
ATOM      3  N   UNL     1       6.771   7.911  17.248  0.00  0.00    +0.000 N 
ATOM      4  H   UNL     1       6.419   8.682  16.696  0.00  0.00    +0.000 HD
ENDROOT
BRANCH   1   8
ATOM      5  C   UNL     1       9.478  12.042  18.503  0.00  0.00    +0.000 A 
ATOM      6  C   UNL     1       9.954  10.969  19.266  0.00  0.00    +0.000 A 
ATOM      7  C   UNL     1       9.414   9.694  19.102  0.00  0.00    +0.000 A 
ATOM      8  C   UNL     1       8.383   9.473  18.184  0.00  0.00    +0.000 A 
ATOM      9  C   UNL     1       7.882  10.541  17.436  0.00  0.00    +0.000 A 
ATOM     10  C   UNL     1       8.425  11.819  17.608  0.00  0.00    +0.000 A 
ATOM     11  F   UNL     1       7.936  12.797  16.834  0.00  0.00    +0.000 F 
BRANCH   5  17
ATOM     12  C   UNL     1      10.295  16.272  20.662  0.00  0.00    +0.000 C 
ATOM     13  C   UNL     1      10.421  15.202  19.645  0.00  0.00    +0.000 A 
ATOM     14  C   UNL     1      11.312  15.142  18.560  0.00  0.00    +0.000 A 
ATOM     15  C   UNL     1      11.035  13.954  17.919  0.00  0.00    +0.000 A 
ATOM     16  C   UNL     1      11.587  13.452  16.633  0.00  0.00    +0.000 C 
ATOM     17  N   UNL     1      10.031  13.338  18.664  0.00  0.00    +0.000 N 
ATOM     18  N   UNL     1       9.617  14.138  19.678  0.00  0.00    +0.000 NA
ENDBRANCH   5  17
ENDBRANCH   1   8
BRANCH   3  19
ATOM     19  C   UNL     1       6.202   6.672  17.020  0.00  0.00    +0.000 A 
ATOM     20  C   UNL     1       6.493   5.663  16.081  0.00  0.00    +0.000 A 
ATOM     21  N   UNL     1       5.681   4.610  16.195  0.00  0.00    +0.000 NA
ATOM     22  N   UNL     1       4.826   4.946  17.194  0.00  0.00    +0.000 N 
ATOM     23  C   UNL     1       5.144   6.174  17.736  0.00  0.00    +0.000 A 
BRANCH  22  24
ATOM     24  C   UNL     1       3.744   4.092  17.549  0.00  0.00    +0.000 A 
ATOM     25  C   UNL     1       2.465   4.635  17.742  0.00  0.00    +0.000 A 
ATOM     26  C   UNL     1       1.403   3.810  18.125  0.00  0.00    +0.000 A 
ATOM     27  C   UNL     1       1.613   2.446  18.320  0.00  0.00    +0.000 A 
ATOM     28  C   UNL     1       2.881   1.902  18.126  0.00  0.00    +0.000 A 
ATOM     29  C   UNL     1       3.944   2.717  17.738  0.00  0.00    +0.000 A 
ENDBRANCH  22  24
ENDBRANCH   3  19
TORSDOF 4
ENDMDL
MODEL 2
REMARK VINA RESULT:      -8.5      0.667      1.401
REMARK  Name = 
REMARK  6 active torsions:
REMARK  status: ('A' for Active; 'I' for Inactive)
REMARK    1  A    between atoms: C_1  and  C_2
REMARK    2  A    between atoms: C_4  and  C_5
REMARK    3  A    between atoms: N_6  and  C_7
REMARK    4  A    between atoms: C_10  and  C_11
REMARK    5  A    between atoms: N_13  and  C_14
REMARK    6  A    between atoms: N_17  and  C_18
REMARK                            x       y       z     vdW  Elec       q    Type
REMARK                         _______ _______ _______ _____ _____    ______ ____
ROOT
ATOM      1  C   UNL     1       7.949   8.185  18.157  0.00  0.00    +0.000 C 
ATOM      2  O   UNL     1       8.503   7.324  18.830  0.00  0.00    +0.000 OA
ATOM      3  N   UNL     1       6.894   7.974  17.294  0.00  0.00    +0.000 N 
ATOM      4  H   UNL     1       6.544   8.728  16.718  0.00  0.00    +0.000 HD
ENDROOT
BRANCH   1   8
ATOM      5  C   UNL     1       9.544  12.155  18.503  0.00  0.00    +0.000 A 
ATOM      6  C   UNL     1      10.040  11.096  19.272  0.00  0.00    +0.000 A 
ATOM      7  C   UNL     1       9.512   9.814  19.128  0.00  0.00    +0.000 A 
ATOM      8  C   UNL     1       8.474   9.572  18.224  0.00  0.00    +0.000 A 
ATOM      9  C   UNL     1       7.952  10.626  17.470  0.00  0.00    +0.000 A 
ATOM     10  C   UNL     1       8.483  11.911  17.622  0.00  0.00    +0.000 A 
ATOM     11  F   UNL     1       7.976  12.875  16.843  0.00  0.00    +0.000 F 
BRANCH   5  17
ATOM     12  C   UNL     1      11.970  16.107  17.191  0.00  0.00    +0.000 C 
ATOM     13  C   UNL     1      11.133  15.228  18.041  0.00  0.00    +0.000 A 
ATOM     14  C   UNL     1      10.487  15.552  19.246  0.00  0.00    +0.000 A 
ATOM     15  C   UNL     1       9.839  14.401  19.640  0.00  0.00    +0.000 A 
ATOM     16  C   UNL     1       9.117  14.142  20.912  0.00  0.00    +0.000 C 
ATOM     17  N   UNL     1      10.085  13.459  18.642  0.00  0.00    +0.000 N 
ATOM     18  N   UNL     1      10.930  13.953  17.703  0.00  0.00    +0.000 NA
ENDBRANCH   5  17
ENDBRANCH   1   8
BRANCH   3  19
ATOM     19  C   UNL     1       6.340   6.724  17.084  0.00  0.00    +0.000 A 
ATOM     20  C   UNL     1       6.707   5.666  16.229  0.00  0.00    +0.000 A 
ATOM     21  N   UNL     1       5.882   4.621  16.327  0.00  0.00    +0.000 NA
ATOM     22  N   UNL     1       4.945   5.011  17.228  0.00  0.00    +0.000 N 
ATOM     23  C   UNL     1       5.221   6.266  17.730  0.00  0.00    +0.000 A 
BRANCH  22  24
ATOM     24  C   UNL     1       3.831   4.179  17.533  0.00  0.00    +0.000 A 
ATOM     25  C   UNL     1       2.578   4.757  17.782  0.00  0.00    +0.000 A 
ATOM     26  C   UNL     1       1.486   3.950  18.116  0.00  0.00    +0.000 A 
ATOM     27  C   UNL     1       1.641   2.568  18.206  0.00  0.00    +0.000 A 
ATOM     28  C   UNL     1       2.883   1.988  17.955  0.00  0.00    +0.000 A 
ATOM     29  C   UNL     1       3.976   2.786  17.616  0.00  0.00    +0.000 A 
ENDBRANCH  22  24
ENDBRANCH   3  19
TORSDOF 4
ENDMDL
MODEL 3
REMARK VINA RESULT:      -8.5      0.992      1.346
REMARK  Name = 
REMARK  6 active torsions:
REMARK  status: ('A' for Active; 'I' for Inactive)
REMARK    1  A    between atoms: C_1  and  C_2
REMARK    2  A    between atoms: C_4  and  C_5
REMARK    3  A    between atoms: N_6  and  C_7
REMARK    4  A    between atoms: C_10  and  C_11
REMARK    5  A    between atoms: N_13  and  C_14
REMARK    6  A    between atoms: N_17  and  C_18
REMARK                            x       y       z     vdW  Elec       q    Type
REMARK                         _______ _______ _______ _____ _____    ______ ____
ROOT
ATOM      1  C   UNL     1       8.062   8.281  18.265  0.00  0.00    +0.000 C 
ATOM      2  O   UNL     1       8.582   7.407  18.948  0.00  0.00    +0.000 OA
ATOM      3  N   UNL     1       7.032   8.092  17.367  0.00  0.00    +0.000 N 
ATOM      4  H   UNL     1       6.712   8.856  16.787  0.00  0.00    +0.000 HD
ENDROOT
BRANCH   1   8
ATOM      5  C   UNL     1       9.555  12.303  18.385  0.00  0.00    +0.000 A 
ATOM      6  C   UNL     1       8.512  11.933  17.527  0.00  0.00    +0.000 A 
ATOM      7  C   UNL     1       8.038  10.622  17.520  0.00  0.00    +0.000 A 
ATOM      8  C   UNL     1       8.604   9.659  18.360  0.00  0.00    +0.000 A 
ATOM      9  C   UNL     1       9.662  10.010  19.202  0.00  0.00    +0.000 A 
ATOM     10  C   UNL     1      10.137  11.326  19.202  0.00  0.00    +0.000 A 
ATOM     11  F   UNL     1      11.123  11.618  20.059  0.00  0.00    +0.000 F 
BRANCH   5  17
ATOM     12  C   UNL     1       9.784  16.912  19.777  0.00  0.00    +0.000 C 
ATOM     13  C   UNL     1      10.156  15.677  19.047  0.00  0.00    +0.000 A 
ATOM     14  C   UNL     1      11.271  15.467  18.218  0.00  0.00    +0.000 A 
ATOM     15  C   UNL     1      11.168  14.162  17.783  0.00  0.00    +0.000 A 
ATOM     16  C   UNL     1      12.006  13.460  16.777  0.00  0.00    +0.000 C 
ATOM     17  N   UNL     1      10.034  13.639  18.399  0.00  0.00    +0.000 N 
ATOM     18  N   UNL     1       9.385  14.590  19.117  0.00  0.00    +0.000 NA
ENDBRANCH   5  17
ENDBRANCH   1   8
BRANCH   3  19
ATOM     19  C   UNL     1       6.468   6.852  17.129  0.00  0.00    +0.000 A 
ATOM     20  C   UNL     1       6.835   5.803  16.263  0.00  0.00    +0.000 A 
ATOM     21  N   UNL     1       5.998   4.767  16.332  0.00  0.00    +0.000 NA
ATOM     22  N   UNL     1       5.052   5.152  17.225  0.00  0.00    +0.000 N 
ATOM     23  C   UNL     1       5.334   6.396  17.751  0.00  0.00    +0.000 A 
BRANCH  22  24
ATOM     24  C   UNL     1       3.924   4.328  17.500  0.00  0.00    +0.000 A 
ATOM     25  C   UNL     1       2.679   4.917  17.763  0.00  0.00    +0.000 A 
ATOM     26  C   UNL     1       1.574   4.117  18.067  0.00  0.00    +0.000 A 
ATOM     27  C   UNL     1       1.708   2.730  18.115  0.00  0.00    +0.000 A 
ATOM     28  C   UNL     1       2.942   2.140  17.851  0.00  0.00    +0.000 A 
ATOM     29  C   UNL     1       4.048   2.931  17.540  0.00  0.00    +0.000 A 
ENDBRANCH  22  24
ENDBRANCH   3  19
TORSDOF 4
ENDMDL
MODEL 4
REMARK VINA RESULT:      -8.4      1.172      1.929
REMARK  Name = 
REMARK  6 active torsions:
REMARK  status: ('A' for Active; 'I' for Inactive)
REMARK    1  A    between atoms: C_1  and  C_2
REMARK    2  A    between atoms: C_4  and  C_5
REMARK    3  A    between atoms: N_6  and  C_7
REMARK    4  A    between atoms: C_10  and  C_11
REMARK    5  A    between atoms: N_13  and  C_14
REMARK    6  A    between atoms: N_17  and  C_18
REMARK                            x       y       z     vdW  Elec       q    Type
REMARK                         _______ _______ _______ _____ _____    ______ ____
ROOT
ATOM      1  C   UNL     1       8.047   8.255  18.289  0.00  0.00    +0.000 C 
ATOM      2  O   UNL     1       8.580   7.355  18.926  0.00  0.00    +0.000 OA
ATOM      3  N   UNL     1       6.997   8.102  17.407  0.00  0.00    +0.000 N 
ATOM      4  H   UNL     1       6.666   8.888  16.864  0.00  0.00    +0.000 HD
ENDROOT
BRANCH   1   8
ATOM      5  C   UNL     1       9.569  12.262  18.519  0.00  0.00    +0.000 A 
ATOM      6  C   UNL     1       8.600  11.899  17.576  0.00  0.00    +0.000 A 
ATOM      7  C   UNL     1       8.113  10.593  17.534  0.00  0.00    +0.000 A 
ATOM      8  C   UNL     1       8.595   9.628  18.424  0.00  0.00    +0.000 A 
ATOM      9  C   UNL     1       9.581   9.971  19.351  0.00  0.00    +0.000 A 
ATOM     10  C   UNL     1      10.068  11.283  19.386  0.00  0.00    +0.000 A 
ATOM     11  F   UNL     1      10.981  11.568  20.324  0.00  0.00    +0.000 F 
BRANCH   5  17
ATOM     12  C   UNL     1      12.204  16.063  17.164  0.00  0.00    +0.000 C 
ATOM     13  C   UNL     1      11.205  15.289  17.940  0.00  0.00    +0.000 A 
ATOM     14  C   UNL     1      10.310  15.766  18.912  0.00  0.00    +0.000 A 
ATOM     15  C   UNL     1       9.598  14.662  19.331  0.00  0.00    +0.000 A 
ATOM     16  C   UNL     1       8.616  14.570  20.443  0.00  0.00    +0.000 C 
ATOM     17  N   UNL     1      10.060  13.592  18.568  0.00  0.00    +0.000 N 
ATOM     18  N   UNL     1      11.087  13.972  17.768  0.00  0.00    +0.000 NA
ENDBRANCH   5  17
ENDBRANCH   1   8
BRANCH   3  19
ATOM     19  C   UNL     1       6.425   6.873  17.134  0.00  0.00    +0.000 A 
ATOM     20  C   UNL     1       6.760   5.865  16.209  0.00  0.00    +0.000 A 
ATOM     21  N   UNL     1       5.926   4.825  16.262  0.00  0.00    +0.000 NA
ATOM     22  N   UNL     1       5.014   5.168  17.207  0.00  0.00    +0.000 N 
ATOM     23  C   UNL     1       5.315   6.387  17.778  0.00  0.00    +0.000 A 
BRANCH  22  24
ATOM     24  C   UNL     1       3.898   4.329  17.486  0.00  0.00    +0.000 A 
ATOM     25  C   UNL     1       2.649   4.903  17.765  0.00  0.00    +0.000 A 
ATOM     26  C   UNL     1       1.556   4.089  18.074  0.00  0.00    +0.000 A 
ATOM     27  C   UNL     1       1.705   2.704  18.110  0.00  0.00    +0.000 A 
ATOM     28  C   UNL     1       2.943   2.128  17.830  0.00  0.00    +0.000 A 
ATOM     29  C   UNL     1       4.037   2.934  17.515  0.00  0.00    +0.000 A 
ENDBRANCH  22  24
ENDBRANCH   3  19
TORSDOF 4
ENDMDL
MODEL 5
REMARK VINA RESULT:      -8.2      6.595      9.905
REMARK  Name = 
REMARK  6 active torsions:
REMARK  status: ('A' for Active; 'I' for Inactive)
REMARK    1  A    between atoms: C_1  and  C_2
REMARK    2  A    between atoms: C_4  and  C_5
REMARK    3  A    between atoms: N_6  and  C_7
REMARK    4  A    between atoms: C_10  and  C_11
REMARK    5  A    between atoms: N_13  and  C_14
REMARK    6  A    between atoms: N_17  and  C_18
REMARK                            x       y       z     vdW  Elec       q    Type
REMARK                         _______ _______ _______ _____ _____    ______ ____
ROOT
ATOM      1  C   UNL     1       1.799   7.158  20.493  0.00  0.00    +0.000 C 
ATOM      2  O   UNL     1       0.953   6.446  21.023  0.00  0.00    +0.000 OA
ATOM      3  N   UNL     1       1.923   8.521  20.666  0.00  0.00    +0.000 N 
ATOM      4  H   UNL     1       2.603   9.045  20.130  0.00  0.00    +0.000 HD
ENDROOT
BRANCH   1   8
ATOM      5  C   UNL     1       4.494   5.452  17.621  0.00  0.00    +0.000 A 
ATOM      6  C   UNL     1       3.944   6.728  17.444  0.00  0.00    +0.000 A 
ATOM      7  C   UNL     1       3.082   7.262  18.401  0.00  0.00    +0.000 A 
ATOM      8  C   UNL     1       2.748   6.528  19.542  0.00  0.00    +0.000 A 
ATOM      9  C   UNL     1       3.268   5.244  19.717  0.00  0.00    +0.000 A 
ATOM     10  C   UNL     1       4.130   4.711  18.752  0.00  0.00    +0.000 A 
ATOM     11  F   UNL     1       4.634   3.494  18.991  0.00  0.00    +0.000 F 
BRANCH   5  17
ATOM     12  C   UNL     1       5.827   3.692  13.338  0.00  0.00    +0.000 C 
ATOM     13  C   UNL     1       5.973   4.162  14.735  0.00  0.00    +0.000 A 
ATOM     14  C   UNL     1       7.159   4.339  15.467  0.00  0.00    +0.000 A 
ATOM     15  C   UNL     1       6.764   4.793  16.708  0.00  0.00    +0.000 A 
ATOM     16  C   UNL     1       7.601   5.012  17.916  0.00  0.00    +0.000 C 
ATOM     17  N   UNL     1       5.377   4.910  16.652  0.00  0.00    +0.000 N 
ATOM     18  N   UNL     1       4.897   4.460  15.466  0.00  0.00    +0.000 NA
ENDBRANCH   5  17
ENDBRANCH   1   8
BRANCH   3  19
ATOM     19  C   UNL     1       1.072   9.252  21.474  0.00  0.00    +0.000 A 
ATOM     20  C   UNL     1       0.851   9.234  22.865  0.00  0.00    +0.000 A 
ATOM     21  N   UNL     1      -0.085  10.107  23.245  0.00  0.00    +0.000 NA
ATOM     22  N   UNL     1      -0.508  10.677  22.088  0.00  0.00    +0.000 N 
ATOM     23  C   UNL     1       0.203  10.204  21.004  0.00  0.00    +0.000 A 
BRANCH  22  24
ATOM     24  C   UNL     1      -1.581  11.612  22.083  0.00  0.00    +0.000 A 
ATOM     25  C   UNL     1      -2.316  11.834  23.256  0.00  0.00    +0.000 A 
ATOM     26  C   UNL     1      -3.393  12.725  23.252  0.00  0.00    +0.000 A 
ATOM     27  C   UNL     1      -3.743  13.392  22.080  0.00  0.00    +0.000 A 
ATOM     28  C   UNL     1      -3.014  13.178  20.912  0.00  0.00    +0.000 A 
ATOM     29  C   UNL     1      -1.934  12.295  20.910  0.00  0.00    +0.000 A 
ENDBRANCH  22  24
ENDBRANCH   3  19
TORSDOF 4
ENDMDL
MODEL 6
REMARK VINA RESULT:      -8.0      7.359      9.253
REMARK  Name = 
REMARK  6 active torsions:
REMARK  status: ('A' for Active; 'I' for Inactive)
REMARK    1  A    between atoms: C_1  and  C_2
REMARK    2  A    between atoms: C_4  and  C_5
REMARK    3  A    between atoms: N_6  and  C_7
REMARK    4  A    between atoms: C_10  and  C_11
REMARK    5  A    between atoms: N_13  and  C_14
REMARK    6  A    between atoms: N_17  and  C_18
REMARK                            x       y       z     vdW  Elec       q    Type
REMARK                         _______ _______ _______ _____ _____    ______ ____
ROOT
ATOM      1  C   UNL     1       1.439   8.452  19.907  0.00  0.00    +0.000 C 
ATOM      2  O   UNL     1       1.732   8.679  18.739  0.00  0.00    +0.000 OA
ATOM      3  N   UNL     1       1.790   7.323  20.618  0.00  0.00    +0.000 N 
ATOM      4  H   UNL     1       1.441   7.180  21.556  0.00  0.00    +0.000 HD
ENDROOT
BRANCH   1   8
ATOM      5  C   UNL     1      -1.017  11.198  22.109  0.00  0.00    +0.000 A 
ATOM      6  C   UNL     1      -0.315  10.167  22.747  0.00  0.00    +0.000 A 
ATOM      7  C   UNL     1       0.486   9.299  22.007  0.00  0.00    +0.000 A 
ATOM      8  C   UNL     1       0.591   9.438  20.620  0.00  0.00    +0.000 A 
ATOM      9  C   UNL     1      -0.126  10.445  19.970  0.00  0.00    +0.000 A 
ATOM     10  C   UNL     1      -0.932  11.312  20.717  0.00  0.00    +0.000 A 
ATOM     11  F   UNL     1      -1.562  12.286  20.048  0.00  0.00    +0.000 F 
BRANCH   5  17
ATOM     12  C   UNL     1      -4.700  12.534  24.915  0.00  0.00    +0.000 C 
ATOM     13  C   UNL     1      -3.445  12.669  24.139  0.00  0.00    +0.000 A 
ATOM     14  C   UNL     1      -2.590  13.781  24.067  0.00  0.00    +0.000 A 
ATOM     15  C   UNL     1      -1.568  13.408  23.220  0.00  0.00    +0.000 A 
ATOM     16  C   UNL     1      -0.464  14.247  22.686  0.00  0.00    +0.000 C 
ATOM     17  N   UNL     1      -1.827  12.087  22.861  0.00  0.00    +0.000 N 
ATOM     18  N   UNL     1      -3.010  11.665  23.374  0.00  0.00    +0.000 NA
ENDBRANCH   5  17
ENDBRANCH   1   8
BRANCH   3  19
ATOM     19  C   UNL     1       2.527   6.292  20.064  0.00  0.00    +0.000 A 
ATOM     20  C   UNL     1       2.582   4.915  20.357  0.00  0.00    +0.000 A 
ATOM     21  N   UNL     1       3.450   4.262  19.581  0.00  0.00    +0.000 NA
ATOM     22  N   UNL     1       3.996   5.226  18.796  0.00  0.00    +0.000 N 
ATOM     23  C   UNL     1       3.426   6.458  19.042  0.00  0.00    +0.000 A 
BRANCH  22  24
ATOM     24  C   UNL     1       5.044   4.920  17.883  0.00  0.00    +0.000 A 
ATOM     25  C   UNL     1       4.733   4.525  16.573  0.00  0.00    +0.000 A 
ATOM     26  C   UNL     1       5.754   4.189  15.680  0.00  0.00    +0.000 A 
ATOM     27  C   UNL     1       7.085   4.241  16.090  0.00  0.00    +0.000 A 
ATOM     28  C   UNL     1       7.400   4.636  17.389  0.00  0.00    +0.000 A 
ATOM     29  C   UNL     1       6.387   4.978  18.284  0.00  0.00    +0.000 A 
ENDBRANCH  22  24
ENDBRANCH   3  19
TORSDOF 4
ENDMDL
MODEL 7
REMARK VINA RESULT:      -7.9      7.176      9.139
REMARK  Name = 
REMARK  6 active torsions:
REMARK  status: ('A' for Active; 'I' for Inactive)
REMARK    1  A    between atoms: C_1  and  C_2
REMARK    2  A    between atoms: C_4  and  C_5
REMARK    3  A    between atoms: N_6  and  C_7
REMARK    4  A    between atoms: C_10  and  C_11
REMARK    5  A    between atoms: N_13  and  C_14
REMARK    6  A    between atoms: N_17  and  C_18
REMARK                            x       y       z     vdW  Elec       q    Type
REMARK                         _______ _______ _______ _____ _____    ______ ____
ROOT
ATOM      1  C   UNL     1       1.608   8.228  19.693  0.00  0.00    +0.000 C 
ATOM      2  O   UNL     1       1.738   8.472  18.499  0.00  0.00    +0.000 OA
ATOM      3  N   UNL     1       2.127   7.132  20.350  0.00  0.00    +0.000 N 
ATOM      4  H   UNL     1       1.907   6.966  21.323  0.00  0.00    +0.000 HD
ENDROOT
BRANCH   1   8
ATOM      5  C   UNL     1      -0.776  11.014  21.925  0.00  0.00    +0.000 A 
ATOM      6  C   UNL     1      -0.599  11.143  20.542  0.00  0.00    +0.000 A 
ATOM      7  C   UNL     1       0.169  10.214  19.841  0.00  0.00    +0.000 A 
ATOM      8  C   UNL     1       0.781   9.151  20.510  0.00  0.00    +0.000 A 
ATOM      9  C   UNL     1       0.635   9.027  21.893  0.00  0.00    +0.000 A 
ATOM     10  C   UNL     1      -0.134   9.964  22.592  0.00  0.00    +0.000 A 
ATOM     11  F   UNL     1      -0.277   9.772  23.910  0.00  0.00    +0.000 F 
BRANCH   5  17
ATOM     12  C   UNL     1      -4.406  12.553  24.695  0.00  0.00    +0.000 C 
ATOM     13  C   UNL     1      -3.157  12.627  23.901  0.00  0.00    +0.000 A 
ATOM     14  C   UNL     1      -2.285  13.720  23.764  0.00  0.00    +0.000 A 
ATOM     15  C   UNL     1      -1.278  13.286  22.928  0.00  0.00    +0.000 A 
ATOM     16  C   UNL     1      -0.165  14.078  22.341  0.00  0.00    +0.000 C 
ATOM     17  N   UNL     1      -1.563  11.953  22.639  0.00  0.00    +0.000 N 
ATOM     18  N   UNL     1      -2.747  11.579  23.184  0.00  0.00    +0.000 NA
ENDBRANCH   5  17
ENDBRANCH   1   8
BRANCH   3  19
ATOM     19  C   UNL     1       2.866   6.156  19.705  0.00  0.00    +0.000 A 
ATOM     20  C   UNL     1       3.079   4.794  19.995  0.00  0.00    +0.000 A 
ATOM     21  N   UNL     1       3.885   4.204  19.109  0.00  0.00    +0.000 NA
ATOM     22  N   UNL     1       4.232   5.196  18.251  0.00  0.00    +0.000 N 
ATOM     23  C   UNL     1       3.599   6.380  18.567  0.00  0.00    +0.000 A 
BRANCH  22  24
ATOM     24  C   UNL     1       5.167   4.963  17.203  0.00  0.00    +0.000 A 
ATOM     25  C   UNL     1       6.414   5.606  17.228  0.00  0.00    +0.000 A 
ATOM     26  C   UNL     1       7.325   5.410  16.186  0.00  0.00    +0.000 A 
ATOM     27  C   UNL     1       6.995   4.580  15.116  0.00  0.00    +0.000 A 
ATOM     28  C   UNL     1       5.759   3.937  15.089  0.00  0.00    +0.000 A 
ATOM     29  C   UNL     1       4.847   4.122  16.128  0.00  0.00    +0.000 A 
ENDBRANCH  22  24
ENDBRANCH   3  19
TORSDOF 4
ENDMDL
MODEL 8
REMARK VINA RESULT:      -7.9      1.356      1.373
REMARK  Name = 
REMARK  6 active torsions:
REMARK  status: ('A' for Active; 'I' for Inactive)
REMARK    1  A    between atoms: C_1  and  C_2
REMARK    2  A    between atoms: C_4  and  C_5
REMARK    3  A    between atoms: N_6  and  C_7
REMARK    4  A    between atoms: C_10  and  C_11
REMARK    5  A    between atoms: N_13  and  C_14
REMARK    6  A    between atoms: N_17  and  C_18
REMARK                            x       y       z     vdW  Elec       q    Type
REMARK                         _______ _______ _______ _____ _____    ______ ____
ROOT
ATOM      1  C   UNL     1       7.824   8.392  17.855  0.00  0.00    +0.000 C 
ATOM      2  O   UNL     1       7.155   8.363  16.829  0.00  0.00    +0.000 OA
ATOM      3  N   UNL     1       7.987   7.344  18.737  0.00  0.00    +0.000 N 
ATOM      4  H   UNL     1       8.495   7.477  19.601  0.00  0.00    +0.000 HD
ENDROOT
BRANCH   1   8
ATOM      5  C   UNL     1       9.754  12.022  19.089  0.00  0.00    +0.000 A 
ATOM      6  C   UNL     1       9.907  10.829  19.806  0.00  0.00    +0.000 A 
ATOM      7  C   UNL     1       9.279   9.662  19.374  0.00  0.00    +0.000 A 
ATOM      8  C   UNL     1       8.481   9.670  18.226  0.00  0.00    +0.000 A 
ATOM      9  C   UNL     1       8.299  10.859  17.517  0.00  0.00    +0.000 A 
ATOM     10  C   UNL     1       8.928  12.028  17.958  0.00  0.00    +0.000 A 
ATOM     11  F   UNL     1       8.755  13.130  17.216  0.00  0.00    +0.000 F 
BRANCH   5  17
ATOM     12  C   UNL     1      10.563  15.841  21.915  0.00  0.00    +0.000 C 
ATOM     13  C   UNL     1      10.777  14.885  20.803  0.00  0.00    +0.000 A 
ATOM     14  C   UNL     1      11.857  14.831  19.906  0.00  0.00    +0.000 A 
ATOM     15  C   UNL     1      11.590  13.768  19.069  0.00  0.00    +0.000 A 
ATOM     16  C   UNL     1      12.333  13.347  17.853  0.00  0.00    +0.000 C 
ATOM     17  N   UNL     1      10.398  13.209  19.523  0.00  0.00    +0.000 N 
ATOM     18  N   UNL     1       9.875  13.937  20.541  0.00  0.00    +0.000 NA
ENDBRANCH   5  17
ENDBRANCH   1   8
BRANCH   3  19
ATOM     19  C   UNL     1       7.385   6.113  18.553  0.00  0.00    +0.000 A 
ATOM     20  C   UNL     1       7.899   4.868  18.142  0.00  0.00    +0.000 A 
ATOM     21  N   UNL     1       6.959   3.922  18.081  0.00  0.00    +0.000 NA
ATOM     22  N   UNL     1       5.811   4.560  18.422  0.00  0.00    +0.000 N 
ATOM     23  C   UNL     1       6.048   5.880  18.749  0.00  0.00    +0.000 A 
BRANCH  22  24
ATOM     24  C   UNL     1       4.559   3.885  18.385  0.00  0.00    +0.000 A 
ATOM     25  C   UNL     1       3.531   4.368  17.562  0.00  0.00    +0.000 A 
ATOM     26  C   UNL     1       2.287   3.732  17.545  0.00  0.00    +0.000 A 
ATOM     27  C   UNL     1       2.063   2.616  18.350  0.00  0.00    +0.000 A 
ATOM     28  C   UNL     1       3.081   2.129  19.167  0.00  0.00    +0.000 A 
ATOM     29  C   UNL     1       4.328   2.756  19.184  0.00  0.00    +0.000 A 
ENDBRANCH  22  24
ENDBRANCH   3  19
TORSDOF 4
ENDMDL
MODEL 9
REMARK VINA RESULT:      -7.8      6.414      9.776
REMARK  Name = 
REMARK  6 active torsions:
REMARK  status: ('A' for Active; 'I' for Inactive)
REMARK    1  A    between atoms: C_1  and  C_2
REMARK    2  A    between atoms: C_4  and  C_5
REMARK    3  A    between atoms: N_6  and  C_7
REMARK    4  A    between atoms: C_10  and  C_11
REMARK    5  A    between atoms: N_13  and  C_14
REMARK    6  A    between atoms: N_17  and  C_18
REMARK                            x       y       z     vdW  Elec       q    Type
REMARK                         _______ _______ _______ _____ _____    ______ ____
ROOT
ATOM      1  C   UNL     1       1.899   7.307  20.251  0.00  0.00    +0.000 C 
ATOM      2  O   UNL     1       1.250   6.539  20.951  0.00  0.00    +0.000 OA
ATOM      3  N   UNL     1       1.851   8.684  20.313  0.00  0.00    +0.000 N 
ATOM      4  H   UNL     1       2.363   9.245  19.645  0.00  0.00    +0.000 HD
ENDROOT
BRANCH   1   8
ATOM      5  C   UNL     1       4.494   5.507  17.345  0.00  0.00    +0.000 A 
ATOM      6  C   UNL     1       4.075   4.811  18.485  0.00  0.00    +0.000 A 
ATOM      7  C   UNL     1       3.220   5.416  19.404  0.00  0.00    +0.000 A 
ATOM      8  C   UNL     1       2.780   6.728  19.207  0.00  0.00    +0.000 A 
ATOM      9  C   UNL     1       3.213   7.442  18.087  0.00  0.00    +0.000 A 
ATOM     10  C   UNL     1       4.075   6.831  17.170  0.00  0.00    +0.000 A 
ATOM     11  F   UNL     1       4.423   7.546  16.092  0.00  0.00    +0.000 F 
BRANCH   5  17
ATOM     12  C   UNL     1       5.802   3.610  13.112  0.00  0.00    +0.000 C 
ATOM     13  C   UNL     1       5.946   4.081  14.509  0.00  0.00    +0.000 A 
ATOM     14  C   UNL     1       7.123   4.174  15.271  0.00  0.00    +0.000 A 
ATOM     15  C   UNL     1       6.731   4.668  16.498  0.00  0.00    +0.000 A 
ATOM     16  C   UNL     1       7.550   4.834  17.726  0.00  0.00    +0.000 C 
ATOM     17  N   UNL     1       5.358   4.890  16.404  0.00  0.00    +0.000 N 
ATOM     18  N   UNL     1       4.877   4.467  15.208  0.00  0.00    +0.000 NA
ENDBRANCH   5  17
ENDBRANCH   1   8
BRANCH   3  19
ATOM     19  C   UNL     1       1.030   9.364  21.194  0.00  0.00    +0.000 A 
ATOM     20  C   UNL     1       0.888   9.288  22.594  0.00  0.00    +0.000 A 
ATOM     21  N   UNL     1      -0.045  10.123  23.058  0.00  0.00    +0.000 NA
ATOM     22  N   UNL     1      -0.544  10.726  21.950  0.00  0.00    +0.000 N 
ATOM     23  C   UNL     1       0.115  10.311  20.811  0.00  0.00    +0.000 A 
BRANCH  22  24
ATOM     24  C   UNL     1      -1.636  11.634  22.040  0.00  0.00    +0.000 A 
ATOM     25  C   UNL     1      -2.270  11.840  23.274  0.00  0.00    +0.000 A 
ATOM     26  C   UNL     1      -3.365  12.704  23.366  0.00  0.00    +0.000 A 
ATOM     27  C   UNL     1      -3.833  13.360  22.229  0.00  0.00    +0.000 A 
ATOM     28  C   UNL     1      -3.206  13.162  21.001  0.00  0.00    +0.000 A 
ATOM     29  C   UNL     1      -2.109  12.306  20.903  0.00  0.00    +0.000 A 
ENDBRANCH  22  24
ENDBRANCH   3  19
TORSDOF 4
ENDMDL
