MODEL 1
REMARK VINA RESULT:      -8.7      0.000      0.000
REMARK  Name = 
REMARK  2 active torsions:
REMARK  status: ('A' for Active; 'I' for Inactive)
REMARK    1  A    between atoms: C_2  and  C_18
REMARK    2  A    between atoms: C_6  and  C_7
REMARK                            x       y       z     vdW  Elec       q    Type
REMARK                         _______ _______ _______ _____ _____    ______ ____
ROOT
ATOM      1  O   UNL     1       0.725  10.402  22.048  0.00  0.00    +0.000 OA
ATOM      2  C   UNL     1       0.682  11.105  21.038  0.00  0.00    +0.000 C 
ATOM      3  N   UNL     1       1.067  10.734  19.773  0.00  0.00    +0.000 N 
ATOM      4  C   UNL     1       1.509   9.495  19.423  0.00  0.00    +0.000 A 
ATOM      5  N   UNL     1       1.518   8.385  20.108  0.00  0.00    +0.000 NA
ATOM      6  C   UNL     1       2.005   7.361  19.316  0.00  0.00    +0.000 A 
ATOM      7  C   UNL     1       2.424   7.748  18.057  0.00  0.00    +0.000 A 
ATOM      8  S   UNL     1       2.102   9.416  17.824  0.00  0.00    +0.000 S 
ATOM      9  H   UNL     1       1.027  11.411  19.019  0.00  0.00    +0.000 HD
ENDROOT
BRANCH   2  10
ATOM     10  C   UNL     1       0.079  12.520  21.118  0.00  0.00    +0.000 C 
ATOM     11  C   UNL     1      -0.703  12.701  22.428  0.00  0.00    +0.000 C 
ATOM     12  C   UNL     1      -2.041  11.965  22.404  0.00  0.00    +0.000 C 
ATOM     13  C   UNL     1      -2.867  12.350  21.174  0.00  0.00    +0.000 C 
ATOM     14  N   UNL     1      -2.056  12.131  19.976  0.00  0.00    +0.000 N 
ATOM     15  C   UNL     1      -2.734  11.899  18.789  0.00  0.00    +0.000 A 
ATOM     16  N   UNL     1      -4.048  11.635  18.823  0.00  0.00    +0.000 NA
ATOM     17  C   UNL     1      -4.642  11.234  17.683  0.00  0.00    +0.000 A 
ATOM     18  C   UNL     1      -3.973  11.080  16.498  0.00  0.00    +0.000 A 
ATOM     19  C   UNL     1      -2.636  11.372  16.549  0.00  0.00    +0.000 A 
ATOM     20  N   UNL     1      -2.004  11.773  17.669  0.00  0.00    +0.000 NA
ATOM     21  C   UNL     1      -0.794  12.883  19.905  0.00  0.00    +0.000 C 
ENDBRANCH   2  10
BRANCH   6  22
ATOM     22  C   UNL     1       2.017   5.990  19.840  0.00  0.00    +0.000 A 
ATOM     23  C   UNL     1       1.914   5.612  21.163  0.00  0.00    +0.000 A 
ATOM     24  N   UNL     1       1.998   4.247  21.218  0.00  0.00    +0.000 N 
ATOM     25  C   UNL     1       2.165   3.725  19.956  0.00  0.00    +0.000 A 
ATOM     26  C   UNL     1       2.309   2.394  19.546  0.00  0.00    +0.000 A 
ATOM     27  C   UNL     1       2.473   2.147  18.179  0.00  0.00    +0.000 A 
ATOM     28  C   UNL     1       2.491   3.193  17.262  0.00  0.00    +0.000 A 
ATOM     29  C   UNL     1       2.344   4.516  17.688  0.00  0.00    +0.000 A 
ATOM     30  C   UNL     1       2.177   4.800  19.062  0.00  0.00    +0.000 A 
ATOM     31  H   UNL     1       1.955   3.692  22.062  0.00  0.00    +0.000 HD
ENDBRANCH   6  22
TORSDOF 2
ENDMDL
MODEL 2
REMARK VINA RESULT:      -8.7      3.100      8.932
REMARK  Name = 
REMARK  2 active torsions:
REMARK  status: ('A' for Active; 'I' for Inactive)
REMARK    1  A    between atoms: C_2  and  C_18
REMARK    2  A    between atoms: C_6  and  C_7
REMARK                            x       y       z     vdW  Elec       q    Type
REMARK                         _______ _______ _______ _____ _____    ______ ____
ROOT
ATOM      1  O   UNL     1       1.087   4.723  19.637  0.00  0.00    +0.000 OA
ATOM      2  C   UNL     1       1.866   4.963  18.715  0.00  0.00    +0.000 C 
ATOM      3  N   UNL     1       2.231   6.206  18.261  0.00  0.00    +0.000 N 
ATOM      4  C   UNL     1       1.824   7.386  18.804  0.00  0.00    +0.000 A 
ATOM      5  N   UNL     1       1.174   7.618  19.911  0.00  0.00    +0.000 NA
ATOM      6  C   UNL     1       1.039   8.983  20.086  0.00  0.00    +0.000 A 
ATOM      7  C   UNL     1       1.537   9.755  19.053  0.00  0.00    +0.000 A 
ATOM      8  S   UNL     1       2.285   8.748  17.884  0.00  0.00    +0.000 S 
ATOM      9  H   UNL     1       2.852   6.285  17.462  0.00  0.00    +0.000 HD
ENDROOT
BRANCH   2  10
ATOM     10  C   UNL     1       2.595   3.802  18.012  0.00  0.00    +0.000 C 
ATOM     11  C   UNL     1       2.687   2.581  18.939  0.00  0.00    +0.000 C 
ATOM     12  C   UNL     1       3.729   2.772  20.039  0.00  0.00    +0.000 C 
ATOM     13  C   UNL     1       5.088   3.165  19.457  0.00  0.00    +0.000 C 
ATOM     14  N   UNL     1       4.912   4.342  18.605  0.00  0.00    +0.000 N 
ATOM     15  C   UNL     1       6.018   5.159  18.422  0.00  0.00    +0.000 A 
ATOM     16  N   UNL     1       7.093   4.996  19.206  0.00  0.00    +0.000 NA
ATOM     17  C   UNL     1       8.074   5.915  19.132  0.00  0.00    +0.000 A 
ATOM     18  C   UNL     1       8.026   7.005  18.304  0.00  0.00    +0.000 A 
ATOM     19  C   UNL     1       6.895   7.095  17.536  0.00  0.00    +0.000 A 
ATOM     20  N   UNL     1       5.891   6.198  17.582  0.00  0.00    +0.000 NA
ATOM     21  C   UNL     1       3.984   4.186  17.474  0.00  0.00    +0.000 C 
ENDBRANCH   2  10
BRANCH   6  22
ATOM     22  C   UNL     1       0.425   9.493  21.318  0.00  0.00    +0.000 A 
ATOM     23  C   UNL     1       0.615   9.007  22.596  0.00  0.00    +0.000 A 
ATOM     24  N   UNL     1      -0.163   9.746  23.446  0.00  0.00    +0.000 N 
ATOM     25  C   UNL     1      -0.868  10.698  22.747  0.00  0.00    +0.000 A 
ATOM     26  C   UNL     1      -1.785  11.653  23.204  0.00  0.00    +0.000 A 
ATOM     27  C   UNL     1      -2.366  12.503  22.258  0.00  0.00    +0.000 A 
ATOM     28  C   UNL     1      -2.039  12.400  20.910  0.00  0.00    +0.000 A 
ATOM     29  C   UNL     1      -1.120  11.443  20.470  0.00  0.00    +0.000 A 
ATOM     30  C   UNL     1      -0.516  10.568  21.400  0.00  0.00    +0.000 A 
ATOM     31  H   UNL     1      -0.226   9.610  24.446  0.00  0.00    +0.000 HD
ENDBRANCH   6  22
TORSDOF 2
ENDMDL
MODEL 3
REMARK VINA RESULT:      -8.4      2.456      3.069
REMARK  Name = 
REMARK  2 active torsions:
REMARK  status: ('A' for Active; 'I' for Inactive)
REMARK    1  A    between atoms: C_2  and  C_18
REMARK    2  A    between atoms: C_6  and  C_7
REMARK                            x       y       z     vdW  Elec       q    Type
REMARK                         _______ _______ _______ _____ _____    ______ ____
ROOT
ATOM      1  O   UNL     1       1.723   9.925  17.455  0.00  0.00    +0.000 OA
ATOM      2  C   UNL     1       1.465  10.177  18.631  0.00  0.00    +0.000 C 
ATOM      3  N   UNL     1       1.467   9.283  19.674  0.00  0.00    +0.000 N 
ATOM      4  C   UNL     1       1.812   7.971  19.575  0.00  0.00    +0.000 A 
ATOM      5  N   UNL     1       2.353   7.319  18.583  0.00  0.00    +0.000 NA
ATOM      6  C   UNL     1       2.584   6.010  18.966  0.00  0.00    +0.000 A 
ATOM      7  C   UNL     1       2.140   5.686  20.234  0.00  0.00    +0.000 A 
ATOM      8  S   UNL     1       1.511   7.084  21.003  0.00  0.00    +0.000 S 
ATOM      9  H   UNL     1       1.196   9.595  20.601  0.00  0.00    +0.000 HD
ENDROOT
BRANCH   2  10
ATOM     10  C   UNL     1       1.180  11.631  19.055  0.00  0.00    +0.000 C 
ATOM     11  C   UNL     1       1.083  11.739  20.584  0.00  0.00    +0.000 C 
ATOM     12  C   UNL     1      -0.227  11.165  21.118  0.00  0.00    +0.000 C 
ATOM     13  C   UNL     1      -1.435  11.784  20.413  0.00  0.00    +0.000 C 
ATOM     14  N   UNL     1      -1.270  11.622  18.967  0.00  0.00    +0.000 N 
ATOM     15  C   UNL     1      -2.423  11.611  18.198  0.00  0.00    +0.000 A 
ATOM     16  N   UNL     1      -3.615  11.493  18.801  0.00  0.00    +0.000 NA
ATOM     17  C   UNL     1      -4.699  11.300  18.025  0.00  0.00    +0.000 A 
ATOM     18  C   UNL     1      -4.644  11.216  16.659  0.00  0.00    +0.000 A 
ATOM     19  C   UNL     1      -3.390  11.349  16.123  0.00  0.00    +0.000 A 
ATOM     20  N   UNL     1      -2.281  11.540  16.865  0.00  0.00    +0.000 NA
ATOM     21  C   UNL     1      -0.065  12.232  18.384  0.00  0.00    +0.000 C 
ENDBRANCH   2  10
BRANCH   6  22
ATOM     22  C   UNL     1       3.281   5.105  18.044  0.00  0.00    +0.000 A 
ATOM     23  C   UNL     1       2.829   3.882  17.591  0.00  0.00    +0.000 A 
ATOM     24  N   UNL     1       3.793   3.353  16.775  0.00  0.00    +0.000 N 
ATOM     25  C   UNL     1       4.873   4.203  16.696  0.00  0.00    +0.000 A 
ATOM     26  C   UNL     1       6.077   4.062  15.994  0.00  0.00    +0.000 A 
ATOM     27  C   UNL     1       7.016   5.093  16.099  0.00  0.00    +0.000 A 
ATOM     28  C   UNL     1       6.757   6.218  16.874  0.00  0.00    +0.000 A 
ATOM     29  C   UNL     1       5.549   6.344  17.566  0.00  0.00    +0.000 A 
ATOM     30  C   UNL     1       4.579   5.320  17.482  0.00  0.00    +0.000 A 
ATOM     31  H   UNL     1       3.735   2.461  16.303  0.00  0.00    +0.000 HD
ENDBRANCH   6  22
TORSDOF 2
ENDMDL
MODEL 4
REMARK VINA RESULT:      -8.4      2.207      3.219
REMARK  Name = 
REMARK  2 active torsions:
REMARK  status: ('A' for Active; 'I' for Inactive)
REMARK    1  A    between atoms: C_2  and  C_18
REMARK    2  A    between atoms: C_6  and  C_7
REMARK                            x       y       z     vdW  Elec       q    Type
REMARK                         _______ _______ _______ _____ _____    ______ ____
ROOT
ATOM      1  O   UNL     1      -1.076  11.964  23.032  0.00  0.00    +0.000 OA
ATOM      2  C   UNL     1      -1.440  12.757  22.164  0.00  0.00    +0.000 C 
ATOM      3  N   UNL     1      -1.081  12.731  20.839  0.00  0.00    +0.000 N 
ATOM      4  C   UNL     1      -0.301  11.779  20.259  0.00  0.00    +0.000 A 
ATOM      5  N   UNL     1       0.130  10.645  20.738  0.00  0.00    +0.000 NA
ATOM      6  C   UNL     1       0.841   9.974  19.759  0.00  0.00    +0.000 A 
ATOM      7  C   UNL     1       0.989  10.665  18.571  0.00  0.00    +0.000 A 
ATOM      8  S   UNL     1       0.128  12.145  18.648  0.00  0.00    +0.000 S 
ATOM      9  H   UNL     1      -1.409  13.464  20.217  0.00  0.00    +0.000 HD
ENDROOT
BRANCH   2  10
ATOM     10  C   UNL     1      -2.455  13.861  22.516  0.00  0.00    +0.000 C 
ATOM     11  C   UNL     1      -2.885  13.751  23.986  0.00  0.00    +0.000 C 
ATOM     12  C   UNL     1      -3.843  12.584  24.218  0.00  0.00    +0.000 C 
ATOM     13  C   UNL     1      -5.037  12.645  23.264  0.00  0.00    +0.000 C 
ATOM     14  N   UNL     1      -4.538  12.730  21.890  0.00  0.00    +0.000 N 
ATOM     15  C   UNL     1      -5.375  12.269  20.886  0.00  0.00    +0.000 A 
ATOM     16  N   UNL     1      -6.460  11.551  21.212  0.00  0.00    +0.000 NA
ATOM     17  C   UNL     1      -7.150  10.962  20.216  0.00  0.00    +0.000 A 
ATOM     18  C   UNL     1      -6.798  11.057  18.896  0.00  0.00    +0.000 A 
ATOM     19  C   UNL     1      -5.680  11.810  18.650  0.00  0.00    +0.000 A 
ATOM     20  N   UNL     1      -4.962  12.412  19.617  0.00  0.00    +0.000 NA
ATOM     21  C   UNL     1      -3.680  13.886  21.587  0.00  0.00    +0.000 C 
ENDBRANCH   2  10
BRANCH   6  22
ATOM     22  C   UNL     1       1.342   8.622  20.033  0.00  0.00    +0.000 A 
ATOM     23  C   UNL     1       1.104   7.868  21.164  0.00  0.00    +0.000 A 
ATOM     24  N   UNL     1       1.779   6.684  21.030  0.00  0.00    +0.000 N 
ATOM     25  C   UNL     1       2.463   6.655  19.837  0.00  0.00    +0.000 A 
ATOM     26  C   UNL     1       3.287   5.658  19.298  0.00  0.00    +0.000 A 
ATOM     27  C   UNL     1       3.870   5.899  18.051  0.00  0.00    +0.000 A 
ATOM     28  C   UNL     1       3.636   7.091  17.371  0.00  0.00    +0.000 A 
ATOM     29  C   UNL     1       2.810   8.074  17.922  0.00  0.00    +0.000 A 
ATOM     30  C   UNL     1       2.205   7.862  19.181  0.00  0.00    +0.000 A 
ATOM     31  H   UNL     1       1.788   5.936  21.710  0.00  0.00    +0.000 HD
ENDBRANCH   6  22
TORSDOF 2
ENDMDL
MODEL 5
REMARK VINA RESULT:      -7.9      1.775      2.180
REMARK  Name = 
REMARK  2 active torsions:
REMARK  status: ('A' for Active; 'I' for Inactive)
REMARK    1  A    between atoms: C_2  and  C_18
REMARK    2  A    between atoms: C_6  and  C_7
REMARK                            x       y       z     vdW  Elec       q    Type
REMARK                         _______ _______ _______ _____ _____    ______ ____
ROOT
ATOM      1  O   UNL     1       1.876  10.395  17.598  0.00  0.00    +0.000 OA
ATOM      2  C   UNL     1       1.374  10.837  18.631  0.00  0.00    +0.000 C 
ATOM      3  N   UNL     1       1.110  10.125  19.776  0.00  0.00    +0.000 N 
ATOM      4  C   UNL     1       1.420   8.814  19.968  0.00  0.00    +0.000 A 
ATOM      5  N   UNL     1       2.142   8.008  19.239  0.00  0.00    +0.000 NA
ATOM      6  C   UNL     1       2.233   6.779  19.867  0.00  0.00    +0.000 A 
ATOM      7  C   UNL     1       1.507   6.667  21.038  0.00  0.00    +0.000 A 
ATOM      8  S   UNL     1       0.776   8.173  21.414  0.00  0.00    +0.000 S 
ATOM      9  H   UNL     1       0.654  10.584  20.557  0.00  0.00    +0.000 HD
ENDROOT
BRANCH   2  10
ATOM     10  C   UNL     1       1.057  12.340  18.744  0.00  0.00    +0.000 C 
ATOM     11  C   UNL     1       1.159  12.806  20.204  0.00  0.00    +0.000 C 
ATOM     12  C   UNL     1      -0.030  12.337  21.040  0.00  0.00    +0.000 C 
ATOM     13  C   UNL     1      -1.358  12.735  20.392  0.00  0.00    +0.000 C 
ATOM     14  N   UNL     1      -1.377  12.238  19.015  0.00  0.00    +0.000 N 
ATOM     15  C   UNL     1      -2.620  12.010  18.444  0.00  0.00    +0.000 A 
ATOM     16  N   UNL     1      -3.711  12.004  19.224  0.00  0.00    +0.000 NA
ATOM     17  C   UNL     1      -4.874  11.600  18.679  0.00  0.00    +0.000 A 
ATOM     18  C   UNL     1      -4.997  11.195  17.377  0.00  0.00    +0.000 A 
ATOM     19  C   UNL     1      -3.836  11.234  16.649  0.00  0.00    +0.000 A 
ATOM     20  N   UNL     1      -2.653  11.628  17.158  0.00  0.00    +0.000 NA
ATOM     21  C   UNL     1      -0.302  12.727  18.139  0.00  0.00    +0.000 C 
ENDBRANCH   2  10
BRANCH   6  22
ATOM     22  C   UNL     1       3.081   5.734  19.282  0.00  0.00    +0.000 A 
ATOM     23  C   UNL     1       4.422   5.839  18.970  0.00  0.00    +0.000 A 
ATOM     24  N   UNL     1       4.819   4.651  18.418  0.00  0.00    +0.000 N 
ATOM     25  C   UNL     1       3.761   3.774  18.354  0.00  0.00    +0.000 A 
ATOM     26  C   UNL     1       3.707   2.466  17.857  0.00  0.00    +0.000 A 
ATOM     27  C   UNL     1       2.479   1.798  17.910  0.00  0.00    +0.000 A 
ATOM     28  C   UNL     1       1.353   2.418  18.441  0.00  0.00    +0.000 A 
ATOM     29  C   UNL     1       1.424   3.724  18.935  0.00  0.00    +0.000 A 
ATOM     30  C   UNL     1       2.649   4.426  18.895  0.00  0.00    +0.000 A 
ATOM     31  H   UNL     1       5.753   4.441  18.092  0.00  0.00    +0.000 HD
ENDBRANCH   6  22
TORSDOF 2
ENDMDL
MODEL 6
REMARK VINA RESULT:      -7.8      3.577      5.058
REMARK  Name = 
REMARK  2 active torsions:
REMARK  status: ('A' for Active; 'I' for Inactive)
REMARK    1  A    between atoms: C_2  and  C_18
REMARK    2  A    between atoms: C_6  and  C_7
REMARK                            x       y       z     vdW  Elec       q    Type
REMARK                         _______ _______ _______ _____ _____    ______ ____
ROOT
ATOM      1  O   UNL     1       1.923   9.825  18.352  0.00  0.00    +0.000 OA
ATOM      2  C   UNL     1       1.334   9.289  19.291  0.00  0.00    +0.000 C 
ATOM      3  N   UNL     1       1.526   8.007  19.745  0.00  0.00    +0.000 N 
ATOM      4  C   UNL     1       2.449   7.135  19.255  0.00  0.00    +0.000 A 
ATOM      5  N   UNL     1       3.425   7.335  18.413  0.00  0.00    +0.000 NA
ATOM      6  C   UNL     1       4.145   6.164  18.260  0.00  0.00    +0.000 A 
ATOM      7  C   UNL     1       3.642   5.076  18.948  0.00  0.00    +0.000 A 
ATOM      8  S   UNL     1       2.294   5.559  19.892  0.00  0.00    +0.000 S 
ATOM      9  H   UNL     1       0.953   7.654  20.505  0.00  0.00    +0.000 HD
ENDROOT
BRANCH   2  10
ATOM     10  C   UNL     1       0.331  10.105  20.128  0.00  0.00    +0.000 C 
ATOM     11  C   UNL     1      -1.029  10.180  19.418  0.00  0.00    +0.000 C 
ATOM     12  C   UNL     1      -1.005  11.140  18.231  0.00  0.00    +0.000 C 
ATOM     13  C   UNL     1      -0.484  12.519  18.640  0.00  0.00    +0.000 C 
ATOM     14  N   UNL     1       0.818  12.357  19.289  0.00  0.00    +0.000 N 
ATOM     15  C   UNL     1       1.681  13.441  19.252  0.00  0.00    +0.000 A 
ATOM     16  N   UNL     1       1.412  14.468  18.433  0.00  0.00    +0.000 NA
ATOM     17  C   UNL     1       2.355  15.417  18.279  0.00  0.00    +0.000 A 
ATOM     18  C   UNL     1       3.569  15.383  18.912  0.00  0.00    +0.000 A 
ATOM     19  C   UNL     1       3.762  14.303  19.731  0.00  0.00    +0.000 A 
ATOM     20  N   UNL     1       2.846  13.332  19.910  0.00  0.00    +0.000 NA
ATOM     21  C   UNL     1       0.836  11.510  20.493  0.00  0.00    +0.000 C 
ENDBRANCH   2  10
BRANCH   6  22
ATOM     22  C   UNL     1       5.358   6.169  17.433  0.00  0.00    +0.000 A 
ATOM     23  C   UNL     1       6.486   6.940  17.628  0.00  0.00    +0.000 A 
ATOM     24  N   UNL     1       7.366   6.660  16.617  0.00  0.00    +0.000 N 
ATOM     25  C   UNL     1       6.830   5.729  15.758  0.00  0.00    +0.000 A 
ATOM     26  C   UNL     1       7.367   5.167  14.593  0.00  0.00    +0.000 A 
ATOM     27  C   UNL     1       6.589   4.234  13.901  0.00  0.00    +0.000 A 
ATOM     28  C   UNL     1       5.324   3.880  14.359  0.00  0.00    +0.000 A 
ATOM     29  C   UNL     1       4.803   4.449  15.525  0.00  0.00    +0.000 A 
ATOM     30  C   UNL     1       5.564   5.395  16.248  0.00  0.00    +0.000 A 
ATOM     31  H   UNL     1       8.278   7.082  16.503  0.00  0.00    +0.000 HD
ENDBRANCH   6  22
TORSDOF 2
ENDMDL
MODEL 7
REMARK VINA RESULT:      -7.7      2.387      3.217
REMARK  Name = 
REMARK  2 active torsions:
REMARK  status: ('A' for Active; 'I' for Inactive)
REMARK    1  A    between atoms: C_2  and  C_18
REMARK    2  A    between atoms: C_6  and  C_7
REMARK                            x       y       z     vdW  Elec       q    Type
REMARK                         _______ _______ _______ _____ _____    ______ ____
ROOT
ATOM      1  O   UNL     1      -1.140  12.051  19.317  0.00  0.00    +0.000 OA
ATOM      2  C   UNL     1      -1.178  12.240  20.533  0.00  0.00    +0.000 C 
ATOM      3  N   UNL     1      -0.626  11.434  21.498  0.00  0.00    +0.000 N 
ATOM      4  C   UNL     1       0.107  10.314  21.255  0.00  0.00    +0.000 A 
ATOM      5  N   UNL     1       0.581   9.852  20.131  0.00  0.00    +0.000 NA
ATOM      6  C   UNL     1       1.323   8.711  20.381  0.00  0.00    +0.000 A 
ATOM      7  C   UNL     1       1.331   8.299  21.700  0.00  0.00    +0.000 A 
ATOM      8  S   UNL     1       0.473   9.426  22.666  0.00  0.00    +0.000 S 
ATOM      9  H   UNL     1      -0.755  11.666  22.478  0.00  0.00    +0.000 HD
ENDROOT
BRANCH   2  10
ATOM     10  C   UNL     1      -1.824  13.524  21.085  0.00  0.00    +0.000 C 
ATOM     11  C   UNL     1      -1.739  13.556  22.619  0.00  0.00    +0.000 C 
ATOM     12  C   UNL     1      -2.730  12.594  23.269  0.00  0.00    +0.000 C 
ATOM     13  C   UNL     1      -4.153  12.833  22.760  0.00  0.00    +0.000 C 
ATOM     14  N   UNL     1      -4.147  12.767  21.298  0.00  0.00    +0.000 N 
ATOM     15  C   UNL     1      -5.338  12.425  20.676  0.00  0.00    +0.000 A 
ATOM     16  N   UNL     1      -6.345  11.931  21.412  0.00  0.00    +0.000 NA
ATOM     17  C   UNL     1      -7.416  11.437  20.763  0.00  0.00    +0.000 A 
ATOM     18  C   UNL     1      -7.526  11.410  19.398  0.00  0.00    +0.000 A 
ATOM     19  C   UNL     1      -6.456  11.935  18.723  0.00  0.00    +0.000 A 
ATOM     20  N   UNL     1      -5.365  12.437  19.334  0.00  0.00    +0.000 NA
ATOM     21  C   UNL     1      -3.273  13.733  20.614  0.00  0.00    +0.000 C 
ENDBRANCH   2  10
BRANCH   6  22
ATOM     22  C   UNL     1       2.042   8.065  19.276  0.00  0.00    +0.000 A 
ATOM     23  C   UNL     1       2.440   8.656  18.093  0.00  0.00    +0.000 A 
ATOM     24  N   UNL     1       3.049   7.697  17.329  0.00  0.00    +0.000 N 
ATOM     25  C   UNL     1       3.047   6.488  17.985  0.00  0.00    +0.000 A 
ATOM     26  C   UNL     1       3.545   5.244  17.577  0.00  0.00    +0.000 A 
ATOM     27  C   UNL     1       3.400   4.165  18.454  0.00  0.00    +0.000 A 
ATOM     28  C   UNL     1       2.781   4.327  19.689  0.00  0.00    +0.000 A 
ATOM     29  C   UNL     1       2.291   5.576  20.082  0.00  0.00    +0.000 A 
ATOM     30  C   UNL     1       2.422   6.687  19.219  0.00  0.00    +0.000 A 
ATOM     31  H   UNL     1       3.439   7.845  16.408  0.00  0.00    +0.000 HD
ENDBRANCH   6  22
TORSDOF 2
ENDMDL
MODEL 8
REMARK VINA RESULT:      -7.7      2.279      3.976
REMARK  Name = 
REMARK  2 active torsions:
REMARK  status: ('A' for Active; 'I' for Inactive)
REMARK    1  A    between atoms: C_2  and  C_18
REMARK    2  A    between atoms: C_6  and  C_7
REMARK                            x       y       z     vdW  Elec       q    Type
REMARK                         _______ _______ _______ _____ _____    ______ ____
ROOT
ATOM      1  O   UNL     1       0.777   8.654  21.621  0.00  0.00    +0.000 OA
ATOM      2  C   UNL     1       0.558   9.480  20.734  0.00  0.00    +0.000 C 
ATOM      3  N   UNL     1       1.118   9.494  19.480  0.00  0.00    +0.000 N 
ATOM      4  C   UNL     1       1.973   8.553  18.997  0.00  0.00    +0.000 A 
ATOM      5  N   UNL     1       2.317   7.398  19.497  0.00  0.00    +0.000 NA
ATOM      6  C   UNL     1       3.168   6.753  18.618  0.00  0.00    +0.000 A 
ATOM      7  C   UNL     1       3.503   7.480  17.492  0.00  0.00    +0.000 A 
ATOM      8  S   UNL     1       2.649   8.967  17.485  0.00  0.00    +0.000 S 
ATOM      9  H   UNL     1       0.894  10.250  18.841  0.00  0.00    +0.000 HD
ENDROOT
BRANCH   2  10
ATOM     10  C   UNL     1      -0.493  10.583  20.962  0.00  0.00    +0.000 C 
ATOM     11  C   UNL     1      -1.448  10.676  19.763  0.00  0.00    +0.000 C 
ATOM     12  C   UNL     1      -0.789  11.340  18.555  0.00  0.00    +0.000 C 
ATOM     13  C   UNL     1      -0.185  12.695  18.925  0.00  0.00    +0.000 C 
ATOM     14  N   UNL     1       0.721  12.512  20.060  0.00  0.00    +0.000 N 
ATOM     15  C   UNL     1       1.740  13.440  20.209  0.00  0.00    +0.000 A 
ATOM     16  N   UNL     1       2.010  14.288  19.206  0.00  0.00    +0.000 NA
ATOM     17  C   UNL     1       3.117  15.050  19.303  0.00  0.00    +0.000 A 
ATOM     18  C   UNL     1       3.976  14.999  20.368  0.00  0.00    +0.000 A 
ATOM     19  C   UNL     1       3.627  14.109  21.349  0.00  0.00    +0.000 A 
ATOM     20  N   UNL     1       2.531  13.328  21.289  0.00  0.00    +0.000 NA
ATOM     21  C   UNL     1       0.119  11.957  21.282  0.00  0.00    +0.000 C 
ENDBRANCH   2  10
BRANCH   6  22
ATOM     22  C   UNL     1       3.613   5.387  18.920  0.00  0.00    +0.000 A 
ATOM     23  C   UNL     1       4.894   4.990  19.246  0.00  0.00    +0.000 A 
ATOM     24  N   UNL     1       4.881   3.632  19.421  0.00  0.00    +0.000 N 
ATOM     25  C   UNL     1       3.618   3.132  19.205  0.00  0.00    +0.000 A 
ATOM     26  C   UNL     1       3.152   1.812  19.260  0.00  0.00    +0.000 A 
ATOM     27  C   UNL     1       1.800   1.586  18.984  0.00  0.00    +0.000 A 
ATOM     28  C   UNL     1       0.950   2.641  18.667  0.00  0.00    +0.000 A 
ATOM     29  C   UNL     1       1.431   3.953  18.617  0.00  0.00    +0.000 A 
ATOM     30  C   UNL     1       2.792   4.216  18.891  0.00  0.00    +0.000 A 
ATOM     31  H   UNL     1       5.683   3.067  19.664  0.00  0.00    +0.000 HD
ENDBRANCH   6  22
TORSDOF 2
ENDMDL
MODEL 9
REMARK VINA RESULT:      -7.6      2.285      4.061
REMARK  Name = 
REMARK  2 active torsions:
REMARK  status: ('A' for Active; 'I' for Inactive)
REMARK    1  A    between atoms: C_2  and  C_18
REMARK    2  A    between atoms: C_6  and  C_7
REMARK                            x       y       z     vdW  Elec       q    Type
REMARK                         _______ _______ _______ _____ _____    ______ ____
ROOT
ATOM      1  O   UNL     1       0.870   9.642  22.262  0.00  0.00    +0.000 OA
ATOM      2  C   UNL     1       0.335  10.307  21.376  0.00  0.00    +0.000 C 
ATOM      3  N   UNL     1       0.518  10.156  20.023  0.00  0.00    +0.000 N 
ATOM      4  C   UNL     1       1.288   9.196  19.442  0.00  0.00    +0.000 A 
ATOM      5  N   UNL     1       1.865   8.153  19.971  0.00  0.00    +0.000 NA
ATOM      6  C   UNL     1       2.492   7.423  18.976  0.00  0.00    +0.000 A 
ATOM      7  C   UNL     1       2.429   7.983  17.715  0.00  0.00    +0.000 A 
ATOM      8  S   UNL     1       1.472   9.406  17.758  0.00  0.00    +0.000 S 
ATOM      9  H   UNL     1       0.055  10.791  19.381  0.00  0.00    +0.000 HD
ENDROOT
BRANCH   2  10
ATOM     10  C   UNL     1      -0.708  11.377  21.750  0.00  0.00    +0.000 C 
ATOM     11  C   UNL     1      -1.763  11.514  20.642  0.00  0.00    +0.000 C 
ATOM     12  C   UNL     1      -1.220  12.251  19.420  0.00  0.00    +0.000 C 
ATOM     13  C   UNL     1      -0.606  13.597  19.808  0.00  0.00    +0.000 C 
ATOM     14  N   UNL     1       0.397  13.373  20.851  0.00  0.00    +0.000 N 
ATOM     15  C   UNL     1       1.411  14.311  20.961  0.00  0.00    +0.000 A 
ATOM     16  N   UNL     1       1.582  15.214  19.985  0.00  0.00    +0.000 NA
ATOM     17  C   UNL     1       2.681  15.991  20.028  0.00  0.00    +0.000 A 
ATOM     18  C   UNL     1       3.629  15.902  21.011  0.00  0.00    +0.000 A 
ATOM     19  C   UNL     1       3.378  14.957  21.971  0.00  0.00    +0.000 A 
ATOM     20  N   UNL     1       2.293  14.159  21.962  0.00  0.00    +0.000 NA
ATOM     21  C   UNL     1      -0.090  12.744  22.088  0.00  0.00    +0.000 C 
ENDBRANCH   2  10
BRANCH   6  22
ATOM     22  C   UNL     1       3.129   6.145  19.316  0.00  0.00    +0.000 A 
ATOM     23  C   UNL     1       4.455   5.810  19.131  0.00  0.00    +0.000 A 
ATOM     24  N   UNL     1       4.625   4.518  19.553  0.00  0.00    +0.000 N 
ATOM     25  C   UNL     1       3.432   3.999  20.000  0.00  0.00    +0.000 A 
ATOM     26  C   UNL     1       3.140   2.725  20.503  0.00  0.00    +0.000 A 
ATOM     27  C   UNL     1       1.820   2.462  20.883  0.00  0.00    +0.000 A 
ATOM     28  C   UNL     1       0.835   3.437  20.764  0.00  0.00    +0.000 A 
ATOM     29  C   UNL     1       1.144   4.704  20.261  0.00  0.00    +0.000 A 
ATOM     30  C   UNL     1       2.468   5.002  19.868  0.00  0.00    +0.000 A 
ATOM     31  H   UNL     1       5.497   4.007  19.532  0.00  0.00    +0.000 HD
ENDBRANCH   6  22
TORSDOF 2
ENDMDL
