MODEL 1
REMARK VINA RESULT:      -9.5      0.000      0.000
REMARK  Name = 
REMARK  6 active torsions:
REMARK  status: ('A' for Active; 'I' for Inactive)
REMARK    1  A    between atoms: C_1  and  N_2
REMARK    2  A    between atoms: C_6  and  C_7
REMARK    3  A    between atoms: C_7  and  C_8
REMARK    4  A    between atoms: C_8  and  C_9
REMARK    5  A    between atoms: C_14  and  N_15
REMARK    6  A    between atoms: C_22  and  C_23
REMARK                            x       y       z     vdW  Elec       q    Type
REMARK                         _______ _______ _______ _____ _____    ______ ____
ROOT
ATOM      1  C   UNL     1       4.085   4.581  17.286  0.00  0.00    +0.000 C 
ATOM      2  C   UNL     1       3.855   3.630  18.477  0.00  0.00    +0.000 C 
ATOM      3  O   UNL     1       3.152   4.321  19.542  0.00  0.00    +0.000 OA
ATOM      4  C   UNL     1       3.007   5.608  19.104  0.00  0.00    +0.000 A 
ATOM      5  C   UNL     1       2.285   6.576  19.783  0.00  0.00    +0.000 A 
ATOM      6  C   UNL     1       2.116   7.841  19.202  0.00  0.00    +0.000 A 
ATOM      7  C   UNL     1       2.779   8.103  17.980  0.00  0.00    +0.000 A 
ATOM      8  C   UNL     1       3.516   7.115  17.315  0.00  0.00    +0.000 A 
ATOM      9  C   UNL     1       3.589   5.853  17.877  0.00  0.00    +0.000 A 
ENDROOT
BRANCH   6  10
ATOM     10  N   UNL     1       1.271   8.827  19.787  0.00  0.00    +0.000 N 
ATOM     11  C   UNL     1       0.367   9.655  18.998  0.00  0.00    +0.000 C 
ATOM     12  C   UNL     1      -0.334  10.495  20.021  0.00  0.00    +0.000 A 
ATOM     13  C   UNL     1       0.123  10.143  21.287  0.00  0.00    +0.000 A 
ATOM     14  C   UNL     1      -0.326  10.750  22.446  0.00  0.00    +0.000 A 
ATOM     15  C   UNL     1      -1.270  11.764  22.317  0.00  0.00    +0.000 A 
ATOM     16  C   UNL     1      -1.750  12.130  21.046  0.00  0.00    +0.000 A 
ATOM     17  C   UNL     1      -1.295  11.493  19.872  0.00  0.00    +0.000 A 
ATOM     18  C   UNL     1       1.121   9.077  21.155  0.00  0.00    +0.000 C 
ATOM     19  O   UNL     1       1.648   8.578  22.128  0.00  0.00    +0.000 OA
BRANCH  17  20
ATOM     20  C   UNL     1      -1.853  11.902  18.535  0.00  0.00    +0.000 C 
ATOM     21  F   UNL     1      -3.069  12.512  18.614  0.00  0.00    +0.000 F 
ATOM     22  F   UNL     1      -1.042  12.775  17.877  0.00  0.00    +0.000 F 
ATOM     23  F   UNL     1      -2.023  10.843  17.697  0.00  0.00    +0.000 F 
ENDBRANCH  17  20
ENDBRANCH   6  10
BRANCH   1  24
ATOM     24  C   UNL     1       5.516   4.646  16.738  0.00  0.00    +0.000 C 
BRANCH  24  25
ATOM     25  C   UNL     1       5.810   3.751  15.525  0.00  0.00    +0.000 C 
BRANCH  25  31
ATOM     26  C   UNL     1       5.833   3.281  12.383  0.00  0.00    +0.000 C 
ATOM     27  N   UNL     1       6.676   4.163  13.145  0.00  0.00    +0.000 N 
ATOM     28  C   UNL     1       7.626   4.985  12.617  0.00  0.00    +0.000 A 
ATOM     29  N   UNL     1       8.203   5.663  13.579  0.00  0.00    +0.000 NA
ATOM     30  N   UNL     1       7.617   5.286  14.758  0.00  0.00    +0.000 NA
ATOM     31  C   UNL     1       6.696   4.380  14.501  0.00  0.00    +0.000 A 
ENDBRANCH  25  31
ENDBRANCH  24  25
ENDBRANCH   1  24
TORSDOF 5
ENDMDL
MODEL 2
REMARK VINA RESULT:      -9.3      2.715      3.598
REMARK  Name = 
REMARK  6 active torsions:
REMARK  status: ('A' for Active; 'I' for Inactive)
REMARK    1  A    between atoms: C_1  and  N_2
REMARK    2  A    between atoms: C_6  and  C_7
REMARK    3  A    between atoms: C_7  and  C_8
REMARK    4  A    between atoms: C_8  and  C_9
REMARK    5  A    between atoms: C_14  and  N_15
REMARK    6  A    between atoms: C_22  and  C_23
REMARK                            x       y       z     vdW  Elec       q    Type
REMARK                         _______ _______ _______ _____ _____    ______ ____
ROOT
ATOM      1  C   UNL     1       4.349   4.118  16.718  0.00  0.00    +0.000 C 
ATOM      2  C   UNL     1       3.898   3.180  17.855  0.00  0.00    +0.000 C 
ATOM      3  O   UNL     1       3.187   3.931  18.873  0.00  0.00    +0.000 OA
ATOM      4  C   UNL     1       3.238   5.234  18.461  0.00  0.00    +0.000 A 
ATOM      5  C   UNL     1       2.576   6.270  19.102  0.00  0.00    +0.000 A 
ATOM      6  C   UNL     1       2.613   7.557  18.545  0.00  0.00    +0.000 A 
ATOM      7  C   UNL     1       3.413   7.759  17.396  0.00  0.00    +0.000 A 
ATOM      8  C   UNL     1       4.086   6.701  16.771  0.00  0.00    +0.000 A 
ATOM      9  C   UNL     1       3.955   5.430  17.300  0.00  0.00    +0.000 A 
ENDROOT
BRANCH   6  10
ATOM     10  N   UNL     1       1.841   8.627  19.082  0.00  0.00    +0.000 N 
ATOM     11  C   UNL     1       1.230   8.568  20.404  0.00  0.00    +0.000 C 
ATOM     12  C   UNL     1       0.572   9.905  20.554  0.00  0.00    +0.000 A 
ATOM     13  C   UNL     1       0.820  10.663  19.413  0.00  0.00    +0.000 A 
ATOM     14  C   UNL     1       0.333  11.946  19.240  0.00  0.00    +0.000 A 
ATOM     15  C   UNL     1      -0.447  12.481  20.261  0.00  0.00    +0.000 A 
ATOM     16  C   UNL     1      -0.704  11.733  21.425  0.00  0.00    +0.000 A 
ATOM     17  C   UNL     1      -0.189  10.431  21.596  0.00  0.00    +0.000 A 
ATOM     18  C   UNL     1       1.638   9.876  18.485  0.00  0.00    +0.000 C 
ATOM     19  O   UNL     1       2.013  10.333  17.426  0.00  0.00    +0.000 OA
BRANCH  17  20
ATOM     20  C   UNL     1      -0.472   9.676  22.867  0.00  0.00    +0.000 C 
ATOM     21  F   UNL     1      -0.981   8.429  22.661  0.00  0.00    +0.000 F 
ATOM     22  F   UNL     1       0.643   9.499  23.627  0.00  0.00    +0.000 F 
ATOM     23  F   UNL     1      -1.371  10.317  23.663  0.00  0.00    +0.000 F 
ENDBRANCH  17  20
ENDBRANCH   6  10
BRANCH   1  24
ATOM     24  C   UNL     1       5.822   4.019  16.303  0.00  0.00    +0.000 C 
BRANCH  24  25
ATOM     25  C   UNL     1       6.850   4.273  17.416  0.00  0.00    +0.000 C 
BRANCH  25  31
ATOM     26  C   UNL     1       7.941   5.804  19.976  0.00  0.00    +0.000 C 
ATOM     27  N   UNL     1       7.773   6.327  18.647  0.00  0.00    +0.000 N 
ATOM     28  C   UNL     1       8.095   7.592  18.258  0.00  0.00    +0.000 A 
ATOM     29  N   UNL     1       7.830   7.739  16.982  0.00  0.00    +0.000 NA
ATOM     30  N   UNL     1       7.334   6.548  16.523  0.00  0.00    +0.000 NA
ATOM     31  C   UNL     1       7.296   5.693  17.525  0.00  0.00    +0.000 A 
ENDBRANCH  25  31
ENDBRANCH  24  25
ENDBRANCH   1  24
TORSDOF 5
ENDMDL
MODEL 3
REMARK VINA RESULT:      -9.0      2.869      3.727
REMARK  Name = 
REMARK  6 active torsions:
REMARK  status: ('A' for Active; 'I' for Inactive)
REMARK    1  A    between atoms: C_1  and  N_2
REMARK    2  A    between atoms: C_6  and  C_7
REMARK    3  A    between atoms: C_7  and  C_8
REMARK    4  A    between atoms: C_8  and  C_9
REMARK    5  A    between atoms: C_14  and  N_15
REMARK    6  A    between atoms: C_22  and  C_23
REMARK                            x       y       z     vdW  Elec       q    Type
REMARK                         _______ _______ _______ _____ _____    ______ ____
ROOT
ATOM      1  C   UNL     1       4.495   4.096  16.506  0.00  0.00    +0.000 C 
ATOM      2  C   UNL     1       3.935   3.107  17.547  0.00  0.00    +0.000 C 
ATOM      3  O   UNL     1       3.170   3.819  18.554  0.00  0.00    +0.000 OA
ATOM      4  C   UNL     1       3.286   5.142  18.228  0.00  0.00    +0.000 A 
ATOM      5  C   UNL     1       2.605   6.158  18.880  0.00  0.00    +0.000 A 
ATOM      6  C   UNL     1       2.719   7.473  18.408  0.00  0.00    +0.000 A 
ATOM      7  C   UNL     1       3.609   7.718  17.336  0.00  0.00    +0.000 A 
ATOM      8  C   UNL     1       4.298   6.678  16.698  0.00  0.00    +0.000 A 
ATOM      9  C   UNL     1       4.094   5.383  17.137  0.00  0.00    +0.000 A 
ENDROOT
BRANCH   6  10
ATOM     10  N   UNL     1       1.938   8.534  18.950  0.00  0.00    +0.000 N 
ATOM     11  C   UNL     1       1.341   8.469  20.279  0.00  0.00    +0.000 C 
ATOM     12  C   UNL     1       0.666   9.797  20.433  0.00  0.00    +0.000 A 
ATOM     13  C   UNL     1       0.893  10.557  19.289  0.00  0.00    +0.000 A 
ATOM     14  C   UNL     1       0.387  11.832  19.119  0.00  0.00    +0.000 A 
ATOM     15  C   UNL     1      -0.391  12.358  20.146  0.00  0.00    +0.000 A 
ATOM     16  C   UNL     1      -0.627  11.609  21.314  0.00  0.00    +0.000 A 
ATOM     17  C   UNL     1      -0.092  10.313  21.481  0.00  0.00    +0.000 A 
ATOM     18  C   UNL     1       1.712   9.779  18.354  0.00  0.00    +0.000 C 
ATOM     19  O   UNL     1       2.071  10.240  17.291  0.00  0.00    +0.000 OA
BRANCH  17  20
ATOM     20  C   UNL     1      -0.352   9.556  22.757  0.00  0.00    +0.000 C 
ATOM     21  F   UNL     1      -1.174  10.212  23.623  0.00  0.00    +0.000 F 
ATOM     22  F   UNL     1      -0.936   8.347  22.535  0.00  0.00    +0.000 F 
ATOM     23  F   UNL     1       0.790   9.301  23.451  0.00  0.00    +0.000 F 
ENDBRANCH  17  20
ENDBRANCH   6  10
BRANCH   1  24
ATOM     24  C   UNL     1       5.993   3.975  16.196  0.00  0.00    +0.000 C 
BRANCH  24  25
ATOM     25  C   UNL     1       6.805   5.275  16.300  0.00  0.00    +0.000 C 
BRANCH  25  31
ATOM     26  C   UNL     1       7.731   8.028  17.586  0.00  0.00    +0.000 C 
ATOM     27  N   UNL     1       7.795   6.718  18.177  0.00  0.00    +0.000 N 
ATOM     28  C   UNL     1       8.250   6.448  19.433  0.00  0.00    +0.000 A 
ATOM     29  N   UNL     1       8.161   5.161  19.664  0.00  0.00    +0.000 NA
ATOM     30  N   UNL     1       7.633   4.576  18.543  0.00  0.00    +0.000 NA
ATOM     31  C   UNL     1       7.412   5.511  17.643  0.00  0.00    +0.000 A 
ENDBRANCH  25  31
ENDBRANCH  24  25
ENDBRANCH   1  24
TORSDOF 5
ENDMDL
MODEL 4
REMARK VINA RESULT:      -9.0      1.811      2.602
REMARK  Name = 
REMARK  6 active torsions:
REMARK  status: ('A' for Active; 'I' for Inactive)
REMARK    1  A    between atoms: C_1  and  N_2
REMARK    2  A    between atoms: C_6  and  C_7
REMARK    3  A    between atoms: C_7  and  C_8
REMARK    4  A    between atoms: C_8  and  C_9
REMARK    5  A    between atoms: C_14  and  N_15
REMARK    6  A    between atoms: C_22  and  C_23
REMARK                            x       y       z     vdW  Elec       q    Type
REMARK                         _______ _______ _______ _____ _____    ______ ____
ROOT
ATOM      1  C   UNL     1       3.811   4.419  17.208  0.00  0.00    +0.000 C 
ATOM      2  C   UNL     1       3.652   3.536  18.461  0.00  0.00    +0.000 C 
ATOM      3  O   UNL     1       3.092   4.309  19.553  0.00  0.00    +0.000 OA
ATOM      4  C   UNL     1       2.968   5.582  19.068  0.00  0.00    +0.000 A 
ATOM      5  C   UNL     1       2.364   6.616  19.765  0.00  0.00    +0.000 A 
ATOM      6  C   UNL     1       2.203   7.862  19.142  0.00  0.00    +0.000 A 
ATOM      7  C   UNL     1       2.756   8.035  17.852  0.00  0.00    +0.000 A 
ATOM      8  C   UNL     1       3.374   6.979  17.168  0.00  0.00    +0.000 A 
ATOM      9  C   UNL     1       3.439   5.742  17.781  0.00  0.00    +0.000 A 
ENDROOT
BRANCH   6  10
ATOM     10  N   UNL     1       1.469   8.917  19.756  0.00  0.00    +0.000 N 
ATOM     11  C   UNL     1       1.051  10.109  19.029  0.00  0.00    +0.000 C 
ATOM     12  C   UNL     1       0.288  10.900  20.047  0.00  0.00    +0.000 A 
ATOM     13  C   UNL     1       0.258  10.190  21.244  0.00  0.00    +0.000 A 
ATOM     14  C   UNL     1      -0.364  10.663  22.385  0.00  0.00    +0.000 A 
ATOM     15  C   UNL     1      -0.972  11.913  22.315  0.00  0.00    +0.000 A 
ATOM     16  C   UNL     1      -0.959  12.643  21.113  0.00  0.00    +0.000 A 
ATOM     17  C   UNL     1      -0.334  12.143  19.951  0.00  0.00    +0.000 A 
ATOM     18  C   UNL     1       0.982   8.927  21.068  0.00  0.00    +0.000 C 
ATOM     19  O   UNL     1       1.069   8.116  21.966  0.00  0.00    +0.000 OA
BRANCH  17  20
ATOM     20  C   UNL     1      -0.363  12.950  18.680  0.00  0.00    +0.000 C 
ATOM     21  F   UNL     1      -1.163  12.418  17.714  0.00  0.00    +0.000 F 
ATOM     22  F   UNL     1      -0.814  14.218  18.878  0.00  0.00    +0.000 F 
ATOM     23  F   UNL     1       0.869  13.074  18.115  0.00  0.00    +0.000 F 
ENDBRANCH  17  20
ENDBRANCH   6  10
BRANCH   1  24
ATOM     24  C   UNL     1       5.184   4.383  16.525  0.00  0.00    +0.000 C 
BRANCH  24  25
ATOM     25  C   UNL     1       6.400   4.457  17.460  0.00  0.00    +0.000 C 
BRANCH  25  31
ATOM     26  C   UNL     1       8.095   5.668  19.858  0.00  0.00    +0.000 C 
ATOM     27  N   UNL     1       7.742   6.311  18.620  0.00  0.00    +0.000 N 
ATOM     28  C   UNL     1       8.119   7.569  18.258  0.00  0.00    +0.000 A 
ATOM     29  N   UNL     1       7.643   7.843  17.067  0.00  0.00    +0.000 NA
ATOM     30  N   UNL     1       6.948   6.743  16.637  0.00  0.00    +0.000 NA
ATOM     31  C   UNL     1       7.005   5.817  17.571  0.00  0.00    +0.000 A 
ENDBRANCH  25  31
ENDBRANCH  24  25
ENDBRANCH   1  24
TORSDOF 5
ENDMDL
MODEL 5
REMARK VINA RESULT:      -8.9      4.055     10.357
REMARK  Name = 
REMARK  6 active torsions:
REMARK  status: ('A' for Active; 'I' for Inactive)
REMARK    1  A    between atoms: C_1  and  N_2
REMARK    2  A    between atoms: C_6  and  C_7
REMARK    3  A    between atoms: C_7  and  C_8
REMARK    4  A    between atoms: C_8  and  C_9
REMARK    5  A    between atoms: C_14  and  N_15
REMARK    6  A    between atoms: C_22  and  C_23
REMARK                            x       y       z     vdW  Elec       q    Type
REMARK                         _______ _______ _______ _____ _____    ______ ____
ROOT
ATOM      1  C   UNL     1      -0.865  11.200  21.181  0.00  0.00    +0.000 C 
ATOM      2  C   UNL     1      -0.731  12.044  19.899  0.00  0.00    +0.000 C 
ATOM      3  O   UNL     1       0.133  11.374  18.945  0.00  0.00    +0.000 OA
ATOM      4  C   UNL     1       0.567  10.245  19.582  0.00  0.00    +0.000 A 
ATOM      5  C   UNL     1       1.332   9.263  18.972  0.00  0.00    +0.000 A 
ATOM      6  C   UNL     1       1.646   8.096  19.683  0.00  0.00    +0.000 A 
ATOM      7  C   UNL     1       1.244   8.017  21.037  0.00  0.00    +0.000 A 
ATOM      8  C   UNL     1       0.482   9.026  21.640  0.00  0.00    +0.000 A 
ATOM      9  C   UNL     1       0.119  10.123  20.880  0.00  0.00    +0.000 A 
ENDROOT
BRANCH   6  10
ATOM     10  N   UNL     1       2.309   6.997  19.065  0.00  0.00    +0.000 N 
ATOM     11  C   UNL     1       3.329   7.173  18.039  0.00  0.00    +0.000 C 
ATOM     12  C   UNL     1       3.764   5.775  17.723  0.00  0.00    +0.000 A 
ATOM     13  C   UNL     1       3.060   4.887  18.533  0.00  0.00    +0.000 A 
ATOM     14  C   UNL     1       3.228   3.516  18.471  0.00  0.00    +0.000 A 
ATOM     15  C   UNL     1       4.140   3.021  17.543  0.00  0.00    +0.000 A 
ATOM     16  C   UNL     1       4.866   3.901  16.721  0.00  0.00    +0.000 A 
ATOM     17  C   UNL     1       4.697   5.300  16.804  0.00  0.00    +0.000 A 
ATOM     18  C   UNL     1       2.154   5.648  19.398  0.00  0.00    +0.000 C 
ATOM     19  O   UNL     1       1.451   5.097  20.219  0.00  0.00    +0.000 OA
BRANCH  17  20
ATOM     20  C   UNL     1       5.511   6.206  15.919  0.00  0.00    +0.000 C 
ATOM     21  F   UNL     1       6.323   5.537  15.052  0.00  0.00    +0.000 F 
ATOM     22  F   UNL     1       4.736   7.018  15.150  0.00  0.00    +0.000 F 
ATOM     23  F   UNL     1       6.328   7.030  16.631  0.00  0.00    +0.000 F 
ENDBRANCH  17  20
ENDBRANCH   6  10
BRANCH   1  24
ATOM     24  C   UNL     1      -0.620  11.936  22.504  0.00  0.00    +0.000 C 
BRANCH  24  25
ATOM     25  C   UNL     1      -1.425  13.228  22.710  0.00  0.00    +0.000 C 
BRANCH  25  31
ATOM     26  C   UNL     1      -3.688  14.506  20.883  0.00  0.00    +0.000 C 
ATOM     27  N   UNL     1      -3.857  13.585  21.975  0.00  0.00    +0.000 N 
ATOM     28  C   UNL     1      -5.051  13.077  22.390  0.00  0.00    +0.000 A 
ATOM     29  N   UNL     1      -4.854  12.260  23.397  0.00  0.00    +0.000 NA
ATOM     30  N   UNL     1      -3.506  12.225  23.642  0.00  0.00    +0.000 NA
ATOM     31  C   UNL     1      -2.901  13.024  22.787  0.00  0.00    +0.000 A 
ENDBRANCH  25  31
ENDBRANCH  24  25
ENDBRANCH   1  24
TORSDOF 5
ENDMDL
MODEL 6
REMARK VINA RESULT:      -8.9      4.603      9.388
REMARK  Name = 
REMARK  6 active torsions:
REMARK  status: ('A' for Active; 'I' for Inactive)
REMARK    1  A    between atoms: C_1  and  N_2
REMARK    2  A    between atoms: C_6  and  C_7
REMARK    3  A    between atoms: C_7  and  C_8
REMARK    4  A    between atoms: C_8  and  C_9
REMARK    5  A    between atoms: C_14  and  N_15
REMARK    6  A    between atoms: C_22  and  C_23
REMARK                            x       y       z     vdW  Elec       q    Type
REMARK                         _______ _______ _______ _____ _____    ______ ____
ROOT
ATOM      1  C   UNL     1       0.091  12.372  20.087  0.00  0.00    +0.000 C 
ATOM      2  C   UNL     1      -0.064  12.191  21.609  0.00  0.00    +0.000 C 
ATOM      3  O   UNL     1       0.338  10.852  21.998  0.00  0.00    +0.000 OA
ATOM      4  C   UNL     1       0.654  10.215  20.830  0.00  0.00    +0.000 A 
ATOM      5  C   UNL     1       1.195   8.941  20.769  0.00  0.00    +0.000 A 
ATOM      6  C   UNL     1       1.574   8.414  19.526  0.00  0.00    +0.000 A 
ATOM      7  C   UNL     1       1.293   9.178  18.369  0.00  0.00    +0.000 A 
ATOM      8  C   UNL     1       0.733  10.460  18.450  0.00  0.00    +0.000 A 
ATOM      9  C   UNL     1       0.453  10.981  19.700  0.00  0.00    +0.000 A 
ENDROOT
BRANCH   6  10
ATOM     10  N   UNL     1       2.259   7.171  19.417  0.00  0.00    +0.000 N 
ATOM     11  C   UNL     1       1.975   6.038  20.290  0.00  0.00    +0.000 C 
ATOM     12  C   UNL     1       2.885   4.961  19.787  0.00  0.00    +0.000 A 
ATOM     13  C   UNL     1       3.603   5.445  18.698  0.00  0.00    +0.000 A 
ATOM     14  C   UNL     1       4.541   4.690  18.017  0.00  0.00    +0.000 A 
ATOM     15  C   UNL     1       4.769   3.393  18.465  0.00  0.00    +0.000 A 
ATOM     16  C   UNL     1       4.049   2.882  19.560  0.00  0.00    +0.000 A 
ATOM     17  C   UNL     1       3.084   3.657  20.237  0.00  0.00    +0.000 A 
ATOM     18  C   UNL     1       3.202   6.832  18.440  0.00  0.00    +0.000 C 
ATOM     19  O   UNL     1       3.668   7.466  17.517  0.00  0.00    +0.000 OA
BRANCH  17  20
ATOM     20  C   UNL     1       2.322   3.062  21.391  0.00  0.00    +0.000 C 
ATOM     21  F   UNL     1       1.013   2.811  21.109  0.00  0.00    +0.000 F 
ATOM     22  F   UNL     1       2.846   1.877  21.806  0.00  0.00    +0.000 F 
ATOM     23  F   UNL     1       2.316   3.873  22.484  0.00  0.00    +0.000 F 
ENDBRANCH  17  20
ENDBRANCH   6  10
BRANCH   1  24
ATOM     24  C   UNL     1      -1.124  12.946  19.346  0.00  0.00    +0.000 C 
BRANCH  24  25
ATOM     25  C   UNL     1      -2.422  12.133  19.460  0.00  0.00    +0.000 C 
BRANCH  25  31
ATOM     26  C   UNL     1      -5.486  11.852  18.668  0.00  0.00    +0.000 C 
ATOM     27  N   UNL     1      -4.338  11.622  17.832  0.00  0.00    +0.000 N 
ATOM     28  C   UNL     1      -4.389  11.265  16.518  0.00  0.00    +0.000 A 
ATOM     29  N   UNL     1      -3.170  11.148  16.048  0.00  0.00    +0.000 NA
ATOM     30  N   UNL     1      -2.305  11.441  17.069  0.00  0.00    +0.000 NA
ATOM     31  C   UNL     1      -3.005  11.726  18.148  0.00  0.00    +0.000 A 
ENDBRANCH  25  31
ENDBRANCH  24  25
ENDBRANCH   1  24
TORSDOF 5
ENDMDL
MODEL 7
REMARK VINA RESULT:      -8.8      4.376     10.598
REMARK  Name = 
REMARK  6 active torsions:
REMARK  status: ('A' for Active; 'I' for Inactive)
REMARK    1  A    between atoms: C_1  and  N_2
REMARK    2  A    between atoms: C_6  and  C_7
REMARK    3  A    between atoms: C_7  and  C_8
REMARK    4  A    between atoms: C_8  and  C_9
REMARK    5  A    between atoms: C_14  and  N_15
REMARK    6  A    between atoms: C_22  and  C_23
REMARK                            x       y       z     vdW  Elec       q    Type
REMARK                         _______ _______ _______ _____ _____    ______ ____
ROOT
ATOM      1  C   UNL     1      -0.925  10.657  21.316  0.00  0.00    +0.000 C 
ATOM      2  C   UNL     1      -0.834  11.630  20.125  0.00  0.00    +0.000 C 
ATOM      3  O   UNL     1       0.089  11.120  19.129  0.00  0.00    +0.000 OA
ATOM      4  C   UNL     1       0.594   9.966  19.661  0.00  0.00    +0.000 A 
ATOM      5  C   UNL     1       1.435   9.105  18.975  0.00  0.00    +0.000 A 
ATOM      6  C   UNL     1       1.822   7.899  19.576  0.00  0.00    +0.000 A 
ATOM      7  C   UNL     1       1.408   7.659  20.907  0.00  0.00    +0.000 A 
ATOM      8  C   UNL     1       0.567   8.548  21.589  0.00  0.00    +0.000 A 
ATOM      9  C   UNL     1       0.137   9.687  20.932  0.00  0.00    +0.000 A 
ENDROOT
BRANCH   6  10
ATOM     10  N   UNL     1       2.570   6.915  18.868  0.00  0.00    +0.000 N 
ATOM     11  C   UNL     1       2.375   5.484  19.070  0.00  0.00    +0.000 C 
ATOM     12  C   UNL     1       3.327   4.853  18.100  0.00  0.00    +0.000 A 
ATOM     13  C   UNL     1       3.982   5.855  17.391  0.00  0.00    +0.000 A 
ATOM     14  C   UNL     1       4.938   5.593  16.426  0.00  0.00    +0.000 A 
ATOM     15  C   UNL     1       5.250   4.260  16.176  0.00  0.00    +0.000 A 
ATOM     16  C   UNL     1       4.594   3.233  16.877  0.00  0.00    +0.000 A 
ATOM     17  C   UNL     1       3.610   3.513  17.849  0.00  0.00    +0.000 A 
ATOM     18  C   UNL     1       3.499   7.160  17.851  0.00  0.00    +0.000 C 
ATOM     19  O   UNL     1       3.900   8.194  17.360  0.00  0.00    +0.000 OA
BRANCH  17  20
ATOM     20  C   UNL     1       2.917   2.380  18.560  0.00  0.00    +0.000 C 
ATOM     21  F   UNL     1       1.581   2.311  18.303  0.00  0.00    +0.000 F 
ATOM     22  F   UNL     1       3.424   1.164  18.220  0.00  0.00    +0.000 F 
ATOM     23  F   UNL     1       3.031   2.469  19.913  0.00  0.00    +0.000 F 
ENDBRANCH  17  20
ENDBRANCH   6  10
BRANCH   1  24
ATOM     24  C   UNL     1      -0.752  11.275  22.710  0.00  0.00    +0.000 C 
BRANCH  24  25
ATOM     25  C   UNL     1      -1.274  12.710  22.875  0.00  0.00    +0.000 C 
BRANCH  25  31
ATOM     26  C   UNL     1      -3.317  14.822  21.668  0.00  0.00    +0.000 C 
ATOM     27  N   UNL     1      -3.608  13.725  22.553  0.00  0.00    +0.000 N 
ATOM     28  C   UNL     1      -4.851  13.392  23.001  0.00  0.00    +0.000 A 
ATOM     29  N   UNL     1      -4.769  12.338  23.777  0.00  0.00    +0.000 NA
ATOM     30  N   UNL     1      -3.451  11.969  23.833  0.00  0.00    +0.000 NA
ATOM     31  C   UNL     1      -2.747  12.804  23.097  0.00  0.00    +0.000 A 
ENDBRANCH  25  31
ENDBRANCH  24  25
ENDBRANCH   1  24
TORSDOF 5
ENDMDL
MODEL 8
REMARK VINA RESULT:      -8.8      4.112     10.509
REMARK  Name = 
REMARK  6 active torsions:
REMARK  status: ('A' for Active; 'I' for Inactive)
REMARK    1  A    between atoms: C_1  and  N_2
REMARK    2  A    between atoms: C_6  and  C_7
REMARK    3  A    between atoms: C_7  and  C_8
REMARK    4  A    between atoms: C_8  and  C_9
REMARK    5  A    between atoms: C_14  and  N_15
REMARK    6  A    between atoms: C_22  and  C_23
REMARK                            x       y       z     vdW  Elec       q    Type
REMARK                         _______ _______ _______ _____ _____    ______ ____
ROOT
ATOM      1  C   UNL     1      -0.868  11.304  20.912  0.00  0.00    +0.000 C 
ATOM      2  C   UNL     1      -0.706  12.115  19.611  0.00  0.00    +0.000 C 
ATOM      3  O   UNL     1       0.177  11.420  18.694  0.00  0.00    +0.000 OA
ATOM      4  C   UNL     1       0.595  10.306  19.368  0.00  0.00    +0.000 A 
ATOM      5  C   UNL     1       1.371   9.308  18.800  0.00  0.00    +0.000 A 
ATOM      6  C   UNL     1       1.667   8.159  19.548  0.00  0.00    +0.000 A 
ATOM      7  C   UNL     1       1.237   8.116  20.895  0.00  0.00    +0.000 A 
ATOM      8  C   UNL     1       0.464   9.142  21.455  0.00  0.00    +0.000 A 
ATOM      9  C   UNL     1       0.119  10.219  20.660  0.00  0.00    +0.000 A 
ENDROOT
BRANCH   6  10
ATOM     10  N   UNL     1       2.341   7.044  18.973  0.00  0.00    +0.000 N 
ATOM     11  C   UNL     1       3.372   7.191  17.953  0.00  0.00    +0.000 C 
ATOM     12  C   UNL     1       3.816   5.785  17.687  0.00  0.00    +0.000 A 
ATOM     13  C   UNL     1       3.106   4.921  18.516  0.00  0.00    +0.000 A 
ATOM     14  C   UNL     1       3.279   3.549  18.500  0.00  0.00    +0.000 A 
ATOM     15  C   UNL     1       4.203   3.028  17.599  0.00  0.00    +0.000 A 
ATOM     16  C   UNL     1       4.936   3.885  16.758  0.00  0.00    +0.000 A 
ATOM     17  C   UNL     1       4.760   5.285  16.794  0.00  0.00    +0.000 A 
ATOM     18  C   UNL     1       2.187   5.705  19.347  0.00  0.00    +0.000 C 
ATOM     19  O   UNL     1       1.476   5.178  20.178  0.00  0.00    +0.000 OA
BRANCH  17  20
ATOM     20  C   UNL     1       5.582   6.165  15.890  0.00  0.00    +0.000 C 
ATOM     21  F   UNL     1       6.421   7.004  16.560  0.00  0.00    +0.000 F 
ATOM     22  F   UNL     1       6.371   5.450  15.043  0.00  0.00    +0.000 F 
ATOM     23  F   UNL     1       4.811   6.963  15.102  0.00  0.00    +0.000 F 
ENDBRANCH  17  20
ENDBRANCH   6  10
BRANCH   1  24
ATOM     24  C   UNL     1      -0.650  12.075  22.221  0.00  0.00    +0.000 C 
BRANCH  24  25
ATOM     25  C   UNL     1      -1.651  11.778  23.347  0.00  0.00    +0.000 C 
BRANCH  25  31
ATOM     26  C   UNL     1      -1.874  14.778  24.365  0.00  0.00    +0.000 C 
ATOM     27  N   UNL     1      -2.914  13.967  23.791  0.00  0.00    +0.000 N 
ATOM     28  C   UNL     1      -4.190  14.383  23.558  0.00  0.00    +0.000 A 
ATOM     29  N   UNL     1      -4.877  13.406  23.016  0.00  0.00    +0.000 NA
ATOM     30  N   UNL     1      -4.035  12.333  22.884  0.00  0.00    +0.000 NA
ATOM     31  C   UNL     1      -2.850  12.667  23.351  0.00  0.00    +0.000 A 
ENDBRANCH  25  31
ENDBRANCH  24  25
ENDBRANCH   1  24
TORSDOF 5
ENDMDL
MODEL 9
REMARK VINA RESULT:      -8.8      1.824      2.548
REMARK  Name = 
REMARK  6 active torsions:
REMARK  status: ('A' for Active; 'I' for Inactive)
REMARK    1  A    between atoms: C_1  and  N_2
REMARK    2  A    between atoms: C_6  and  C_7
REMARK    3  A    between atoms: C_7  and  C_8
REMARK    4  A    between atoms: C_8  and  C_9
REMARK    5  A    between atoms: C_14  and  N_15
REMARK    6  A    between atoms: C_22  and  C_23
REMARK                            x       y       z     vdW  Elec       q    Type
REMARK                         _______ _______ _______ _____ _____    ______ ____
ROOT
ATOM      1  C   UNL     1       3.762   4.717  17.364  0.00  0.00    +0.000 C 
ATOM      2  C   UNL     1       3.687   3.792  18.594  0.00  0.00    +0.000 C 
ATOM      3  O   UNL     1       3.073   4.488  19.709  0.00  0.00    +0.000 OA
ATOM      4  C   UNL     1       2.841   5.758  19.259  0.00  0.00    +0.000 A 
ATOM      5  C   UNL     1       2.159   6.720  19.987  0.00  0.00    +0.000 A 
ATOM      6  C   UNL     1       1.889   7.964  19.397  0.00  0.00    +0.000 A 
ATOM      7  C   UNL     1       2.416   8.215  18.108  0.00  0.00    +0.000 A 
ATOM      8  C   UNL     1       3.114   7.232  17.394  0.00  0.00    +0.000 A 
ATOM      9  C   UNL     1       3.286   5.989  17.974  0.00  0.00    +0.000 A 
ENDROOT
BRANCH   6  10
ATOM     10  N   UNL     1       1.076   8.938  20.043  0.00  0.00    +0.000 N 
ATOM     11  C   UNL     1       0.105   9.753  19.322  0.00  0.00    +0.000 C 
ATOM     12  C   UNL     1      -0.531  10.583  20.395  0.00  0.00    +0.000 A 
ATOM     13  C   UNL     1       0.021  10.237  21.624  0.00  0.00    +0.000 A 
ATOM     14  C   UNL     1      -0.351  10.838  22.813  0.00  0.00    +0.000 A 
ATOM     15  C   UNL     1      -1.315  11.839  22.754  0.00  0.00    +0.000 A 
ATOM     16  C   UNL     1      -1.891  12.198  21.522  0.00  0.00    +0.000 A 
ATOM     17  C   UNL     1      -1.514  11.567  20.317  0.00  0.00    +0.000 A 
ATOM     18  C   UNL     1       1.022   9.185  21.419  0.00  0.00    +0.000 C 
ATOM     19  O   UNL     1       1.624   8.693  22.350  0.00  0.00    +0.000 OA
BRANCH  17  20
ATOM     20  C   UNL     1      -2.173  11.969  19.024  0.00  0.00    +0.000 C 
ATOM     21  F   UNL     1      -3.348  12.637  19.195  0.00  0.00    +0.000 F 
ATOM     22  F   UNL     1      -1.388  12.787  18.272  0.00  0.00    +0.000 F 
ATOM     23  F   UNL     1      -2.465  10.899  18.236  0.00  0.00    +0.000 F 
ENDBRANCH  17  20
ENDBRANCH   6  10
BRANCH   1  24
ATOM     24  C   UNL     1       5.128   4.813  16.671  0.00  0.00    +0.000 C 
BRANCH  24  25
ATOM     25  C   UNL     1       6.353   4.761  17.596  0.00  0.00    +0.000 C 
BRANCH  25  31
ATOM     26  C   UNL     1       8.255   5.703  19.959  0.00  0.00    +0.000 C 
ATOM     27  N   UNL     1       7.884   6.444  18.783  0.00  0.00    +0.000 N 
ATOM     28  C   UNL     1       8.329   7.694  18.474  0.00  0.00    +0.000 A 
ATOM     29  N   UNL     1       7.810   8.073  17.331  0.00  0.00    +0.000 NA
ATOM     30  N   UNL     1       7.018   7.052  16.878  0.00  0.00    +0.000 NA
ATOM     31  C   UNL     1       7.058   6.067  17.752  0.00  0.00    +0.000 A 
ENDBRANCH  25  31
ENDBRANCH  24  25
ENDBRANCH   1  24
TORSDOF 5
ENDMDL
