MODEL 1
REMARK VINA RESULT:      -9.0      0.000      0.000
REMARK  Name = 
REMARK  6 active torsions:
REMARK  status: ('A' for Active; 'I' for Inactive)
REMARK    1  A    between atoms: S_2  and  N_4
REMARK    2  A    between atoms: S_2  and  C_20
REMARK    3  A    between atoms: N_4  and  C_5
REMARK    4  A    between atoms: C_5  and  C_6
REMARK    5  A    between atoms: C_9  and  O_10
REMARK    6  A    between atoms: O_10  and  C_11
REMARK                            x       y       z     vdW  Elec       q    Type
REMARK                         _______ _______ _______ _____ _____    ______ ____
ROOT
ATOM      1  C   UNL     1       2.423   5.394  20.307  0.00  0.00    +0.000 C 
ENDROOT
BRANCH   1   2
ATOM      2  C   UNL     1       2.163   6.771  19.771  0.00  0.00    +0.000 A 
ATOM      3  C   UNL     1       2.448   7.132  18.449  0.00  0.00    +0.000 A 
ATOM      4  C   UNL     1       2.052   8.384  17.972  0.00  0.00    +0.000 A 
ATOM      5  C   UNL     1       1.376   9.228  18.839  0.00  0.00    +0.000 A 
ATOM      6  N   UNL     1       1.143   8.933  20.138  0.00  0.00    +0.000 NA
ATOM      7  C   UNL     1       1.528   7.717  20.569  0.00  0.00    +0.000 A 
BRANCH   5   8
ATOM      8  O   UNL     1       0.901  10.424  18.321  0.00  0.00    +0.000 OA
BRANCH   8   9
ATOM      9  C   UNL     1      -0.468  10.588  18.245  0.00  0.00    +0.000 A 
ATOM     10  C   UNL     1      -1.293   9.819  17.411  0.00  0.00    +0.000 A 
ATOM     11  C   UNL     1      -2.670  10.043  17.375  0.00  0.00    +0.000 A 
ATOM     12  C   UNL     1      -3.222  11.064  18.144  0.00  0.00    +0.000 A 
ATOM     13  C   UNL     1      -2.393  11.846  18.944  0.00  0.00    +0.000 A 
ATOM     14  F   UNL     1      -2.929  12.833  19.673  0.00  0.00    +0.000 F 
ATOM     15  C   UNL     1      -1.021  11.622  18.999  0.00  0.00    +0.000 A 
ENDBRANCH   8   9
ENDBRANCH   5   8
ENDBRANCH   1   2
BRANCH   1  16
ATOM     16  N   UNL     1       3.803   4.952  20.135  0.00  0.00    +0.000 NA
ATOM     17  H   UNL     1       4.503   5.669  19.958  0.00  0.00    +0.000 HD
BRANCH  16  19
ATOM     18  O   UNL     1       4.809   2.649  19.962  0.00  0.00    +0.000 OA
ATOM     19  S   UNL     1       4.036   3.585  19.176  0.00  0.00    +0.000 S 
ATOM     20  O   UNL     1       2.772   3.225  18.575  0.00  0.00    +0.000 OA
BRANCH  19  21
ATOM     21  C   UNL     1       5.098   4.209  17.890  0.00  0.00    +0.000 A 
ATOM     22  C   UNL     1       6.261   4.919  18.250  0.00  0.00    +0.000 A 
ATOM     23  C   UNL     1       7.139   5.368  17.262  0.00  0.00    +0.000 A 
ATOM     24  C   UNL     1       6.833   5.077  15.948  0.00  0.00    +0.000 A 
ATOM     25  C   UNL     1       5.685   4.383  15.590  0.00  0.00    +0.000 A 
ATOM     26  C   UNL     1       4.795   3.936  16.549  0.00  0.00    +0.000 A 
ATOM     27  C   UNL     1       5.622   4.283  14.114  0.00  0.00    +0.000 C 
ATOM     28  C   UNL     1       7.076   4.632  13.794  0.00  0.00    +0.000 C 
ATOM     29  O   UNL     1       7.614   5.429  14.878  0.00  0.00    +0.000 OA
ENDBRANCH  19  21
ENDBRANCH  16  19
ENDBRANCH   1  16
TORSDOF 6
ENDMDL
MODEL 2
REMARK VINA RESULT:      -8.9      1.383      2.237
REMARK  Name = 
REMARK  6 active torsions:
REMARK  status: ('A' for Active; 'I' for Inactive)
REMARK    1  A    between atoms: S_2  and  N_4
REMARK    2  A    between atoms: S_2  and  C_20
REMARK    3  A    between atoms: N_4  and  C_5
REMARK    4  A    between atoms: C_5  and  C_6
REMARK    5  A    between atoms: C_9  and  O_10
REMARK    6  A    between atoms: O_10  and  C_11
REMARK                            x       y       z     vdW  Elec       q    Type
REMARK                         _______ _______ _______ _____ _____    ______ ____
ROOT
ATOM      1  C   UNL     1       2.233   4.695  20.031  0.00  0.00    +0.000 C 
ENDROOT
BRANCH   1   2
ATOM      2  C   UNL     1       2.197   6.138  19.619  0.00  0.00    +0.000 A 
ATOM      3  C   UNL     1       2.539   6.563  18.329  0.00  0.00    +0.000 A 
ATOM      4  C   UNL     1       2.348   7.898  17.967  0.00  0.00    +0.000 A 
ATOM      5  C   UNL     1       1.813   8.761  18.911  0.00  0.00    +0.000 A 
ATOM      6  N   UNL     1       1.533   8.394  20.183  0.00  0.00    +0.000 NA
ATOM      7  C   UNL     1       1.719   7.100  20.503  0.00  0.00    +0.000 A 
BRANCH   5   8
ATOM      8  O   UNL     1       1.536  10.057  18.504  0.00  0.00    +0.000 OA
BRANCH   8   9
ATOM      9  C   UNL     1       0.221  10.475  18.559  0.00  0.00    +0.000 A 
ATOM     10  C   UNL     1      -0.233  11.488  19.417  0.00  0.00    +0.000 A 
ATOM     11  C   UNL     1      -1.580  11.855  19.428  0.00  0.00    +0.000 A 
ATOM     12  C   UNL     1      -2.484  11.184  18.610  0.00  0.00    +0.000 A 
ATOM     13  C   UNL     1      -2.032  10.157  17.786  0.00  0.00    +0.000 A 
ATOM     14  F   UNL     1      -2.909   9.508  17.009  0.00  0.00    +0.000 F 
ATOM     15  C   UNL     1      -0.690   9.791  17.755  0.00  0.00    +0.000 A 
ENDBRANCH   8   9
ENDBRANCH   5   8
ENDBRANCH   1   2
BRANCH   1  16
ATOM     16  N   UNL     1       2.287   3.768  18.905  0.00  0.00    +0.000 NA
ATOM     17  H   UNL     1       1.441   3.244  18.692  0.00  0.00    +0.000 HD
BRANCH  16  19
ATOM     18  O   UNL     1       4.137   2.583  20.136  0.00  0.00    +0.000 OA
ATOM     19  S   UNL     1       3.673   2.816  18.787  0.00  0.00    +0.000 S 
ATOM     20  O   UNL     1       3.410   1.734  17.866  0.00  0.00    +0.000 OA
BRANCH  19  21
ATOM     21  C   UNL     1       4.824   3.931  18.010  0.00  0.00    +0.000 A 
ATOM     22  C   UNL     1       4.729   4.152  16.622  0.00  0.00    +0.000 A 
ATOM     23  C   UNL     1       5.582   5.065  15.999  0.00  0.00    +0.000 A 
ATOM     24  C   UNL     1       6.490   5.740  16.791  0.00  0.00    +0.000 A 
ATOM     25  C   UNL     1       6.590   5.521  18.158  0.00  0.00    +0.000 A 
ATOM     26  C   UNL     1       5.763   4.614  18.795  0.00  0.00    +0.000 A 
ATOM     27  C   UNL     1       7.687   6.353  18.702  0.00  0.00    +0.000 C 
ATOM     28  C   UNL     1       7.844   7.325  17.532  0.00  0.00    +0.000 C 
ATOM     29  O   UNL     1       7.369   6.683  16.324  0.00  0.00    +0.000 OA
ENDBRANCH  19  21
ENDBRANCH  16  19
ENDBRANCH   1  16
TORSDOF 6
ENDMDL
MODEL 3
REMARK VINA RESULT:      -8.8      0.949      1.318
REMARK  Name = 
REMARK  6 active torsions:
REMARK  status: ('A' for Active; 'I' for Inactive)
REMARK    1  A    between atoms: S_2  and  N_4
REMARK    2  A    between atoms: S_2  and  C_20
REMARK    3  A    between atoms: N_4  and  C_5
REMARK    4  A    between atoms: C_5  and  C_6
REMARK    5  A    between atoms: C_9  and  O_10
REMARK    6  A    between atoms: O_10  and  C_11
REMARK                            x       y       z     vdW  Elec       q    Type
REMARK                         _______ _______ _______ _____ _____    ______ ____
ROOT
ATOM      1  C   UNL     1       2.205   4.870  19.961  0.00  0.00    +0.000 C 
ENDROOT
BRANCH   1   2
ATOM      2  C   UNL     1       2.160   6.313  19.552  0.00  0.00    +0.000 A 
ATOM      3  C   UNL     1       2.487   6.742  18.259  0.00  0.00    +0.000 A 
ATOM      4  C   UNL     1       2.289   8.077  17.901  0.00  0.00    +0.000 A 
ATOM      5  C   UNL     1       1.760   8.935  18.852  0.00  0.00    +0.000 A 
ATOM      6  N   UNL     1       1.494   8.567  20.126  0.00  0.00    +0.000 NA
ATOM      7  C   UNL     1       1.688   7.272  20.442  0.00  0.00    +0.000 A 
BRANCH   5   8
ATOM      8  O   UNL     1       1.474  10.232  18.450  0.00  0.00    +0.000 OA
BRANCH   8   9
ATOM      9  C   UNL     1       0.155  10.638  18.498  0.00  0.00    +0.000 A 
ATOM     10  C   UNL     1      -0.291  11.726  19.264  0.00  0.00    +0.000 A 
ATOM     11  C   UNL     1      -1.641  12.077  19.276  0.00  0.00    +0.000 A 
ATOM     12  C   UNL     1      -2.557  11.318  18.553  0.00  0.00    +0.000 A 
ATOM     13  C   UNL     1      -2.113  10.219  17.823  0.00  0.00    +0.000 A 
ATOM     14  F   UNL     1      -3.001   9.486  17.139  0.00  0.00    +0.000 F 
ATOM     15  C   UNL     1      -0.767   9.867  17.792  0.00  0.00    +0.000 A 
ENDBRANCH   8   9
ENDBRANCH   5   8
ENDBRANCH   1   2
BRANCH   1  16
ATOM     16  N   UNL     1       3.554   4.386  20.243  0.00  0.00    +0.000 NA
ATOM     17  H   UNL     1       4.278   5.086  20.389  0.00  0.00    +0.000 HD
BRANCH  16  19
ATOM     18  O   UNL     1       4.980   2.313  20.136  0.00  0.00    +0.000 OA
ATOM     19  S   UNL     1       4.095   3.096  19.303  0.00  0.00    +0.000 S 
ATOM     20  O   UNL     1       2.959   2.513  18.626  0.00  0.00    +0.000 OA
BRANCH  19  21
ATOM     21  C   UNL     1       5.098   3.920  18.083  0.00  0.00    +0.000 A 
ATOM     22  C   UNL     1       6.186   4.707  18.513  0.00  0.00    +0.000 A 
ATOM     23  C   UNL     1       7.022   5.315  17.575  0.00  0.00    +0.000 A 
ATOM     24  C   UNL     1       6.751   5.101  16.238  0.00  0.00    +0.000 A 
ATOM     25  C   UNL     1       5.678   4.331  15.811  0.00  0.00    +0.000 A 
ATOM     26  C   UNL     1       4.831   3.726  16.722  0.00  0.00    +0.000 A 
ATOM     27  C   UNL     1       5.633   4.343  14.332  0.00  0.00    +0.000 C 
ATOM     28  C   UNL     1       7.048   4.854  14.059  0.00  0.00    +0.000 C 
ATOM     29  O   UNL     1       7.500   5.611  15.209  0.00  0.00    +0.000 OA
ENDBRANCH  19  21
ENDBRANCH  16  19
ENDBRANCH   1  16
TORSDOF 6
ENDMDL
MODEL 4
REMARK VINA RESULT:      -8.7      1.609      2.372
REMARK  Name = 
REMARK  6 active torsions:
REMARK  status: ('A' for Active; 'I' for Inactive)
REMARK    1  A    between atoms: S_2  and  N_4
REMARK    2  A    between atoms: S_2  and  C_20
REMARK    3  A    between atoms: N_4  and  C_5
REMARK    4  A    between atoms: C_5  and  C_6
REMARK    5  A    between atoms: C_9  and  O_10
REMARK    6  A    between atoms: O_10  and  C_11
REMARK                            x       y       z     vdW  Elec       q    Type
REMARK                         _______ _______ _______ _____ _____    ______ ____
ROOT
ATOM      1  C   UNL     1       2.484   5.753  19.841  0.00  0.00    +0.000 C 
ENDROOT
BRANCH   1   2
ATOM      2  C   UNL     1       2.161   7.179  19.504  0.00  0.00    +0.000 A 
ATOM      3  C   UNL     1       2.381   7.723  18.233  0.00  0.00    +0.000 A 
ATOM      4  C   UNL     1       1.929   9.012  17.943  0.00  0.00    +0.000 A 
ATOM      5  C   UNL     1       1.262   9.709  18.939  0.00  0.00    +0.000 A 
ATOM      6  N   UNL     1       1.090   9.235  20.194  0.00  0.00    +0.000 NA
ATOM      7  C   UNL     1       1.530   7.988  20.445  0.00  0.00    +0.000 A 
BRANCH   5   8
ATOM      8  O   UNL     1       0.730  10.945  18.604  0.00  0.00    +0.000 OA
BRANCH   8   9
ATOM      9  C   UNL     1      -0.644  11.045  18.514  0.00  0.00    +0.000 A 
ATOM     10  C   UNL     1      -1.405  11.940  19.281  0.00  0.00    +0.000 A 
ATOM     11  C   UNL     1      -2.794  11.983  19.149  0.00  0.00    +0.000 A 
ATOM     12  C   UNL     1      -3.430  11.103  18.277  0.00  0.00    +0.000 A 
ATOM     13  C   UNL     1      -2.672  10.194  17.546  0.00  0.00    +0.000 A 
ATOM     14  F   UNL     1      -3.291   9.343  16.717  0.00  0.00    +0.000 F 
ATOM     15  C   UNL     1      -1.285  10.152  17.658  0.00  0.00    +0.000 A 
ENDBRANCH   8   9
ENDBRANCH   5   8
ENDBRANCH   1   2
BRANCH   1  16
ATOM     16  N   UNL     1       1.940   4.791  18.888  0.00  0.00    +0.000 NA
ATOM     17  H   UNL     1       1.031   4.386  19.102  0.00  0.00    +0.000 HD
BRANCH  16  19
ATOM     18  O   UNL     1       3.422   2.820  19.398  0.00  0.00    +0.000 OA
ATOM     19  S   UNL     1       3.020   3.647  18.283  0.00  0.00    +0.000 S 
ATOM     20  O   UNL     1       2.466   3.089  17.070  0.00  0.00    +0.000 OA
BRANCH  19  21
ATOM     21  C   UNL     1       4.417   4.656  17.834  0.00  0.00    +0.000 A 
ATOM     22  C   UNL     1       4.409   5.318  16.589  0.00  0.00    +0.000 A 
ATOM     23  C   UNL     1       5.466   6.161  16.240  0.00  0.00    +0.000 A 
ATOM     24  C   UNL     1       6.486   6.327  17.155  0.00  0.00    +0.000 A 
ATOM     25  C   UNL     1       6.499   5.673  18.379  0.00  0.00    +0.000 A 
ATOM     26  C   UNL     1       5.469   4.826  18.744  0.00  0.00    +0.000 A 
ATOM     27  C   UNL     1       7.746   6.019  19.098  0.00  0.00    +0.000 C 
ATOM     28  C   UNL     1       8.153   7.247  18.283  0.00  0.00    +0.000 C 
ATOM     29  O   UNL     1       7.571   7.143  16.960  0.00  0.00    +0.000 OA
ENDBRANCH  19  21
ENDBRANCH  16  19
ENDBRANCH   1  16
TORSDOF 6
ENDMDL
MODEL 5
REMARK VINA RESULT:      -8.5      1.183      1.966
REMARK  Name = 
REMARK  6 active torsions:
REMARK  status: ('A' for Active; 'I' for Inactive)
REMARK    1  A    between atoms: S_2  and  N_4
REMARK    2  A    between atoms: S_2  and  C_20
REMARK    3  A    between atoms: N_4  and  C_5
REMARK    4  A    between atoms: C_5  and  C_6
REMARK    5  A    between atoms: C_9  and  O_10
REMARK    6  A    between atoms: O_10  and  C_11
REMARK                            x       y       z     vdW  Elec       q    Type
REMARK                         _______ _______ _______ _____ _____    ______ ____
ROOT
ATOM      1  C   UNL     1       2.021   4.416  19.549  0.00  0.00    +0.000 C 
ENDROOT
BRANCH   1   2
ATOM      2  C   UNL     1       2.090   5.901  19.345  0.00  0.00    +0.000 A 
ATOM      3  C   UNL     1       2.444   6.479  18.119  0.00  0.00    +0.000 A 
ATOM      4  C   UNL     1       2.352   7.862  17.954  0.00  0.00    +0.000 A 
ATOM      5  C   UNL     1       1.900   8.619  19.024  0.00  0.00    +0.000 A 
ATOM      6  N   UNL     1       1.612   8.097  20.239  0.00  0.00    +0.000 NA
ATOM      7  C   UNL     1       1.703   6.760  20.368  0.00  0.00    +0.000 A 
BRANCH   5   8
ATOM      8  O   UNL     1       1.718   9.977  18.811  0.00  0.00    +0.000 OA
BRANCH   8   9
ATOM      9  C   UNL     1       0.420  10.445  18.750  0.00  0.00    +0.000 A 
ATOM     10  C   UNL     1      -0.553   9.914  17.890  0.00  0.00    +0.000 A 
ATOM     11  C   UNL     1      -1.845  10.441  17.870  0.00  0.00    +0.000 A 
ATOM     12  C   UNL     1      -2.158  11.527  18.683  0.00  0.00    +0.000 A 
ATOM     13  C   UNL     1      -1.178  12.072  19.508  0.00  0.00    +0.000 A 
ATOM     14  F   UNL     1      -1.483  13.123  20.279  0.00  0.00    +0.000 F 
ATOM     15  C   UNL     1       0.109  11.546  19.547  0.00  0.00    +0.000 A 
ENDBRANCH   8   9
ENDBRANCH   5   8
ENDBRANCH   1   2
BRANCH   1  16
ATOM     16  N   UNL     1       3.181   3.868  20.245  0.00  0.00    +0.000 NA
ATOM     17  H   UNL     1       3.728   4.510  20.815  0.00  0.00    +0.000 HD
BRANCH  16  19
ATOM     18  O   UNL     1       5.019   2.147  20.306  0.00  0.00    +0.000 OA
ATOM     19  S   UNL     1       4.155   2.815  19.359  0.00  0.00    +0.000 S 
ATOM     20  O   UNL     1       3.319   2.087  18.432  0.00  0.00    +0.000 OA
BRANCH  19  21
ATOM     21  C   UNL     1       5.163   3.944  18.420  0.00  0.00    +0.000 A 
ATOM     22  C   UNL     1       4.983   4.019  17.024  0.00  0.00    +0.000 A 
ATOM     23  C   UNL     1       5.720   4.937  16.273  0.00  0.00    +0.000 A 
ATOM     24  C   UNL     1       6.599   5.761  16.947  0.00  0.00    +0.000 A 
ATOM     25  C   UNL     1       6.782   5.686  18.321  0.00  0.00    +0.000 A 
ATOM     26  C   UNL     1       6.071   4.779  19.085  0.00  0.00    +0.000 A 
ATOM     27  C   UNL     1       7.823   6.659  18.724  0.00  0.00    +0.000 C 
ATOM     28  C   UNL     1       7.837   7.522  17.462  0.00  0.00    +0.000 C 
ATOM     29  O   UNL     1       7.366   6.726  16.347  0.00  0.00    +0.000 OA
ENDBRANCH  19  21
ENDBRANCH  16  19
ENDBRANCH   1  16
TORSDOF 6
ENDMDL
MODEL 6
REMARK VINA RESULT:      -8.5      1.171      1.665
REMARK  Name = 
REMARK  6 active torsions:
REMARK  status: ('A' for Active; 'I' for Inactive)
REMARK    1  A    between atoms: S_2  and  N_4
REMARK    2  A    between atoms: S_2  and  C_20
REMARK    3  A    between atoms: N_4  and  C_5
REMARK    4  A    between atoms: C_5  and  C_6
REMARK    5  A    between atoms: C_9  and  O_10
REMARK    6  A    between atoms: O_10  and  C_11
REMARK                            x       y       z     vdW  Elec       q    Type
REMARK                         _______ _______ _______ _____ _____    ______ ____
ROOT
ATOM      1  C   UNL     1       2.757   5.098  20.270  0.00  0.00    +0.000 C 
ENDROOT
BRANCH   1   2
ATOM      2  C   UNL     1       2.232   6.449  19.881  0.00  0.00    +0.000 A 
ATOM      3  C   UNL     1       1.517   7.265  20.766  0.00  0.00    +0.000 A 
ATOM      4  C   UNL     1       1.179   8.566  20.389  0.00  0.00    +0.000 A 
ATOM      5  C   UNL     1       1.578   9.007  19.137  0.00  0.00    +0.000 A 
ATOM      6  N   UNL     1       2.213   8.223  18.236  0.00  0.00    +0.000 NA
ATOM      7  C   UNL     1       2.532   6.975  18.628  0.00  0.00    +0.000 A 
BRANCH   5   8
ATOM      8  O   UNL     1       1.324  10.333  18.818  0.00  0.00    +0.000 OA
BRANCH   8   9
ATOM      9  C   UNL     1       0.004  10.714  18.682  0.00  0.00    +0.000 A 
ATOM     10  C   UNL     1      -0.574  11.771  19.402  0.00  0.00    +0.000 A 
ATOM     11  C   UNL     1      -1.919  12.097  19.224  0.00  0.00    +0.000 A 
ATOM     12  C   UNL     1      -2.702  11.343  18.354  0.00  0.00    +0.000 A 
ATOM     13  C   UNL     1      -2.131  10.274  17.669  0.00  0.00    +0.000 A 
ATOM     14  F   UNL     1      -2.892   9.545  16.842  0.00  0.00    +0.000 F 
ATOM     15  C   UNL     1      -0.787   9.948  17.827  0.00  0.00    +0.000 A 
ENDBRANCH   8   9
ENDBRANCH   5   8
ENDBRANCH   1   2
BRANCH   1  16
ATOM     16  N   UNL     1       2.452   4.052  19.299  0.00  0.00    +0.000 NA
ATOM     17  H   UNL     1       1.524   3.636  19.339  0.00  0.00    +0.000 HD
BRANCH  16  19
ATOM     18  O   UNL     1       4.326   2.703  20.305  0.00  0.00    +0.000 OA
ATOM     19  S   UNL     1       3.656   2.900  19.040  0.00  0.00    +0.000 S 
ATOM     20  O   UNL     1       3.087   1.803  18.290  0.00  0.00    +0.000 OA
BRANCH  19  21
ATOM     21  C   UNL     1       4.780   3.773  17.969  0.00  0.00    +0.000 A 
ATOM     22  C   UNL     1       5.837   4.507  18.542  0.00  0.00    +0.000 A 
ATOM     23  C   UNL     1       6.766   5.152  17.722  0.00  0.00    +0.000 A 
ATOM     24  C   UNL     1       6.614   5.025  16.356  0.00  0.00    +0.000 A 
ATOM     25  C   UNL     1       5.571   4.307  15.788  0.00  0.00    +0.000 A 
ATOM     26  C   UNL     1       4.634   3.668  16.579  0.00  0.00    +0.000 A 
ATOM     27  C   UNL     1       5.661   4.409  14.314  0.00  0.00    +0.000 C 
ATOM     28  C   UNL     1       7.103   4.903  14.201  0.00  0.00    +0.000 C 
ATOM     29  O   UNL     1       7.463   5.578  15.432  0.00  0.00    +0.000 OA
ENDBRANCH  19  21
ENDBRANCH  16  19
ENDBRANCH   1  16
TORSDOF 6
ENDMDL
MODEL 7
REMARK VINA RESULT:      -8.3      1.588      2.510
REMARK  Name = 
REMARK  6 active torsions:
REMARK  status: ('A' for Active; 'I' for Inactive)
REMARK    1  A    between atoms: S_2  and  N_4
REMARK    2  A    between atoms: S_2  and  C_20
REMARK    3  A    between atoms: N_4  and  C_5
REMARK    4  A    between atoms: C_5  and  C_6
REMARK    5  A    between atoms: C_9  and  O_10
REMARK    6  A    between atoms: O_10  and  C_11
REMARK                            x       y       z     vdW  Elec       q    Type
REMARK                         _______ _______ _______ _____ _____    ______ ____
ROOT
ATOM      1  C   UNL     1       2.473   4.297  20.360  0.00  0.00    +0.000 C 
ENDROOT
BRANCH   1   2
ATOM      2  C   UNL     1       2.196   5.688  19.870  0.00  0.00    +0.000 A 
ATOM      3  C   UNL     1       1.829   6.732  20.728  0.00  0.00    +0.000 A 
ATOM      4  C   UNL     1       1.725   8.033  20.231  0.00  0.00    +0.000 A 
ATOM      5  C   UNL     1       2.001   8.242  18.888  0.00  0.00    +0.000 A 
ATOM      6  N   UNL     1       2.295   7.246  18.022  0.00  0.00    +0.000 NA
ATOM      7  C   UNL     1       2.396   6.002  18.529  0.00  0.00    +0.000 A 
BRANCH   5   8
ATOM      8  O   UNL     1       1.992   9.553  18.434  0.00  0.00    +0.000 OA
BRANCH   8   9
ATOM      9  C   UNL     1       0.803  10.249  18.521  0.00  0.00    +0.000 A 
ATOM     10  C   UNL     1       0.667  11.462  19.213  0.00  0.00    +0.000 A 
ATOM     11  C   UNL     1      -0.568  12.110  19.271  0.00  0.00    +0.000 A 
ATOM     12  C   UNL     1      -1.680  11.527  18.670  0.00  0.00    +0.000 A 
ATOM     13  C   UNL     1      -1.546  10.307  18.015  0.00  0.00    +0.000 A 
ATOM     14  F   UNL     1      -2.622   9.746  17.448  0.00  0.00    +0.000 F 
ATOM     15  C   UNL     1      -0.317   9.658  17.938  0.00  0.00    +0.000 A 
ENDBRANCH   8   9
ENDBRANCH   5   8
ENDBRANCH   1   2
BRANCH   1  16
ATOM     16  N   UNL     1       2.490   3.297  19.297  0.00  0.00    +0.000 NA
ATOM     17  H   UNL     1       1.693   2.667  19.236  0.00  0.00    +0.000 HD
BRANCH  16  19
ATOM     18  O   UNL     1       4.560   2.320  20.349  0.00  0.00    +0.000 OA
ATOM     19  S   UNL     1       3.953   2.497  19.048  0.00  0.00    +0.000 S 
ATOM     20  O   UNL     1       3.724   1.389  18.149  0.00  0.00    +0.000 OA
BRANCH  19  21
ATOM     21  C   UNL     1       4.904   3.724  18.176  0.00  0.00    +0.000 A 
ATOM     22  C   UNL     1       4.611   3.980  16.822  0.00  0.00    +0.000 A 
ATOM     23  C   UNL     1       5.303   4.978  16.133  0.00  0.00    +0.000 A 
ATOM     24  C   UNL     1       6.253   5.699  16.828  0.00  0.00    +0.000 A 
ATOM     25  C   UNL     1       6.548   5.447  18.161  0.00  0.00    +0.000 A 
ATOM     26  C   UNL     1       5.883   4.457  18.861  0.00  0.00    +0.000 A 
ATOM     27  C   UNL     1       7.641   6.348  18.593  0.00  0.00    +0.000 C 
ATOM     28  C   UNL     1       7.568   7.365  17.453  0.00  0.00    +0.000 C 
ATOM     29  O   UNL     1       6.988   6.723  16.291  0.00  0.00    +0.000 OA
ENDBRANCH  19  21
ENDBRANCH  16  19
ENDBRANCH   1  16
TORSDOF 6
ENDMDL
MODEL 8
REMARK VINA RESULT:      -8.3      1.305      2.135
REMARK  Name = 
REMARK  6 active torsions:
REMARK  status: ('A' for Active; 'I' for Inactive)
REMARK    1  A    between atoms: S_2  and  N_4
REMARK    2  A    between atoms: S_2  and  C_20
REMARK    3  A    between atoms: N_4  and  C_5
REMARK    4  A    between atoms: C_5  and  C_6
REMARK    5  A    between atoms: C_9  and  O_10
REMARK    6  A    between atoms: O_10  and  C_11
REMARK                            x       y       z     vdW  Elec       q    Type
REMARK                         _______ _______ _______ _____ _____    ______ ____
ROOT
ATOM      1  C   UNL     1       2.961   5.372  20.156  0.00  0.00    +0.000 C 
ENDROOT
BRANCH   1   2
ATOM      2  C   UNL     1       2.293   6.672  19.816  0.00  0.00    +0.000 A 
ATOM      3  C   UNL     1       1.553   7.409  20.749  0.00  0.00    +0.000 A 
ATOM      4  C   UNL     1       1.078   8.677  20.411  0.00  0.00    +0.000 A 
ATOM      5  C   UNL     1       1.368   9.167  19.147  0.00  0.00    +0.000 A 
ATOM      6  N   UNL     1       2.025   8.455  18.202  0.00  0.00    +0.000 NA
ATOM      7  C   UNL     1       2.478   7.237  18.558  0.00  0.00    +0.000 A 
BRANCH   5   8
ATOM      8  O   UNL     1       0.977  10.467  18.862  0.00  0.00    +0.000 OA
BRANCH   8   9
ATOM      9  C   UNL     1      -0.367  10.693  18.638  0.00  0.00    +0.000 A 
ATOM     10  C   UNL     1      -1.116  10.004  17.672  0.00  0.00    +0.000 A 
ATOM     11  C   UNL     1      -2.470  10.290  17.489  0.00  0.00    +0.000 A 
ATOM     12  C   UNL     1      -3.070  11.293  18.245  0.00  0.00    +0.000 A 
ATOM     13  C   UNL     1      -2.313  11.996  19.177  0.00  0.00    +0.000 A 
ATOM     14  F   UNL     1      -2.894  12.968  19.893  0.00  0.00    +0.000 F 
ATOM     15  C   UNL     1      -0.966  11.711  19.379  0.00  0.00    +0.000 A 
ENDBRANCH   8   9
ENDBRANCH   5   8
ENDBRANCH   1   2
BRANCH   1  16
ATOM     16  N   UNL     1       2.487   4.247  19.356  0.00  0.00    +0.000 NA
ATOM     17  H   UNL     1       1.707   3.708  19.726  0.00  0.00    +0.000 HD
BRANCH  16  19
ATOM     18  O   UNL     1       4.331   2.581  19.770  0.00  0.00    +0.000 OA
ATOM     19  S   UNL     1       3.675   3.262  18.677  0.00  0.00    +0.000 S 
ATOM     20  O   UNL     1       3.096   2.549  17.561  0.00  0.00    +0.000 OA
BRANCH  19  21
ATOM     21  C   UNL     1       4.823   4.459  18.027  0.00  0.00    +0.000 A 
ATOM     22  C   UNL     1       4.588   5.006  16.749  0.00  0.00    +0.000 A 
ATOM     23  C   UNL     1       5.441   5.989  16.243  0.00  0.00    +0.000 A 
ATOM     24  C   UNL     1       6.489   6.404  17.039  0.00  0.00    +0.000 A 
ATOM     25  C   UNL     1       6.726   5.864  18.296  0.00  0.00    +0.000 A 
ATOM     26  C   UNL     1       5.901   4.883  18.815  0.00  0.00    +0.000 A 
ATOM     27  C   UNL     1       7.947   6.479  18.864  0.00  0.00    +0.000 C 
ATOM     28  C   UNL     1       8.053   7.688  17.935  0.00  0.00    +0.000 C 
ATOM     29  O   UNL     1       7.388   7.377  16.686  0.00  0.00    +0.000 OA
ENDBRANCH  19  21
ENDBRANCH  16  19
ENDBRANCH   1  16
TORSDOF 6
ENDMDL
MODEL 9
REMARK VINA RESULT:      -8.3      0.905      1.185
REMARK  Name = 
REMARK  6 active torsions:
REMARK  status: ('A' for Active; 'I' for Inactive)
REMARK    1  A    between atoms: S_2  and  N_4
REMARK    2  A    between atoms: S_2  and  C_20
REMARK    3  A    between atoms: N_4  and  C_5
REMARK    4  A    between atoms: C_5  and  C_6
REMARK    5  A    between atoms: C_9  and  O_10
REMARK    6  A    between atoms: O_10  and  C_11
REMARK                            x       y       z     vdW  Elec       q    Type
REMARK                         _______ _______ _______ _____ _____    ______ ____
ROOT
ATOM      1  C   UNL     1       2.752   4.973  20.278  0.00  0.00    +0.000 C 
ENDROOT
BRANCH   1   2
ATOM      2  C   UNL     1       2.245   6.323  19.863  0.00  0.00    +0.000 A 
ATOM      3  C   UNL     1       1.607   7.196  20.753  0.00  0.00    +0.000 A 
ATOM      4  C   UNL     1       1.286   8.492  20.342  0.00  0.00    +0.000 A 
ATOM      5  C   UNL     1       1.624   8.869  19.052  0.00  0.00    +0.000 A 
ATOM      6  N   UNL     1       2.182   8.029  18.150  0.00  0.00    +0.000 NA
ATOM      7  C   UNL     1       2.487   6.788  18.575  0.00  0.00    +0.000 A 
BRANCH   5   8
ATOM      8  O   UNL     1       1.391  10.189  18.693  0.00  0.00    +0.000 OA
BRANCH   8   9
ATOM      9  C   UNL     1       0.076  10.595  18.579  0.00  0.00    +0.000 A 
ATOM     10  C   UNL     1      -0.863   9.954  17.757  0.00  0.00    +0.000 A 
ATOM     11  C   UNL     1      -2.175  10.425  17.681  0.00  0.00    +0.000 A 
ATOM     12  C   UNL     1      -2.542  11.561  18.397  0.00  0.00    +0.000 A 
ATOM     13  C   UNL     1      -1.596  12.213  19.183  0.00  0.00    +0.000 A 
ATOM     14  F   UNL     1      -1.953  13.312  19.860  0.00  0.00    +0.000 F 
ATOM     15  C   UNL     1      -0.289  11.745  19.279  0.00  0.00    +0.000 A 
ENDBRANCH   8   9
ENDBRANCH   5   8
ENDBRANCH   1   2
BRANCH   1  16
ATOM     16  N   UNL     1       2.466   3.920  19.310  0.00  0.00    +0.000 NA
ATOM     17  H   UNL     1       1.548   3.481  19.356  0.00  0.00    +0.000 HD
BRANCH  16  19
ATOM     18  O   UNL     1       4.368   2.602  20.305  0.00  0.00    +0.000 OA
ATOM     19  S   UNL     1       3.695   2.798  19.040  0.00  0.00    +0.000 S 
ATOM     20  O   UNL     1       3.153   1.697  18.278  0.00  0.00    +0.000 OA
BRANCH  19  21
ATOM     21  C   UNL     1       4.801   3.708  17.981  0.00  0.00    +0.000 A 
ATOM     22  C   UNL     1       5.847   4.452  18.564  0.00  0.00    +0.000 A 
ATOM     23  C   UNL     1       6.762   5.126  17.753  0.00  0.00    +0.000 A 
ATOM     24  C   UNL     1       6.610   5.018  16.386  0.00  0.00    +0.000 A 
ATOM     25  C   UNL     1       5.579   4.289  15.808  0.00  0.00    +0.000 A 
ATOM     26  C   UNL     1       4.655   3.621  16.590  0.00  0.00    +0.000 A 
ATOM     27  C   UNL     1       5.665   4.415  14.335  0.00  0.00    +0.000 C 
ATOM     28  C   UNL     1       7.098   4.938  14.228  0.00  0.00    +0.000 C 
ATOM     29  O   UNL     1       7.447   5.600  15.469  0.00  0.00    +0.000 OA
ENDBRANCH  19  21
ENDBRANCH  16  19
ENDBRANCH   1  16
TORSDOF 6
ENDMDL
