MODEL 1
REMARK VINA RESULT:      -7.5      0.000      0.000
REMARK  Name = 
REMARK  3 active torsions:
REMARK  status: ('A' for Active; 'I' for Inactive)
REMARK    1  A    between atoms: N_1  and  S_2
REMARK    2  A    between atoms: S_2  and  C_5
REMARK    3  A    between atoms: C_8  and  C_9
REMARK                            x       y       z     vdW  Elec       q    Type
REMARK                         _______ _______ _______ _____ _____    ______ ____
ROOT
ATOM      1  C   UNL     1       2.596   8.077  17.845  0.00  0.00    +0.000 C 
ATOM      2  O   UNL     1       3.181   8.443  16.836  0.00  0.00    +0.000 OA
ATOM      3  N   UNL     1       1.763   8.943  18.558  0.00  0.00    +0.000 N 
ATOM      4  C   UNL     1       1.325  10.198  17.912  0.00  0.00    +0.000 C 
ATOM      5  C   UNL     1       0.252  10.847  18.825  0.00  0.00    +0.000 C 
ATOM      6  C   UNL     1      -1.126  10.977  18.136  0.00  0.00    +0.000 C 
ATOM      7  C   UNL     1      -1.482  12.463  18.184  0.00  0.00    +0.000 C 
ATOM      8  C   UNL     1      -0.143  13.171  18.275  0.00  0.00    +0.000 C 
ATOM      9  C   UNL     1       0.641  12.287  19.229  0.00  0.00    +0.000 C 
ATOM     10  C   UNL     1       0.253   9.903  20.003  0.00  0.00    +0.000 A 
ATOM     11  C   UNL     1      -0.541   9.975  21.146  0.00  0.00    +0.000 A 
ATOM     12  C   UNL     1      -0.396   9.004  22.141  0.00  0.00    +0.000 A 
ATOM     13  C   UNL     1       0.598   8.034  22.025  0.00  0.00    +0.000 A 
ATOM     14  C   UNL     1       1.439   8.028  20.915  0.00  0.00    +0.000 A 
ATOM     15  F   UNL     1       2.486   7.194  20.936  0.00  0.00    +0.000 F 
ATOM     16  C   UNL     1       1.200   8.888  19.850  0.00  0.00    +0.000 A 
ENDROOT
BRANCH   1  20
ATOM     17  C   UNL     1       3.116   4.116  19.177  0.00  0.00    +0.000 A 
ATOM     18  C   UNL     1       1.873   4.438  18.669  0.00  0.00    +0.000 A 
ATOM     19  C   UNL     1       1.723   5.703  18.106  0.00  0.00    +0.000 A 
ATOM     20  C   UNL     1       2.744   6.640  18.226  0.00  0.00    +0.000 A 
ATOM     21  C   UNL     1       3.978   6.199  18.699  0.00  0.00    +0.000 A 
ATOM     22  N   UNL     1       4.204   4.941  19.161  0.00  0.00    +0.000 NA
BRANCH  17  23
ATOM     23  S   UNL     1       3.419   2.489  19.846  0.00  0.00    +0.000 S 
ATOM     24  O   UNL     1       2.953   1.497  18.897  0.00  0.00    +0.000 OA
ATOM     25  O   UNL     1       3.048   2.443  21.244  0.00  0.00    +0.000 OA
BRANCH  23  26
ATOM     26  N   UNL     1       5.104   2.397  19.791  0.00  0.00    +0.000 NA
ATOM     27  H   UNL     1       5.478   3.132  19.188  0.00  0.00    +0.000 HD
ATOM     28  H   UNL     1       5.399   1.448  19.564  0.00  0.00    +0.000 HD
ENDBRANCH  23  26
ENDBRANCH  17  23
ENDBRANCH   1  20
TORSDOF 3
ENDMDL
MODEL 2
REMARK VINA RESULT:      -7.3      2.676      4.369
REMARK  Name = 
REMARK  3 active torsions:
REMARK  status: ('A' for Active; 'I' for Inactive)
REMARK    1  A    between atoms: N_1  and  S_2
REMARK    2  A    between atoms: S_2  and  C_5
REMARK    3  A    between atoms: C_8  and  C_9
REMARK                            x       y       z     vdW  Elec       q    Type
REMARK                         _______ _______ _______ _____ _____    ______ ____
ROOT
ATOM      1  C   UNL     1       2.538   5.332  20.115  0.00  0.00    +0.000 C 
ATOM      2  O   UNL     1       2.229   4.417  20.865  0.00  0.00    +0.000 OA
ATOM      3  N   UNL     1       1.937   6.590  20.213  0.00  0.00    +0.000 N 
ATOM      4  C   UNL     1       1.172   6.916  21.435  0.00  0.00    +0.000 C 
ATOM      5  C   UNL     1       0.810   8.423  21.374  0.00  0.00    +0.000 C 
ATOM      6  C   UNL     1       1.427   9.237  22.535  0.00  0.00    +0.000 C 
ATOM      7  C   UNL     1       0.253   9.906  23.250  0.00  0.00    +0.000 C 
ATOM      8  C   UNL     1      -0.936   9.016  22.942  0.00  0.00    +0.000 C 
ATOM      9  C   UNL     1      -0.714   8.650  21.485  0.00  0.00    +0.000 C 
ATOM     10  C   UNL     1       1.347   8.804  20.016  0.00  0.00    +0.000 A 
ATOM     11  C   UNL     1       1.323  10.063  19.418  0.00  0.00    +0.000 A 
ATOM     12  C   UNL     1       1.871  10.225  18.143  0.00  0.00    +0.000 A 
ATOM     13  C   UNL     1       2.349   9.116  17.447  0.00  0.00    +0.000 A 
ATOM     14  C   UNL     1       2.288   7.850  18.026  0.00  0.00    +0.000 A 
ATOM     15  F   UNL     1       2.592   6.801  17.253  0.00  0.00    +0.000 F 
ATOM     16  C   UNL     1       1.894   7.704  19.351  0.00  0.00    +0.000 A 
ENDROOT
BRANCH   1  20
ATOM     17  C   UNL     1       5.483   4.664  17.179  0.00  0.00    +0.000 A 
ATOM     18  C   UNL     1       5.848   5.457  18.250  0.00  0.00    +0.000 A 
ATOM     19  C   UNL     1       4.931   5.582  19.291  0.00  0.00    +0.000 A 
ATOM     20  C   UNL     1       3.647   5.066  19.149  0.00  0.00    +0.000 A 
ATOM     21  C   UNL     1       3.398   4.232  18.062  0.00  0.00    +0.000 A 
ATOM     22  N   UNL     1       4.300   3.993  17.072  0.00  0.00    +0.000 NA
BRANCH  17  23
ATOM     23  S   UNL     1       6.628   4.386  15.838  0.00  0.00    +0.000 S 
ATOM     24  O   UNL     1       6.117   3.321  14.998  0.00  0.00    +0.000 OA
ATOM     25  O   UNL     1       7.988   4.384  16.332  0.00  0.00    +0.000 OA
BRANCH  23  26
ATOM     26  N   UNL     1       6.447   5.795  14.927  0.00  0.00    +0.000 NA
ATOM     27  H   UNL     1       6.507   5.581  13.930  0.00  0.00    +0.000 HD
ATOM     28  H   UNL     1       7.083   6.517  15.262  0.00  0.00    +0.000 HD
ENDBRANCH  23  26
ENDBRANCH  17  23
ENDBRANCH   1  20
TORSDOF 3
ENDMDL
MODEL 3
REMARK VINA RESULT:      -7.2      2.706      4.241
REMARK  Name = 
REMARK  3 active torsions:
REMARK  status: ('A' for Active; 'I' for Inactive)
REMARK    1  A    between atoms: N_1  and  S_2
REMARK    2  A    between atoms: S_2  and  C_5
REMARK    3  A    between atoms: C_8  and  C_9
REMARK                            x       y       z     vdW  Elec       q    Type
REMARK                         _______ _______ _______ _____ _____    ______ ____
ROOT
ATOM      1  C   UNL     1       2.435   5.488  19.931  0.00  0.00    +0.000 C 
ATOM      2  O   UNL     1       2.130   4.526  20.621  0.00  0.00    +0.000 OA
ATOM      3  N   UNL     1       1.848   6.740  20.126  0.00  0.00    +0.000 N 
ATOM      4  C   UNL     1       1.105   6.987  21.380  0.00  0.00    +0.000 C 
ATOM      5  C   UNL     1       0.756   8.497  21.430  0.00  0.00    +0.000 C 
ATOM      6  C   UNL     1       1.398   9.224  22.633  0.00  0.00    +0.000 C 
ATOM      7  C   UNL     1       0.242   9.852  23.413  0.00  0.00    +0.000 C 
ATOM      8  C   UNL     1      -0.960   8.994  23.064  0.00  0.00    +0.000 C 
ATOM      9  C   UNL     1      -0.764   8.728  21.581  0.00  0.00    +0.000 C 
ATOM     10  C   UNL     1       1.274   8.967  20.092  0.00  0.00    +0.000 A 
ATOM     11  C   UNL     1       1.252  10.265  19.583  0.00  0.00    +0.000 A 
ATOM     12  C   UNL     1       1.781  10.510  18.313  0.00  0.00    +0.000 A 
ATOM     13  C   UNL     1       2.237   9.448  17.535  0.00  0.00    +0.000 A 
ATOM     14  C   UNL     1       2.174   8.146  18.026  0.00  0.00    +0.000 A 
ATOM     15  F   UNL     1       2.456   7.150  17.177  0.00  0.00    +0.000 F 
ATOM     16  C   UNL     1       1.800   7.912  19.343  0.00  0.00    +0.000 A 
ENDROOT
BRANCH   1  20
ATOM     17  C   UNL     1       5.675   4.801  17.329  0.00  0.00    +0.000 A 
ATOM     18  C   UNL     1       4.458   4.265  16.955  0.00  0.00    +0.000 A 
ATOM     19  C   UNL     1       3.351   4.590  17.735  0.00  0.00    +0.000 A 
ATOM     20  C   UNL     1       3.526   5.280  18.931  0.00  0.00    +0.000 A 
ATOM     21  C   UNL     1       4.779   5.830  19.187  0.00  0.00    +0.000 A 
ATOM     22  N   UNL     1       5.868   5.628  18.397  0.00  0.00    +0.000 NA
BRANCH  17  23
ATOM     23  S   UNL     1       7.131   4.500  16.340  0.00  0.00    +0.000 S 
ATOM     24  O   UNL     1       6.750   3.749  15.161  0.00  0.00    +0.000 OA
ATOM     25  O   UNL     1       8.234   4.093  17.183  0.00  0.00    +0.000 OA
BRANCH  23  26
ATOM     26  N   UNL     1       7.497   6.049  15.779  0.00  0.00    +0.000 NA
ATOM     27  H   UNL     1       8.013   6.570  16.491  0.00  0.00    +0.000 HD
ATOM     28  H   UNL     1       6.657   6.504  15.422  0.00  0.00    +0.000 HD
ENDBRANCH  23  26
ENDBRANCH  17  23
ENDBRANCH   1  20
TORSDOF 3
ENDMDL
MODEL 4
REMARK VINA RESULT:      -6.9      0.725      1.058
REMARK  Name = 
REMARK  3 active torsions:
REMARK  status: ('A' for Active; 'I' for Inactive)
REMARK    1  A    between atoms: N_1  and  S_2
REMARK    2  A    between atoms: S_2  and  C_5
REMARK    3  A    between atoms: C_8  and  C_9
REMARK                            x       y       z     vdW  Elec       q    Type
REMARK                         _______ _______ _______ _____ _____    ______ ____
ROOT
ATOM      1  C   UNL     1       2.615   8.071  17.842  0.00  0.00    +0.000 C 
ATOM      2  O   UNL     1       3.171   8.437  16.816  0.00  0.00    +0.000 OA
ATOM      3  N   UNL     1       1.742   8.912  18.536  0.00  0.00    +0.000 N 
ATOM      4  C   UNL     1       1.228  10.119  17.855  0.00  0.00    +0.000 C 
ATOM      5  C   UNL     1       0.129  10.737  18.757  0.00  0.00    +0.000 C 
ATOM      6  C   UNL     1      -1.260  10.767  18.079  0.00  0.00    +0.000 C 
ATOM      7  C   UNL     1      -1.699  12.232  18.083  0.00  0.00    +0.000 C 
ATOM      8  C   UNL     1      -0.401  13.016  18.138  0.00  0.00    +0.000 C 
ATOM      9  C   UNL     1       0.439  12.209  19.111  0.00  0.00    +0.000 C 
ATOM     10  C   UNL     1       0.193   9.834  19.965  0.00  0.00    +0.000 A 
ATOM     11  C   UNL     1      -0.595   9.898  21.114  0.00  0.00    +0.000 A 
ATOM     12  C   UNL     1      -0.387   8.969  22.138  0.00  0.00    +0.000 A 
ATOM     13  C   UNL     1       0.659   8.054  22.042  0.00  0.00    +0.000 A 
ATOM     14  C   UNL     1       1.490   8.059  20.924  0.00  0.00    +0.000 A 
ATOM     15  F   UNL     1       2.582   7.285  20.961  0.00  0.00    +0.000 F 
ATOM     16  C   UNL     1       1.194   8.868  19.834  0.00  0.00    +0.000 A 
ENDROOT
BRANCH   1  20
ATOM     17  C   UNL     1       3.168   4.004  18.782  0.00  0.00    +0.000 A 
ATOM     18  C   UNL     1       4.257   4.834  18.966  0.00  0.00    +0.000 A 
ATOM     19  C   UNL     1       4.056   6.199  18.784  0.00  0.00    +0.000 A 
ATOM     20  C   UNL     1       2.848   6.658  18.268  0.00  0.00    +0.000 A 
ATOM     21  C   UNL     1       1.794   5.752  18.175  0.00  0.00    +0.000 A 
ATOM     22  N   UNL     1       1.914   4.425  18.445  0.00  0.00    +0.000 NA
BRANCH  17  23
ATOM     23  S   UNL     1       3.318   2.249  19.072  0.00  0.00    +0.000 S 
ATOM     24  O   UNL     1       3.592   1.587  17.812  0.00  0.00    +0.000 OA
ATOM     25  O   UNL     1       2.271   1.795  19.962  0.00  0.00    +0.000 OA
BRANCH  23  26
ATOM     26  N   UNL     1       4.762   2.161  19.941  0.00  0.00    +0.000 NA
ATOM     27  H   UNL     1       5.361   2.956  19.712  0.00  0.00    +0.000 HD
ATOM     28  H   UNL     1       5.188   1.241  19.827  0.00  0.00    +0.000 HD
ENDBRANCH  23  26
ENDBRANCH  17  23
ENDBRANCH   1  20
TORSDOF 3
ENDMDL
MODEL 5
REMARK VINA RESULT:      -6.5      1.150      1.508
REMARK  Name = 
REMARK  3 active torsions:
REMARK  status: ('A' for Active; 'I' for Inactive)
REMARK    1  A    between atoms: N_1  and  S_2
REMARK    2  A    between atoms: S_2  and  C_5
REMARK    3  A    between atoms: C_8  and  C_9
REMARK                            x       y       z     vdW  Elec       q    Type
REMARK                         _______ _______ _______ _____ _____    ______ ____
ROOT
ATOM      1  C   UNL     1       2.637   8.008  17.965  0.00  0.00    +0.000 C 
ATOM      2  O   UNL     1       3.285   8.331  16.981  0.00  0.00    +0.000 OA
ATOM      3  N   UNL     1       1.848   8.933  18.654  0.00  0.00    +0.000 N 
ATOM      4  C   UNL     1       1.531  10.220  17.999  0.00  0.00    +0.000 C 
ATOM      5  C   UNL     1       0.479  10.947  18.876  0.00  0.00    +0.000 C 
ATOM      6  C   UNL     1      -0.859  11.184  18.139  0.00  0.00    +0.000 C 
ATOM      7  C   UNL     1      -1.102  12.693  18.182  0.00  0.00    +0.000 C 
ATOM      8  C   UNL     1       0.283  13.296  18.326  0.00  0.00    +0.000 C 
ATOM      9  C   UNL     1       0.961  12.351  19.303  0.00  0.00    +0.000 C 
ATOM     10  C   UNL     1       0.364  10.003  20.048  0.00  0.00    +0.000 A 
ATOM     11  C   UNL     1      -0.464  10.131  21.162  0.00  0.00    +0.000 A 
ATOM     12  C   UNL     1      -0.430   9.149  22.156  0.00  0.00    +0.000 A 
ATOM     13  C   UNL     1       0.490   8.107  22.070  0.00  0.00    +0.000 A 
ATOM     14  C   UNL     1       1.369   8.039  20.991  0.00  0.00    +0.000 A 
ATOM     15  F   UNL     1       2.347   7.127  21.045  0.00  0.00    +0.000 F 
ATOM     16  C   UNL     1       1.235   8.918  19.923  0.00  0.00    +0.000 A 
ENDROOT
BRANCH   1  20
ATOM     17  C   UNL     1       2.622   3.872  18.759  0.00  0.00    +0.000 A 
ATOM     18  C   UNL     1       3.772   4.560  19.091  0.00  0.00    +0.000 A 
ATOM     19  C   UNL     1       3.748   5.946  18.955  0.00  0.00    +0.000 A 
ATOM     20  C   UNL     1       2.661   6.562  18.344  0.00  0.00    +0.000 A 
ATOM     21  C   UNL     1       1.527   5.791  18.102  0.00  0.00    +0.000 A 
ATOM     22  N   UNL     1       1.466   4.450  18.318  0.00  0.00    +0.000 NA
BRANCH  17  23
ATOM     23  S   UNL     1       2.540   2.102  18.977  0.00  0.00    +0.000 S 
ATOM     24  O   UNL     1       2.333   1.811  20.382  0.00  0.00    +0.000 OA
ATOM     25  O   UNL     1       3.578   1.453  18.206  0.00  0.00    +0.000 OA
BRANCH  23  26
ATOM     26  N   UNL     1       1.075   1.726  18.227  0.00  0.00    +0.000 NA
ATOM     27  H   UNL     1       0.510   1.130  18.834  0.00  0.00    +0.000 HD
ATOM     28  H   UNL     1       1.240   1.368  17.287  0.00  0.00    +0.000 HD
ENDBRANCH  23  26
ENDBRANCH  17  23
ENDBRANCH   1  20
TORSDOF 3
ENDMDL
MODEL 6
REMARK VINA RESULT:      -6.1      7.582      9.800
REMARK  Name = 
REMARK  3 active torsions:
REMARK  status: ('A' for Active; 'I' for Inactive)
REMARK    1  A    between atoms: N_1  and  S_2
REMARK    2  A    between atoms: S_2  and  C_5
REMARK    3  A    between atoms: C_8  and  C_9
REMARK                            x       y       z     vdW  Elec       q    Type
REMARK                         _______ _______ _______ _____ _____    ______ ____
ROOT
ATOM      1  C   UNL     1      -1.308  12.822  22.528  0.00  0.00    +0.000 C 
ATOM      2  O   UNL     1      -0.698  11.933  23.106  0.00  0.00    +0.000 OA
ATOM      3  N   UNL     1      -0.674  13.663  21.611  0.00  0.00    +0.000 N 
ATOM      4  C   UNL     1       0.651  13.270  21.087  0.00  0.00    +0.000 C 
ATOM      5  C   UNL     1       1.015  14.252  19.943  0.00  0.00    +0.000 C 
ATOM      6  C   UNL     1       1.180  13.549  18.576  0.00  0.00    +0.000 C 
ATOM      7  C   UNL     1       2.593  13.885  18.097  0.00  0.00    +0.000 C 
ATOM      8  C   UNL     1       3.366  14.173  19.371  0.00  0.00    +0.000 C 
ATOM      9  C   UNL     1       2.365  14.957  20.202  0.00  0.00    +0.000 C 
ATOM     10  C   UNL     1      -0.149  15.211  19.992  0.00  0.00    +0.000 A 
ATOM     11  C   UNL     1      -0.377  16.312  19.167  0.00  0.00    +0.000 A 
ATOM     12  C   UNL     1      -1.519  17.092  19.367  0.00  0.00    +0.000 A 
ATOM     13  C   UNL     1      -2.365  16.820  20.440  0.00  0.00    +0.000 A 
ATOM     14  C   UNL     1      -2.078  15.767  21.306  0.00  0.00    +0.000 A 
ATOM     15  F   UNL     1      -2.817  15.660  22.417  0.00  0.00    +0.000 F 
ATOM     16  C   UNL     1      -1.037  14.892  21.023  0.00  0.00    +0.000 A 
ENDROOT
BRANCH   1  20
ATOM     17  C   UNL     1      -5.470  12.783  23.170  0.00  0.00    +0.000 A 
ATOM     18  C   UNL     1      -4.688  13.239  24.214  0.00  0.00    +0.000 A 
ATOM     19  C   UNL     1      -3.324  13.379  23.974  0.00  0.00    +0.000 A 
ATOM     20  C   UNL     1      -2.777  12.907  22.785  0.00  0.00    +0.000 A 
ATOM     21  C   UNL     1      -3.655  12.524  21.773  0.00  0.00    +0.000 A 
ATOM     22  N   UNL     1      -5.005  12.471  21.925  0.00  0.00    +0.000 NA
BRANCH  17  23
ATOM     23  S   UNL     1      -7.239  12.647  23.365  0.00  0.00    +0.000 S 
ATOM     24  O   UNL     1      -7.555  11.328  23.875  0.00  0.00    +0.000 OA
ATOM     25  O   UNL     1      -7.916  13.205  22.214  0.00  0.00    +0.000 OA
BRANCH  23  26
ATOM     26  N   UNL     1      -7.529  13.701  24.652  0.00  0.00    +0.000 NA
ATOM     27  H   UNL     1      -7.853  13.180  25.469  0.00  0.00    +0.000 HD
ATOM     28  H   UNL     1      -8.129  14.469  24.352  0.00  0.00    +0.000 HD
ENDBRANCH  23  26
ENDBRANCH  17  23
ENDBRANCH   1  20
TORSDOF 3
ENDMDL
MODEL 7
REMARK VINA RESULT:      -6.1      6.456      9.227
REMARK  Name = 
REMARK  3 active torsions:
REMARK  status: ('A' for Active; 'I' for Inactive)
REMARK    1  A    between atoms: N_1  and  S_2
REMARK    2  A    between atoms: S_2  and  C_5
REMARK    3  A    between atoms: C_8  and  C_9
REMARK                            x       y       z     vdW  Elec       q    Type
REMARK                         _______ _______ _______ _____ _____    ______ ____
ROOT
ATOM      1  C   UNL     1      -0.523  12.845  21.543  0.00  0.00    +0.000 C 
ATOM      2  O   UNL     1       0.479  13.275  22.097  0.00  0.00    +0.000 OA
ATOM      3  N   UNL     1      -0.436  11.976  20.453  0.00  0.00    +0.000 N 
ATOM      4  C   UNL     1       0.855  11.310  20.178  0.00  0.00    +0.000 C 
ATOM      5  C   UNL     1       0.612  10.252  19.070  0.00  0.00    +0.000 C 
ATOM      6  C   UNL     1       0.906   8.809  19.540  0.00  0.00    +0.000 C 
ATOM      7  C   UNL     1       1.960   8.260  18.579  0.00  0.00    +0.000 C 
ATOM      8  C   UNL     1       2.672   9.492  18.053  0.00  0.00    +0.000 C 
ATOM      9  C   UNL     1       1.535  10.478  17.852  0.00  0.00    +0.000 C 
ATOM     10  C   UNL     1      -0.841  10.496  18.739  0.00  0.00    +0.000 A 
ATOM     11  C   UNL     1      -1.624   9.814  17.809  0.00  0.00    +0.000 A 
ATOM     12  C   UNL     1      -2.960  10.186  17.637  0.00  0.00    +0.000 A 
ATOM     13  C   UNL     1      -3.468  11.287  18.324  0.00  0.00    +0.000 A 
ATOM     14  C   UNL     1      -2.647  12.009  19.186  0.00  0.00    +0.000 A 
ATOM     15  F   UNL     1      -3.127  13.157  19.681  0.00  0.00    +0.000 F 
ATOM     16  C   UNL     1      -1.369  11.553  19.484  0.00  0.00    +0.000 A 
ENDROOT
BRANCH   1  20
ATOM     17  C   UNL     1      -4.300  14.036  22.973  0.00  0.00    +0.000 A 
ATOM     18  C   UNL     1      -3.965  12.708  23.147  0.00  0.00    +0.000 A 
ATOM     19  C   UNL     1      -2.673  12.325  22.797  0.00  0.00    +0.000 A 
ATOM     20  C   UNL     1      -1.839  13.225  22.141  0.00  0.00    +0.000 A 
ATOM     21  C   UNL     1      -2.245  14.555  22.069  0.00  0.00    +0.000 A 
ATOM     22  N   UNL     1      -3.458  14.997  22.494  0.00  0.00    +0.000 NA
BRANCH  17  23
ATOM     23  S   UNL     1      -5.911  14.628  23.467  0.00  0.00    +0.000 S 
ATOM     24  O   UNL     1      -6.809  14.547  22.333  0.00  0.00    +0.000 OA
ATOM     25  O   UNL     1      -5.782  15.834  24.256  0.00  0.00    +0.000 OA
BRANCH  23  26
ATOM     26  N   UNL     1      -6.419  13.413  24.523  0.00  0.00    +0.000 NA
ATOM     27  H   UNL     1      -6.226  13.681  25.489  0.00  0.00    +0.000 HD
ATOM     28  H   UNL     1      -6.043  12.511  24.231  0.00  0.00    +0.000 HD
ENDBRANCH  23  26
ENDBRANCH  17  23
ENDBRANCH   1  20
TORSDOF 3
ENDMDL
MODEL 8
REMARK VINA RESULT:      -6.1      6.701      8.372
REMARK  Name = 
REMARK  3 active torsions:
REMARK  status: ('A' for Active; 'I' for Inactive)
REMARK    1  A    between atoms: N_1  and  S_2
REMARK    2  A    between atoms: S_2  and  C_5
REMARK    3  A    between atoms: C_8  and  C_9
REMARK                            x       y       z     vdW  Elec       q    Type
REMARK                         _______ _______ _______ _____ _____    ______ ____
ROOT
ATOM      1  C   UNL     1      -2.131  13.635  20.733  0.00  0.00    +0.000 C 
ATOM      2  O   UNL     1      -2.554  14.280  21.682  0.00  0.00    +0.000 OA
ATOM      3  N   UNL     1      -2.972  12.816  19.975  0.00  0.00    +0.000 N 
ATOM      4  C   UNL     1      -4.434  12.986  20.108  0.00  0.00    +0.000 C 
ATOM      5  C   UNL     1      -5.110  12.123  19.012  0.00  0.00    +0.000 C 
ATOM      6  C   UNL     1      -5.933  12.961  18.007  0.00  0.00    +0.000 C 
ATOM      7  C   UNL     1      -7.355  12.401  18.056  0.00  0.00    +0.000 C 
ATOM      8  C   UNL     1      -7.468  11.776  19.433  0.00  0.00    +0.000 C 
ATOM      9  C   UNL     1      -6.113  11.114  19.615  0.00  0.00    +0.000 C 
ATOM     10  C   UNL     1      -3.915  11.439  18.393  0.00  0.00    +0.000 A 
ATOM     11  C   UNL     1      -3.911  10.541  17.326  0.00  0.00    +0.000 A 
ATOM     12  C   UNL     1      -2.696  10.004  16.890  0.00  0.00    +0.000 A 
ATOM     13  C   UNL     1      -1.521  10.295  17.579  0.00  0.00    +0.000 A 
ATOM     14  C   UNL     1      -1.556  11.128  18.696  0.00  0.00    +0.000 A 
ATOM     15  F   UNL     1      -0.438  11.232  19.425  0.00  0.00    +0.000 F 
ATOM     16  C   UNL     1      -2.728  11.791  19.040  0.00  0.00    +0.000 A 
ENDROOT
BRANCH   1  20
ATOM     17  C   UNL     1       1.862  14.473  19.688  0.00  0.00    +0.000 A 
ATOM     18  C   UNL     1       1.667  13.741  20.843  0.00  0.00    +0.000 A 
ATOM     19  C   UNL     1       0.363  13.345  21.134  0.00  0.00    +0.000 A 
ATOM     20  C   UNL     1      -0.694  13.831  20.372  0.00  0.00    +0.000 A 
ATOM     21  C   UNL     1      -0.389  14.510  19.194  0.00  0.00    +0.000 A 
ATOM     22  N   UNL     1       0.876  14.828  18.813  0.00  0.00    +0.000 NA
BRANCH  17  23
ATOM     23  S   UNL     1       3.510  14.954  19.198  0.00  0.00    +0.000 S 
ATOM     24  O   UNL     1       4.438  14.587  20.248  0.00  0.00    +0.000 OA
ATOM     25  O   UNL     1       3.494  16.281  18.620  0.00  0.00    +0.000 OA
BRANCH  23  26
ATOM     26  N   UNL     1       3.825  13.881  17.934  0.00  0.00    +0.000 NA
ATOM     27  H   UNL     1       3.822  14.376  17.040  0.00  0.00    +0.000 HD
ATOM     28  H   UNL     1       3.204  13.074  17.993  0.00  0.00    +0.000 HD
ENDBRANCH  23  26
ENDBRANCH  17  23
ENDBRANCH   1  20
TORSDOF 3
ENDMDL
MODEL 9
REMARK VINA RESULT:      -6.1      3.540      6.957
REMARK  Name = 
REMARK  3 active torsions:
REMARK  status: ('A' for Active; 'I' for Inactive)
REMARK    1  A    between atoms: N_1  and  S_2
REMARK    2  A    between atoms: S_2  and  C_5
REMARK    3  A    between atoms: C_8  and  C_9
REMARK                            x       y       z     vdW  Elec       q    Type
REMARK                         _______ _______ _______ _____ _____    ______ ____
ROOT
ATOM      1  C   UNL     1       2.637   7.965  17.997  0.00  0.00    +0.000 C 
ATOM      2  O   UNL     1       2.765   8.777  17.092  0.00  0.00    +0.000 OA
ATOM      3  N   UNL     1       3.290   6.730  17.965  0.00  0.00    +0.000 N 
ATOM      4  C   UNL     1       4.399   6.539  17.006  0.00  0.00    +0.000 C 
ATOM      5  C   UNL     1       5.076   5.183  17.333  0.00  0.00    +0.000 C 
ATOM      6  C   UNL     1       6.556   5.334  17.751  0.00  0.00    +0.000 C 
ATOM      7  C   UNL     1       7.360   4.474  16.775  0.00  0.00    +0.000 C 
ATOM      8  C   UNL     1       6.492   4.400  15.533  0.00  0.00    +0.000 C 
ATOM      9  C   UNL     1       5.094   4.243  16.107  0.00  0.00    +0.000 C 
ATOM     10  C   UNL     1       4.185   4.665  18.436  0.00  0.00    +0.000 A 
ATOM     11  C   UNL     1       4.321   3.472  19.145  0.00  0.00    +0.000 A 
ATOM     12  C   UNL     1       3.390   3.157  20.139  0.00  0.00    +0.000 A 
ATOM     13  C   UNL     1       2.290   3.986  20.347  0.00  0.00    +0.000 A 
ATOM     14  C   UNL     1       2.125   5.132  19.572  0.00  0.00    +0.000 A 
ATOM     15  F   UNL     1       0.968   5.796  19.687  0.00  0.00    +0.000 F 
ATOM     16  C   UNL     1       3.124   5.536  18.695  0.00  0.00    +0.000 A 
ENDROOT
BRANCH   1  20
ATOM     17  C   UNL     1       0.579   9.254  21.437  0.00  0.00    +0.000 A 
ATOM     18  C   UNL     1       0.097   9.705  20.224  0.00  0.00    +0.000 A 
ATOM     19  C   UNL     1       0.684   9.187  19.073  0.00  0.00    +0.000 A 
ATOM     20  C   UNL     1       1.819   8.389  19.173  0.00  0.00    +0.000 A 
ATOM     21  C   UNL     1       2.189   7.941  20.439  0.00  0.00    +0.000 A 
ATOM     22  N   UNL     1       1.578   8.336  21.587  0.00  0.00    +0.000 NA
BRANCH  17  23
ATOM     23  S   UNL     1      -0.168   9.806  22.962  0.00  0.00    +0.000 S 
ATOM     24  O   UNL     1       0.798   9.670  24.034  0.00  0.00    +0.000 OA
ATOM     25  O   UNL     1      -1.515   9.291  23.076  0.00  0.00    +0.000 OA
BRANCH  23  26
ATOM     26  N   UNL     1      -0.306  11.468  22.700  0.00  0.00    +0.000 NA
ATOM     27  H   UNL     1       0.585  11.931  22.886  0.00  0.00    +0.000 HD
ATOM     28  H   UNL     1      -1.110  11.840  23.205  0.00  0.00    +0.000 HD
ENDBRANCH  23  26
ENDBRANCH  17  23
ENDBRANCH   1  20
TORSDOF 3
ENDMDL
