MODEL 1
REMARK VINA RESULT:      -9.5      0.000      0.000
REMARK  Name = 
REMARK  4 active torsions:
REMARK  status: ('A' for Active; 'I' for Inactive)
REMARK    1  A    between atoms: C_2  and  C_19
REMARK    2  A    between atoms: N_3  and  C_4
REMARK    3  A    between atoms: C_7  and  C_8
REMARK    4  A    between atoms: C_21  and  O_22
REMARK                            x       y       z     vdW  Elec       q    Type
REMARK                         _______ _______ _______ _____ _____    ______ ____
ROOT
ATOM      1  O   UNL     1       9.257  10.339  20.384  0.00  0.00    +0.000 OA
ATOM      2  C   UNL     1       9.366  10.631  19.201  0.00  0.00    +0.000 C 
ATOM      3  N   UNL     1       8.871   9.869  18.153  0.00  0.00    +0.000 N 
ATOM      4  H   UNL     1       8.935  10.278  17.233  0.00  0.00    +0.000 HD
ENDROOT
BRANCH   2   5
ATOM      5  C   UNL     1      10.092  11.898  18.762  0.00  0.00    +0.000 A 
ATOM      6  C   UNL     1      10.833  11.855  17.575  0.00  0.00    +0.000 A 
ATOM      7  C   UNL     1      11.448  13.004  17.149  0.00  0.00    +0.000 A 
ATOM      8  N   UNL     1      11.512  14.143  17.831  0.00  0.00    +0.000 NA
ATOM      9  C   UNL     1      10.939  14.154  19.039  0.00  0.00    +0.000 A 
ATOM     10  C   UNL     1      11.223  15.252  19.836  0.00  0.00    +0.000 A 
ATOM     11  C   UNL     1      10.740  15.352  21.137  0.00  0.00    +0.000 A 
ATOM     12  C   UNL     1       9.857  14.393  21.607  0.00  0.00    +0.000 A 
ATOM     13  C   UNL     1       9.527  13.294  20.807  0.00  0.00    +0.000 A 
ATOM     14  C   UNL     1      10.145  13.090  19.546  0.00  0.00    +0.000 A 
BRANCH   7  15
ATOM     15  O   UNL     1      12.080  13.042  15.950  0.00  0.00    +0.000 OA
ATOM     16  H   UNL     1      11.774  12.199  15.568  0.00  0.00    +0.000 HD
ENDBRANCH   7  15
ENDBRANCH   2   5
BRANCH   3  17
ATOM     17  C   UNL     1       8.248   8.603  18.150  0.00  0.00    +0.000 A 
ATOM     18  C   UNL     1       8.570   7.508  18.950  0.00  0.00    +0.000 A 
ATOM     19  C   UNL     1       7.853   6.292  18.818  0.00  0.00    +0.000 A 
ATOM     20  C   UNL     1       6.807   6.149  17.886  0.00  0.00    +0.000 A 
ATOM     21  C   UNL     1       6.450   7.283  17.156  0.00  0.00    +0.000 A 
ATOM     22  C   UNL     1       7.186   8.469  17.252  0.00  0.00    +0.000 A 
BRANCH  20  23
ATOM     23  C   UNL     1       6.060   4.842  17.775  0.00  0.00    +0.000 C 
ATOM     24  O   UNL     1       6.530   4.006  16.999  0.00  0.00    +0.000 OA
ATOM     25  N   UNL     1       4.893   4.585  18.533  0.00  0.00    +0.000 N 
ATOM     26  C   UNL     1       4.368   3.209  18.537  0.00  0.00    +0.000 C 
ATOM     27  C   UNL     1       3.162   3.004  17.610  0.00  0.00    +0.000 C 
ATOM     28  C   UNL     1       1.833   3.542  18.142  0.00  0.00    +0.000 C 
ATOM     29  C   UNL     1       1.838   5.031  18.469  0.00  0.00    +0.000 C 
ATOM     30  C   UNL     1       2.713   5.342  19.672  0.00  0.00    +0.000 C 
ATOM     31  C   UNL     1       4.177   5.579  19.325  0.00  0.00    +0.000 C 
ENDBRANCH  20  23
ENDBRANCH   3  17
TORSDOF 4
ENDMDL
MODEL 2
REMARK VINA RESULT:      -8.9      6.684     11.150
REMARK  Name = 
REMARK  4 active torsions:
REMARK  status: ('A' for Active; 'I' for Inactive)
REMARK    1  A    between atoms: C_2  and  C_19
REMARK    2  A    between atoms: N_3  and  C_4
REMARK    3  A    between atoms: C_7  and  C_8
REMARK    4  A    between atoms: C_21  and  O_22
REMARK                            x       y       z     vdW  Elec       q    Type
REMARK                         _______ _______ _______ _____ _____    ______ ____
ROOT
ATOM      1  O   UNL     1       2.267   7.707  18.283  0.00  0.00    +0.000 OA
ATOM      2  C   UNL     1       2.427   7.057  19.307  0.00  0.00    +0.000 C 
ATOM      3  N   UNL     1       1.869   7.376  20.536  0.00  0.00    +0.000 N 
ATOM      4  H   UNL     1       1.992   6.698  21.273  0.00  0.00    +0.000 HD
ENDROOT
BRANCH   2   5
ATOM      5  C   UNL     1       3.292   5.802  19.321  0.00  0.00    +0.000 A 
ATOM      6  C   UNL     1       4.678   5.955  19.187  0.00  0.00    +0.000 A 
ATOM      7  C   UNL     1       5.466   4.835  19.248  0.00  0.00    +0.000 A 
ATOM      8  N   UNL     1       5.024   3.582  19.300  0.00  0.00    +0.000 NA
ATOM      9  C   UNL     1       3.699   3.411  19.274  0.00  0.00    +0.000 A 
ATOM     10  C   UNL     1       3.257   2.111  19.078  0.00  0.00    +0.000 A 
ATOM     11  C   UNL     1       1.904   1.810  18.967  0.00  0.00    +0.000 A 
ATOM     12  C   UNL     1       0.968   2.810  19.177  0.00  0.00    +0.000 A 
ATOM     13  C   UNL     1       1.389   4.123  19.413  0.00  0.00    +0.000 A 
ATOM     14  C   UNL     1       2.762   4.477  19.357  0.00  0.00    +0.000 A 
BRANCH   7  15
ATOM     15  O   UNL     1       6.817   4.943  19.238  0.00  0.00    +0.000 OA
ATOM     16  H   UNL     1       6.966   5.153  18.297  0.00  0.00    +0.000 HD
ENDBRANCH   7  15
ENDBRANCH   2   5
BRANCH   3  17
ATOM     17  C   UNL     1       1.113   8.497  20.941  0.00  0.00    +0.000 A 
ATOM     18  C   UNL     1       0.444   9.398  20.116  0.00  0.00    +0.000 A 
ATOM     19  C   UNL     1      -0.267  10.488  20.679  0.00  0.00    +0.000 A 
ATOM     20  C   UNL     1      -0.319  10.696  22.072  0.00  0.00    +0.000 A 
ATOM     21  C   UNL     1       0.289   9.734  22.878  0.00  0.00    +0.000 A 
ATOM     22  C   UNL     1       1.030   8.684  22.323  0.00  0.00    +0.000 A 
BRANCH  20  23
ATOM     23  C   UNL     1      -1.090  11.863  22.638  0.00  0.00    +0.000 C 
ATOM     24  O   UNL     1      -2.130  11.592  23.244  0.00  0.00    +0.000 OA
ATOM     25  N   UNL     1      -0.635  13.196  22.495  0.00  0.00    +0.000 N 
ATOM     26  C   UNL     1      -1.320  14.241  23.273  0.00  0.00    +0.000 C 
ATOM     27  C   UNL     1      -2.324  15.065  22.454  0.00  0.00    +0.000 C 
ATOM     28  C   UNL     1      -1.705  16.118  21.533  0.00  0.00    +0.000 C 
ATOM     29  C   UNL     1      -0.716  15.564  20.514  0.00  0.00    +0.000 C 
ATOM     30  C   UNL     1       0.554  15.059  21.177  0.00  0.00    +0.000 C 
ATOM     31  C   UNL     1       0.474  13.611  21.644  0.00  0.00    +0.000 C 
ENDBRANCH  20  23
ENDBRANCH   3  17
TORSDOF 4
ENDMDL
MODEL 3
REMARK VINA RESULT:      -8.9      6.800     11.068
REMARK  Name = 
REMARK  4 active torsions:
REMARK  status: ('A' for Active; 'I' for Inactive)
REMARK    1  A    between atoms: C_2  and  C_19
REMARK    2  A    between atoms: N_3  and  C_4
REMARK    3  A    between atoms: C_7  and  C_8
REMARK    4  A    between atoms: C_21  and  O_22
REMARK                            x       y       z     vdW  Elec       q    Type
REMARK                         _______ _______ _______ _____ _____    ______ ____
ROOT
ATOM      1  O   UNL     1       2.123   7.556  18.060  0.00  0.00    +0.000 OA
ATOM      2  C   UNL     1       2.379   7.026  19.132  0.00  0.00    +0.000 C 
ATOM      3  N   UNL     1       1.935   7.486  20.363  0.00  0.00    +0.000 N 
ATOM      4  H   UNL     1       2.129   6.896  21.158  0.00  0.00    +0.000 HD
ENDROOT
BRANCH   2   5
ATOM      5  C   UNL     1       3.249   5.776  19.210  0.00  0.00    +0.000 A 
ATOM      6  C   UNL     1       4.637   5.932  19.116  0.00  0.00    +0.000 A 
ATOM      7  C   UNL     1       5.428   4.818  19.234  0.00  0.00    +0.000 A 
ATOM      8  N   UNL     1       4.989   3.565  19.308  0.00  0.00    +0.000 NA
ATOM      9  C   UNL     1       3.666   3.386  19.244  0.00  0.00    +0.000 A 
ATOM     10  C   UNL     1       3.237   2.080  19.072  0.00  0.00    +0.000 A 
ATOM     11  C   UNL     1       1.889   1.769  18.927  0.00  0.00    +0.000 A 
ATOM     12  C   UNL     1       0.943   2.770  19.078  0.00  0.00    +0.000 A 
ATOM     13  C   UNL     1       1.351   4.091  19.289  0.00  0.00    +0.000 A 
ATOM     14  C   UNL     1       2.723   4.450  19.267  0.00  0.00    +0.000 A 
BRANCH   7  15
ATOM     15  O   UNL     1       6.778   4.933  19.264  0.00  0.00    +0.000 OA
ATOM     16  H   UNL     1       6.925   4.983  20.228  0.00  0.00    +0.000 HD
ENDBRANCH   7  15
ENDBRANCH   2   5
BRANCH   3  17
ATOM     17  C   UNL     1       1.214   8.650  20.705  0.00  0.00    +0.000 A 
ATOM     18  C   UNL     1       1.223   9.869  20.031  0.00  0.00    +0.000 A 
ATOM     19  C   UNL     1       0.447  10.955  20.511  0.00  0.00    +0.000 A 
ATOM     20  C   UNL     1      -0.345  10.842  21.670  0.00  0.00    +0.000 A 
ATOM     21  C   UNL     1      -0.400   9.588  22.279  0.00  0.00    +0.000 A 
ATOM     22  C   UNL     1       0.400   8.529  21.834  0.00  0.00    +0.000 A 
BRANCH  20  23
ATOM     23  C   UNL     1      -1.163  12.016  22.150  0.00  0.00    +0.000 C 
ATOM     24  O   UNL     1      -0.914  12.431  23.285  0.00  0.00    +0.000 OA
ATOM     25  N   UNL     1      -2.151  12.618  21.336  0.00  0.00    +0.000 N 
ATOM     26  C   UNL     1      -2.731  13.892  21.791  0.00  0.00    +0.000 C 
ATOM     27  C   UNL     1      -4.118  13.746  22.434  0.00  0.00    +0.000 C 
ATOM     28  C   UNL     1      -5.273  13.539  21.453  0.00  0.00    +0.000 C 
ATOM     29  C   UNL     1      -5.122  12.323  20.546  0.00  0.00    +0.000 C 
ATOM     30  C   UNL     1      -3.995  12.503  19.544  0.00  0.00    +0.000 C 
ATOM     31  C   UNL     1      -2.629  12.078  20.068  0.00  0.00    +0.000 C 
ENDBRANCH  20  23
ENDBRANCH   3  17
TORSDOF 4
ENDMDL
MODEL 4
REMARK VINA RESULT:      -8.8      6.560     10.734
REMARK  Name = 
REMARK  4 active torsions:
REMARK  status: ('A' for Active; 'I' for Inactive)
REMARK    1  A    between atoms: C_2  and  C_19
REMARK    2  A    between atoms: N_3  and  C_4
REMARK    3  A    between atoms: C_7  and  C_8
REMARK    4  A    between atoms: C_21  and  O_22
REMARK                            x       y       z     vdW  Elec       q    Type
REMARK                         _______ _______ _______ _____ _____    ______ ____
ROOT
ATOM      1  O   UNL     1       2.220   8.694  17.311  0.00  0.00    +0.000 OA
ATOM      2  C   UNL     1       2.511   7.873  18.170  0.00  0.00    +0.000 C 
ATOM      3  N   UNL     1       2.039   7.899  19.474  0.00  0.00    +0.000 N 
ATOM      4  H   UNL     1       2.271   7.103  20.050  0.00  0.00    +0.000 HD
ENDROOT
BRANCH   2   5
ATOM      5  C   UNL     1       3.459   6.716  17.872  0.00  0.00    +0.000 A 
ATOM      6  C   UNL     1       4.735   7.020  17.382  0.00  0.00    +0.000 A 
ATOM      7  C   UNL     1       5.610   5.988  17.158  0.00  0.00    +0.000 A 
ATOM      8  N   UNL     1       5.315   4.695  17.247  0.00  0.00    +0.000 NA
ATOM      9  C   UNL     1       4.055   4.385  17.566  0.00  0.00    +0.000 A 
ATOM     10  C   UNL     1       3.698   3.054  17.414  0.00  0.00    +0.000 A 
ATOM     11  C   UNL     1       2.400   2.616  17.650  0.00  0.00    +0.000 A 
ATOM     12  C   UNL     1       1.469   3.503  18.167  0.00  0.00    +0.000 A 
ATOM     13  C   UNL     1       1.816   4.844  18.364  0.00  0.00    +0.000 A 
ATOM     14  C   UNL     1       3.083   5.342  17.965  0.00  0.00    +0.000 A 
BRANCH   7  15
ATOM     15  O   UNL     1       6.891   6.239  16.794  0.00  0.00    +0.000 OA
ATOM     16  H   UNL     1       7.093   5.422  16.301  0.00  0.00    +0.000 HD
ENDBRANCH   7  15
ENDBRANCH   2   5
BRANCH   3  17
ATOM     17  C   UNL     1       1.245   8.852  20.147  0.00  0.00    +0.000 A 
ATOM     18  C   UNL     1       0.436   9.827  19.568  0.00  0.00    +0.000 A 
ATOM     19  C   UNL     1      -0.296  10.724  20.387  0.00  0.00    +0.000 A 
ATOM     20  C   UNL     1      -0.230  10.663  21.792  0.00  0.00    +0.000 A 
ATOM     21  C   UNL     1       0.521   9.627  22.346  0.00  0.00    +0.000 A 
ATOM     22  C   UNL     1       1.281   8.770  21.542  0.00  0.00    +0.000 A 
BRANCH  20  23
ATOM     23  C   UNL     1      -1.027  11.631  22.633  0.00  0.00    +0.000 C 
ATOM     24  O   UNL     1      -1.931  11.146  23.319  0.00  0.00    +0.000 OA
ATOM     25  N   UNL     1      -0.742  13.017  22.646  0.00  0.00    +0.000 N 
ATOM     26  C   UNL     1      -1.410  13.845  23.664  0.00  0.00    +0.000 C 
ATOM     27  C   UNL     1      -2.606  14.643  23.125  0.00  0.00    +0.000 C 
ATOM     28  C   UNL     1      -2.246  15.886  22.311  0.00  0.00    +0.000 C 
ATOM     29  C   UNL     1      -1.366  15.614  21.096  0.00  0.00    +0.000 C 
ATOM     30  C   UNL     1       0.035  15.185  21.498  0.00  0.00    +0.000 C 
ATOM     31  C   UNL     1       0.178  13.687  21.735  0.00  0.00    +0.000 C 
ENDBRANCH  20  23
ENDBRANCH   3  17
TORSDOF 4
ENDMDL
MODEL 5
REMARK VINA RESULT:      -8.8      6.422     10.538
REMARK  Name = 
REMARK  4 active torsions:
REMARK  status: ('A' for Active; 'I' for Inactive)
REMARK    1  A    between atoms: C_2  and  C_19
REMARK    2  A    between atoms: N_3  and  C_4
REMARK    3  A    between atoms: C_7  and  C_8
REMARK    4  A    between atoms: C_21  and  O_22
REMARK                            x       y       z     vdW  Elec       q    Type
REMARK                         _______ _______ _______ _____ _____    ______ ____
ROOT
ATOM      1  O   UNL     1       2.428   8.877  17.188  0.00  0.00    +0.000 OA
ATOM      2  C   UNL     1       2.648   8.007  18.020  0.00  0.00    +0.000 C 
ATOM      3  N   UNL     1       2.098   7.980  19.293  0.00  0.00    +0.000 N 
ATOM      4  H   UNL     1       2.278   7.152  19.840  0.00  0.00    +0.000 HD
ENDROOT
BRANCH   2   5
ATOM      5  C   UNL     1       3.589   6.845  17.721  0.00  0.00    +0.000 A 
ATOM      6  C   UNL     1       4.855   7.138  17.201  0.00  0.00    +0.000 A 
ATOM      7  C   UNL     1       5.723   6.101  16.976  0.00  0.00    +0.000 A 
ATOM      8  N   UNL     1       5.429   4.810  17.091  0.00  0.00    +0.000 NA
ATOM      9  C   UNL     1       4.174   4.508  17.439  0.00  0.00    +0.000 A 
ATOM     10  C   UNL     1       3.812   3.175  17.315  0.00  0.00    +0.000 A 
ATOM     11  C   UNL     1       2.518   2.743  17.584  0.00  0.00    +0.000 A 
ATOM     12  C   UNL     1       1.599   3.640  18.105  0.00  0.00    +0.000 A 
ATOM     13  C   UNL     1       1.952   4.983  18.275  0.00  0.00    +0.000 A 
ATOM     14  C   UNL     1       3.212   5.473  17.843  0.00  0.00    +0.000 A 
BRANCH   7  15
ATOM     15  O   UNL     1       6.997   6.344  16.582  0.00  0.00    +0.000 OA
ATOM     16  H   UNL     1       7.481   6.055  17.378  0.00  0.00    +0.000 HD
ENDBRANCH   7  15
ENDBRANCH   2   5
BRANCH   3  17
ATOM     17  C   UNL     1       1.284   8.917  19.965  0.00  0.00    +0.000 A 
ATOM     18  C   UNL     1       1.008  10.223  19.568  0.00  0.00    +0.000 A 
ATOM     19  C   UNL     1       0.175  11.050  20.364  0.00  0.00    +0.000 A 
ATOM     20  C   UNL     1      -0.391  10.587  21.567  0.00  0.00    +0.000 A 
ATOM     21  C   UNL     1      -0.166   9.251  21.900  0.00  0.00    +0.000 A 
ATOM     22  C   UNL     1       0.692   8.449  21.141  0.00  0.00    +0.000 A 
BRANCH  20  23
ATOM     23  C   UNL     1      -1.278  11.492  22.388  0.00  0.00    +0.000 C 
ATOM     24  O   UNL     1      -1.108  11.467  23.609  0.00  0.00    +0.000 OA
ATOM     25  N   UNL     1      -2.243  12.335  21.786  0.00  0.00    +0.000 N 
ATOM     26  C   UNL     1      -2.895  13.345  22.635  0.00  0.00    +0.000 C 
ATOM     27  C   UNL     1      -4.308  12.953  23.090  0.00  0.00    +0.000 C 
ATOM     28  C   UNL     1      -5.399  13.101  22.028  0.00  0.00    +0.000 C 
ATOM     29  C   UNL     1      -5.153  12.303  20.752  0.00  0.00    +0.000 C 
ATOM     30  C   UNL     1      -3.980  12.854  19.959  0.00  0.00    +0.000 C 
ATOM     31  C   UNL     1      -2.630  12.288  20.380  0.00  0.00    +0.000 C 
ENDBRANCH  20  23
ENDBRANCH   3  17
TORSDOF 4
ENDMDL
MODEL 6
REMARK VINA RESULT:      -8.7      7.190      9.247
REMARK  Name = 
REMARK  4 active torsions:
REMARK  status: ('A' for Active; 'I' for Inactive)
REMARK    1  A    between atoms: C_2  and  C_19
REMARK    2  A    between atoms: N_3  and  C_4
REMARK    3  A    between atoms: C_7  and  C_8
REMARK    4  A    between atoms: C_21  and  O_22
REMARK                            x       y       z     vdW  Elec       q    Type
REMARK                         _______ _______ _______ _____ _____    ______ ____
ROOT
ATOM      1  O   UNL     1       1.633  12.340  21.010  0.00  0.00    +0.000 OA
ATOM      2  C   UNL     1       0.507  12.134  20.579  0.00  0.00    +0.000 C 
ATOM      3  N   UNL     1       0.118  10.980  19.916  0.00  0.00    +0.000 N 
ATOM      4  H   UNL     1      -0.866  10.893  19.708  0.00  0.00    +0.000 HD
ENDROOT
BRANCH   2   5
ATOM      5  C   UNL     1      -0.601  13.171  20.731  0.00  0.00    +0.000 A 
ATOM      6  C   UNL     1      -0.490  14.365  20.010  0.00  0.00    +0.000 A 
ATOM      7  C   UNL     1      -1.507  15.280  20.104  0.00  0.00    +0.000 A 
ATOM      8  N   UNL     1      -2.548  15.195  20.925  0.00  0.00    +0.000 NA
ATOM      9  C   UNL     1      -2.590  14.132  21.735  0.00  0.00    +0.000 A 
ATOM     10  C   UNL     1      -3.534  14.176  22.749  0.00  0.00    +0.000 A 
ATOM     11  C   UNL     1      -3.635  13.162  23.695  0.00  0.00    +0.000 A 
ATOM     12  C   UNL     1      -2.858  12.023  23.553  0.00  0.00    +0.000 A 
ATOM     13  C   UNL     1      -1.923  11.939  22.516  0.00  0.00    +0.000 A 
ATOM     14  C   UNL     1      -1.688  13.036  21.647  0.00  0.00    +0.000 A 
BRANCH   7  15
ATOM     15  O   UNL     1      -1.499  16.398  19.337  0.00  0.00    +0.000 OA
ATOM     16  H   UNL     1      -1.102  16.043  18.520  0.00  0.00    +0.000 HD
ENDBRANCH   7  15
ENDBRANCH   2   5
BRANCH   3  17
ATOM     17  C   UNL     1       0.869   9.862  19.495  0.00  0.00    +0.000 A 
ATOM     18  C   UNL     1       1.403   9.640  18.228  0.00  0.00    +0.000 A 
ATOM     19  C   UNL     1       2.129   8.452  17.958  0.00  0.00    +0.000 A 
ATOM     20  C   UNL     1       2.329   7.468  18.946  0.00  0.00    +0.000 A 
ATOM     21  C   UNL     1       1.855   7.752  20.226  0.00  0.00    +0.000 A 
ATOM     22  C   UNL     1       1.100   8.901  20.483  0.00  0.00    +0.000 A 
BRANCH  20  23
ATOM     23  C   UNL     1       3.112   6.218  18.626  0.00  0.00    +0.000 C 
ATOM     24  O   UNL     1       4.054   6.346  17.839  0.00  0.00    +0.000 OA
ATOM     25  N   UNL     1       2.791   4.969  19.208  0.00  0.00    +0.000 N 
ATOM     26  C   UNL     1       3.743   3.861  19.023  0.00  0.00    +0.000 C 
ATOM     27  C   UNL     1       3.320   2.857  17.940  0.00  0.00    +0.000 C 
ATOM     28  C   UNL     1       2.220   1.879  18.353  0.00  0.00    +0.000 C 
ATOM     29  C   UNL     1       0.925   2.540  18.813  0.00  0.00    +0.000 C 
ATOM     30  C   UNL     1       1.101   3.264  20.137  0.00  0.00    +0.000 C 
ATOM     31  C   UNL     1       1.592   4.699  19.995  0.00  0.00    +0.000 C 
ENDBRANCH  20  23
ENDBRANCH   3  17
TORSDOF 4
ENDMDL
MODEL 7
REMARK VINA RESULT:      -8.6      6.612     10.722
REMARK  Name = 
REMARK  4 active torsions:
REMARK  status: ('A' for Active; 'I' for Inactive)
REMARK    1  A    between atoms: C_2  and  C_19
REMARK    2  A    between atoms: N_3  and  C_4
REMARK    3  A    between atoms: C_7  and  C_8
REMARK    4  A    between atoms: C_21  and  O_22
REMARK                            x       y       z     vdW  Elec       q    Type
REMARK                         _______ _______ _______ _____ _____    ______ ____
ROOT
ATOM      1  O   UNL     1       1.515   8.519  17.440  0.00  0.00    +0.000 OA
ATOM      2  C   UNL     1       2.109   7.881  18.298  0.00  0.00    +0.000 C 
ATOM      3  N   UNL     1       1.902   8.016  19.663  0.00  0.00    +0.000 N 
ATOM      4  H   UNL     1       2.380   7.355  20.255  0.00  0.00    +0.000 HD
ENDROOT
BRANCH   2   5
ATOM      5  C   UNL     1       3.174   6.855  17.927  0.00  0.00    +0.000 A 
ATOM      6  C   UNL     1       4.382   7.321  17.397  0.00  0.00    +0.000 A 
ATOM      7  C   UNL     1       5.363   6.407  17.107  0.00  0.00    +0.000 A 
ATOM      8  N   UNL     1       5.227   5.086  17.166  0.00  0.00    +0.000 NA
ATOM      9  C   UNL     1       4.027   4.620  17.524  0.00  0.00    +0.000 A 
ATOM     10  C   UNL     1       3.824   3.261  17.343  0.00  0.00    +0.000 A 
ATOM     11  C   UNL     1       2.597   2.664  17.616  0.00  0.00    +0.000 A 
ATOM     12  C   UNL     1       1.591   3.420  18.197  0.00  0.00    +0.000 A 
ATOM     13  C   UNL     1       1.785   4.787  18.423  0.00  0.00    +0.000 A 
ATOM     14  C   UNL     1       2.966   5.443  17.991  0.00  0.00    +0.000 A 
BRANCH   7  15
ATOM     15  O   UNL     1       6.589   6.819  16.701  0.00  0.00    +0.000 OA
ATOM     16  H   UNL     1       6.540   6.595  15.753  0.00  0.00    +0.000 HD
ENDBRANCH   7  15
ENDBRANCH   2   5
BRANCH   3  17
ATOM     17  C   UNL     1       1.095   8.920  20.387  0.00  0.00    +0.000 A 
ATOM     18  C   UNL     1       0.351   8.646  21.532  0.00  0.00    +0.000 A 
ATOM     19  C   UNL     1      -0.425   9.667  22.140  0.00  0.00    +0.000 A 
ATOM     20  C   UNL     1      -0.471  10.972  21.612  0.00  0.00    +0.000 A 
ATOM     21  C   UNL     1       0.346  11.240  20.514  0.00  0.00    +0.000 A 
ATOM     22  C   UNL     1       1.075  10.225  19.886  0.00  0.00    +0.000 A 
BRANCH  20  23
ATOM     23  C   UNL     1      -1.303  12.035  22.287  0.00  0.00    +0.000 C 
ATOM     24  O   UNL     1      -1.008  12.303  23.455  0.00  0.00    +0.000 OA
ATOM     25  N   UNL     1      -2.353  12.700  21.611  0.00  0.00    +0.000 N 
ATOM     26  C   UNL     1      -2.952  13.877  22.264  0.00  0.00    +0.000 C 
ATOM     27  C   UNL     1      -4.297  13.587  22.947  0.00  0.00    +0.000 C 
ATOM     28  C   UNL     1      -5.494  13.467  22.003  0.00  0.00    +0.000 C 
ATOM     29  C   UNL     1      -5.350  12.392  20.932  0.00  0.00    +0.000 C 
ATOM     30  C   UNL     1      -4.284  12.752  19.911  0.00  0.00    +0.000 C 
ATOM     31  C   UNL     1      -2.879  12.317  20.306  0.00  0.00    +0.000 C 
ENDBRANCH  20  23
ENDBRANCH   3  17
TORSDOF 4
ENDMDL
MODEL 8
REMARK VINA RESULT:      -8.6      7.364     11.518
REMARK  Name = 
REMARK  4 active torsions:
REMARK  status: ('A' for Active; 'I' for Inactive)
REMARK    1  A    between atoms: C_2  and  C_19
REMARK    2  A    between atoms: N_3  and  C_4
REMARK    3  A    between atoms: C_7  and  C_8
REMARK    4  A    between atoms: C_21  and  O_22
REMARK                            x       y       z     vdW  Elec       q    Type
REMARK                         _______ _______ _______ _____ _____    ______ ____
ROOT
ATOM      1  O   UNL     1       2.018   8.497  18.913  0.00  0.00    +0.000 OA
ATOM      2  C   UNL     1       1.766   7.751  19.848  0.00  0.00    +0.000 C 
ATOM      3  N   UNL     1       1.013   8.106  20.957  0.00  0.00    +0.000 N 
ATOM      4  H   UNL     1       0.792   7.364  21.604  0.00  0.00    +0.000 HD
ENDROOT
BRANCH   2   5
ATOM      5  C   UNL     1       2.288   6.318  19.881  0.00  0.00    +0.000 A 
ATOM      6  C   UNL     1       1.963   5.524  20.987  0.00  0.00    +0.000 A 
ATOM      7  C   UNL     1       2.388   4.220  21.001  0.00  0.00    +0.000 A 
ATOM      8  N   UNL     1       3.198   3.664  20.105  0.00  0.00    +0.000 NA
ATOM      9  C   UNL     1       3.642   4.454  19.123  0.00  0.00    +0.000 A 
ATOM     10  C   UNL     1       4.670   3.940  18.347  0.00  0.00    +0.000 A 
ATOM     11  C   UNL     1       5.263   4.687  17.336  0.00  0.00    +0.000 A 
ATOM     12  C   UNL     1       4.737   5.928  17.013  0.00  0.00    +0.000 A 
ATOM     13  C   UNL     1       3.675   6.453  17.758  0.00  0.00    +0.000 A 
ATOM     14  C   UNL     1       3.175   5.778  18.901  0.00  0.00    +0.000 A 
BRANCH   7  15
ATOM     15  O   UNL     1       2.002   3.381  21.993  0.00  0.00    +0.000 OA
ATOM     16  H   UNL     1       2.827   3.338  22.512  0.00  0.00    +0.000 HD
ENDBRANCH   7  15
ENDBRANCH   2   5
BRANCH   3  17
ATOM     17  C   UNL     1       0.461   9.348  21.335  0.00  0.00    +0.000 A 
ATOM     18  C   UNL     1       0.522  10.544  20.623  0.00  0.00    +0.000 A 
ATOM     19  C   UNL     1      -0.077  11.718  21.147  0.00  0.00    +0.000 A 
ATOM     20  C   UNL     1      -0.742  11.717  22.389  0.00  0.00    +0.000 A 
ATOM     21  C   UNL     1      -0.859  10.490  23.042  0.00  0.00    +0.000 A 
ATOM     22  C   UNL     1      -0.230   9.342  22.550  0.00  0.00    +0.000 A 
BRANCH  20  23
ATOM     23  C   UNL     1      -1.373  12.983  22.914  0.00  0.00    +0.000 C 
ATOM     24  O   UNL     1      -0.708  13.632  23.726  0.00  0.00    +0.000 OA
ATOM     25  N   UNL     1      -2.652  13.411  22.486  0.00  0.00    +0.000 N 
ATOM     26  C   UNL     1      -3.086  14.765  22.869  0.00  0.00    +0.000 C 
ATOM     27  C   UNL     1      -4.066  14.790  24.051  0.00  0.00    +0.000 C 
ATOM     28  C   UNL     1      -5.504  14.395  23.714  0.00  0.00    +0.000 C 
ATOM     29  C   UNL     1      -5.652  13.007  23.101  0.00  0.00    +0.000 C 
ATOM     30  C   UNL     1      -5.058  12.941  21.703  0.00  0.00    +0.000 C 
ATOM     31  C   UNL     1      -3.570  12.615  21.680  0.00  0.00    +0.000 C 
ENDBRANCH  20  23
ENDBRANCH   3  17
TORSDOF 4
ENDMDL
MODEL 9
REMARK VINA RESULT:      -8.6      6.094      9.894
REMARK  Name = 
REMARK  4 active torsions:
REMARK  status: ('A' for Active; 'I' for Inactive)
REMARK    1  A    between atoms: C_2  and  C_19
REMARK    2  A    between atoms: N_3  and  C_4
REMARK    3  A    between atoms: C_7  and  C_8
REMARK    4  A    between atoms: C_21  and  O_22
REMARK                            x       y       z     vdW  Elec       q    Type
REMARK                         _______ _______ _______ _____ _____    ______ ____
ROOT
ATOM      1  O   UNL     1       1.576   6.069  18.058  0.00  0.00    +0.000 OA
ATOM      2  C   UNL     1       2.477   6.191  18.876  0.00  0.00    +0.000 C 
ATOM      3  N   UNL     1       2.467   7.093  19.929  0.00  0.00    +0.000 N 
ATOM      4  H   UNL     1       3.223   7.017  20.592  0.00  0.00    +0.000 HD
ENDROOT
BRANCH   2   5
ATOM      5  C   UNL     1       3.739   5.338  18.798  0.00  0.00    +0.000 A 
ATOM      6  C   UNL     1       3.749   4.113  19.476  0.00  0.00    +0.000 A 
ATOM      7  C   UNL     1       4.862   3.319  19.371  0.00  0.00    +0.000 A 
ATOM      8  N   UNL     1       6.000   3.662  18.776  0.00  0.00    +0.000 NA
ATOM      9  C   UNL     1       6.061   4.891  18.256  0.00  0.00    +0.000 A 
ATOM     10  C   UNL     1       7.318   5.325  17.864  0.00  0.00    +0.000 A 
ATOM     11  C   UNL     1       7.524   6.607  17.367  0.00  0.00    +0.000 A 
ATOM     12  C   UNL     1       6.432   7.431  17.143  0.00  0.00    +0.000 A 
ATOM     13  C   UNL     1       5.148   7.001  17.496  0.00  0.00    +0.000 A 
ATOM     14  C   UNL     1       4.944   5.766  18.163  0.00  0.00    +0.000 A 
BRANCH   7  15
ATOM     15  O   UNL     1       4.875   2.077  19.914  0.00  0.00    +0.000 OA
ATOM     16  H   UNL     1       3.962   1.794  19.718  0.00  0.00    +0.000 HD
ENDBRANCH   7  15
ENDBRANCH   2   5
BRANCH   3  17
ATOM     17  C   UNL     1       1.543   8.107  20.263  0.00  0.00    +0.000 A 
ATOM     18  C   UNL     1       0.680   8.126  21.356  0.00  0.00    +0.000 A 
ATOM     19  C   UNL     1      -0.203   9.219  21.549  0.00  0.00    +0.000 A 
ATOM     20  C   UNL     1      -0.239  10.306  20.654  0.00  0.00    +0.000 A 
ATOM     21  C   UNL     1       0.692  10.301  19.615  0.00  0.00    +0.000 A 
ATOM     22  C   UNL     1       1.531   9.203  19.397  0.00  0.00    +0.000 A 
BRANCH  20  23
ATOM     23  C   UNL     1      -1.187  11.456  20.892  0.00  0.00    +0.000 C 
ATOM     24  O   UNL     1      -1.153  11.973  22.012  0.00  0.00    +0.000 OA
ATOM     25  N   UNL     1      -2.057  11.925  19.880  0.00  0.00    +0.000 N 
ATOM     26  C   UNL     1      -2.773  13.189  20.123  0.00  0.00    +0.000 C 
ATOM     27  C   UNL     1      -4.237  13.000  20.545  0.00  0.00    +0.000 C 
ATOM     28  C   UNL     1      -5.200  12.641  19.412  0.00  0.00    +0.000 C 
ATOM     29  C   UNL     1      -4.836  11.371  18.650  0.00  0.00    +0.000 C 
ATOM     30  C   UNL     1      -3.569  11.549  17.831  0.00  0.00    +0.000 C 
ATOM     31  C   UNL     1      -2.289  11.258  18.603  0.00  0.00    +0.000 C 
ENDBRANCH  20  23
ENDBRANCH   3  17
TORSDOF 4
ENDMDL
