MODEL 1
REMARK VINA RESULT:      -8.8      0.000      0.000
REMARK  Name = 
REMARK  2 active torsions:
REMARK  status: ('A' for Active; 'I' for Inactive)
REMARK    1  A    between atoms: C_5  and  C_7
REMARK    2  A    between atoms: C_7  and  C_8
REMARK                            x       y       z     vdW  Elec       q    Type
REMARK                         _______ _______ _______ _____ _____    ______ ____
ROOT
ATOM      1  O   UNL     1       7.854   6.816  18.562  0.00  0.00    +0.000 OA
ATOM      2  C   UNL     1       7.312   6.048  17.767  0.00  0.00    +0.000 C 
ATOM      3  C   UNL     1       6.546   4.816  18.211  0.00  0.00    +0.000 C 
ATOM      4  N   UNL     1       5.546   4.342  17.239  0.00  0.00    +0.000 N 
ATOM      5  C   UNL     1       4.220   4.012  17.562  0.00  0.00    +0.000 C 
ATOM      6  O   UNL     1       3.379   3.681  16.723  0.00  0.00    +0.000 OA
ATOM      7  C   UNL     1       6.011   4.338  15.878  0.00  0.00    +0.000 A 
ATOM      8  C   UNL     1       5.504   3.472  14.902  0.00  0.00    +0.000 A 
ATOM      9  C   UNL     1       5.954   3.548  13.580  0.00  0.00    +0.000 A 
ATOM     10  C   UNL     1       6.898   4.503  13.209  0.00  0.00    +0.000 A 
ATOM     11  C   UNL     1       7.416   5.372  14.166  0.00  0.00    +0.000 A 
ATOM     12  C   UNL     1       6.993   5.273  15.494  0.00  0.00    +0.000 A 
ATOM     13  N   UNL     1       7.536   6.164  16.426  0.00  0.00    +0.000 N 
ATOM     14  H   UNL     1       8.143   6.916  16.133  0.00  0.00    +0.000 HD
ENDROOT
BRANCH   5  15
ATOM     15  C   UNL     1       3.795   4.197  19.018  0.00  0.00    +0.000 C 
BRANCH  15  16
ATOM     16  C   UNL     1       3.016   5.461  19.296  0.00  0.00    +0.000 A 
ATOM     17  C   UNL     1       2.326   5.591  20.506  0.00  0.00    +0.000 A 
ATOM     18  C   UNL     1       1.655   6.774  20.813  0.00  0.00    +0.000 A 
ATOM     19  C   UNL     1       1.653   7.850  19.914  0.00  0.00    +0.000 A 
ATOM     20  C   UNL     1       1.005   9.053  20.229  0.00  0.00    +0.000 A 
ATOM     21  C   UNL     1       1.010  10.120  19.331  0.00  0.00    +0.000 A 
ATOM     22  C   UNL     1       1.659   9.991  18.106  0.00  0.00    +0.000 A 
ATOM     23  C   UNL     1       2.307   8.799  17.778  0.00  0.00    +0.000 A 
ATOM     24  C   UNL     1       2.321   7.720  18.677  0.00  0.00    +0.000 A 
ATOM     25  C   UNL     1       2.992   6.519  18.378  0.00  0.00    +0.000 A 
ENDBRANCH  15  16
ENDBRANCH   5  15
TORSDOF 2
ENDMDL
MODEL 2
REMARK VINA RESULT:      -8.6      0.956      1.900
REMARK  Name = 
REMARK  2 active torsions:
REMARK  status: ('A' for Active; 'I' for Inactive)
REMARK    1  A    between atoms: C_5  and  C_7
REMARK    2  A    between atoms: C_7  and  C_8
REMARK                            x       y       z     vdW  Elec       q    Type
REMARK                         _______ _______ _______ _____ _____    ______ ____
ROOT
ATOM      1  O   UNL     1       8.044   7.358  18.504  0.00  0.00    +0.000 OA
ATOM      2  C   UNL     1       7.362   6.554  17.870  0.00  0.00    +0.000 C 
ATOM      3  C   UNL     1       6.398   5.590  18.538  0.00  0.00    +0.000 C 
ATOM      4  N   UNL     1       5.314   5.114  17.662  0.00  0.00    +0.000 N 
ATOM      5  C   UNL     1       3.957   5.094  18.020  0.00  0.00    +0.000 C 
ATOM      6  O   UNL     1       3.056   4.754  17.249  0.00  0.00    +0.000 OA
ATOM      7  C   UNL     1       5.748   4.754  16.339  0.00  0.00    +0.000 A 
ATOM      8  C   UNL     1       5.080   3.813  15.548  0.00  0.00    +0.000 A 
ATOM      9  C   UNL     1       5.513   3.541  14.246  0.00  0.00    +0.000 A 
ATOM     10  C   UNL     1       6.604   4.220  13.709  0.00  0.00    +0.000 A 
ATOM     11  C   UNL     1       7.283   5.159  14.481  0.00  0.00    +0.000 A 
ATOM     12  C   UNL     1       6.872   5.405  15.793  0.00  0.00    +0.000 A 
ATOM     13  N   UNL     1       7.580   6.355  16.537  0.00  0.00    +0.000 N 
ATOM     14  H   UNL     1       8.305   6.915  16.110  0.00  0.00    +0.000 HD
ENDROOT
BRANCH   5  15
ATOM     15  C   UNL     1       3.596   5.640  19.401  0.00  0.00    +0.000 C 
BRANCH  15  16
ATOM     16  C   UNL     1       2.780   6.912  19.387  0.00  0.00    +0.000 A 
ATOM     17  C   UNL     1       2.744   7.693  18.227  0.00  0.00    +0.000 A 
ATOM     18  C   UNL     1       1.947   8.835  18.169  0.00  0.00    +0.000 A 
ATOM     19  C   UNL     1       1.172   9.224  19.270  0.00  0.00    +0.000 A 
ATOM     20  C   UNL     1       0.345  10.355  19.207  0.00  0.00    +0.000 A 
ATOM     21  C   UNL     1      -0.425  10.735  20.307  0.00  0.00    +0.000 A 
ATOM     22  C   UNL     1      -0.370   9.990  21.481  0.00  0.00    +0.000 A 
ATOM     23  C   UNL     1       0.450   8.862  21.559  0.00  0.00    +0.000 A 
ATOM     24  C   UNL     1       1.222   8.460  20.456  0.00  0.00    +0.000 A 
ATOM     25  C   UNL     1       2.034   7.312  20.504  0.00  0.00    +0.000 A 
ENDBRANCH  15  16
ENDBRANCH   5  15
TORSDOF 2
ENDMDL
MODEL 3
REMARK VINA RESULT:      -8.3      3.960      8.335
REMARK  Name = 
REMARK  2 active torsions:
REMARK  status: ('A' for Active; 'I' for Inactive)
REMARK    1  A    between atoms: C_5  and  C_7
REMARK    2  A    between atoms: C_7  and  C_8
REMARK                            x       y       z     vdW  Elec       q    Type
REMARK                         _______ _______ _______ _____ _____    ______ ____
ROOT
ATOM      1  O   UNL     1       0.818  13.061  18.092  0.00  0.00    +0.000 OA
ATOM      2  C   UNL     1       0.587  12.167  18.906  0.00  0.00    +0.000 C 
ATOM      3  C   UNL     1       0.508  10.702  18.513  0.00  0.00    +0.000 C 
ATOM      4  N   UNL     1       0.766   9.765  19.620  0.00  0.00    +0.000 N 
ATOM      5  C   UNL     1       1.641   8.669  19.541  0.00  0.00    +0.000 C 
ATOM      6  O   UNL     1       1.896   7.934  20.499  0.00  0.00    +0.000 OA
ATOM      7  C   UNL     1       0.118  10.122  20.852  0.00  0.00    +0.000 A 
ATOM      8  C   UNL     1      -0.238   9.182  21.826  0.00  0.00    +0.000 A 
ATOM      9  C   UNL     1      -0.817   9.591  23.032  0.00  0.00    +0.000 A 
ATOM     10  C   UNL     1      -1.029  10.943  23.291  0.00  0.00    +0.000 A 
ATOM     11  C   UNL     1      -0.682  11.893  22.334  0.00  0.00    +0.000 A 
ATOM     12  C   UNL     1      -0.136  11.483  21.116  0.00  0.00    +0.000 A 
ATOM     13  N   UNL     1       0.199  12.467  20.179  0.00  0.00    +0.000 N 
ATOM     14  H   UNL     1       0.137  13.448  20.412  0.00  0.00    +0.000 HD
ENDROOT
BRANCH   5  15
ATOM     15  C   UNL     1       2.391   8.472  18.224  0.00  0.00    +0.000 C 
BRANCH  15  16
ATOM     16  C   UNL     1       2.838   7.055  17.954  0.00  0.00    +0.000 A 
ATOM     17  C   UNL     1       4.140   6.820  17.498  0.00  0.00    +0.000 A 
ATOM     18  C   UNL     1       4.596   5.517  17.305  0.00  0.00    +0.000 A 
ATOM     19  C   UNL     1       3.760   4.421  17.557  0.00  0.00    +0.000 A 
ATOM     20  C   UNL     1       4.223   3.107  17.392  0.00  0.00    +0.000 A 
ATOM     21  C   UNL     1       3.385   2.021  17.648  0.00  0.00    +0.000 A 
ATOM     22  C   UNL     1       2.075   2.240  18.063  0.00  0.00    +0.000 A 
ATOM     23  C   UNL     1       1.600   3.542  18.230  0.00  0.00    +0.000 A 
ATOM     24  C   UNL     1       2.435   4.646  17.989  0.00  0.00    +0.000 A 
ATOM     25  C   UNL     1       1.985   5.966  18.177  0.00  0.00    +0.000 A 
ENDBRANCH  15  16
ENDBRANCH   5  15
TORSDOF 2
ENDMDL
MODEL 4
REMARK VINA RESULT:      -8.2      2.856      4.366
REMARK  Name = 
REMARK  2 active torsions:
REMARK  status: ('A' for Active; 'I' for Inactive)
REMARK    1  A    between atoms: C_5  and  C_7
REMARK    2  A    between atoms: C_7  and  C_8
REMARK                            x       y       z     vdW  Elec       q    Type
REMARK                         _______ _______ _______ _____ _____    ______ ____
ROOT
ATOM      1  O   UNL     1       6.850   5.465  19.128  0.00  0.00    +0.000 OA
ATOM      2  C   UNL     1       5.698   5.033  19.078  0.00  0.00    +0.000 C 
ATOM      3  C   UNL     1       4.489   5.885  19.416  0.00  0.00    +0.000 C 
ATOM      4  N   UNL     1       3.231   5.420  18.804  0.00  0.00    +0.000 N 
ATOM      5  C   UNL     1       2.330   6.249  18.118  0.00  0.00    +0.000 C 
ATOM      6  O   UNL     1       1.315   5.831  17.555  0.00  0.00    +0.000 OA
ATOM      7  C   UNL     1       3.039   3.997  18.875  0.00  0.00    +0.000 A 
ATOM      8  C   UNL     1       1.774   3.399  18.878  0.00  0.00    +0.000 A 
ATOM      9  C   UNL     1       1.645   2.006  18.892  0.00  0.00    +0.000 A 
ATOM     10  C   UNL     1       2.775   1.192  18.882  0.00  0.00    +0.000 A 
ATOM     11  C   UNL     1       4.043   1.768  18.880  0.00  0.00    +0.000 A 
ATOM     12  C   UNL     1       4.172   3.159  18.901  0.00  0.00    +0.000 A 
ATOM     13  N   UNL     1       5.462   3.701  18.899  0.00  0.00    +0.000 N 
ATOM     14  H   UNL     1       6.273   3.109  18.790  0.00  0.00    +0.000 HD
ENDROOT
BRANCH   5  15
ATOM     15  C   UNL     1       2.712   7.723  17.977  0.00  0.00    +0.000 C 
BRANCH  15  16
ATOM     16  C   UNL     1       1.908   8.671  18.834  0.00  0.00    +0.000 A 
ATOM     17  C   UNL     1       1.426   9.861  18.277  0.00  0.00    +0.000 A 
ATOM     18  C   UNL     1       0.627  10.721  19.030  0.00  0.00    +0.000 A 
ATOM     19  C   UNL     1       0.297  10.413  20.357  0.00  0.00    +0.000 A 
ATOM     20  C   UNL     1      -0.531  11.259  21.109  0.00  0.00    +0.000 A 
ATOM     21  C   UNL     1      -0.858  10.945  22.428  0.00  0.00    +0.000 A 
ATOM     22  C   UNL     1      -0.355   9.785  23.009  0.00  0.00    +0.000 A 
ATOM     23  C   UNL     1       0.472   8.934  22.273  0.00  0.00    +0.000 A 
ATOM     24  C   UNL     1       0.800   9.230  20.939  0.00  0.00    +0.000 A 
ATOM     25  C   UNL     1       1.609   8.373  20.171  0.00  0.00    +0.000 A 
ENDBRANCH  15  16
ENDBRANCH   5  15
TORSDOF 2
ENDMDL
MODEL 5
REMARK VINA RESULT:      -8.0      4.045      8.444
REMARK  Name = 
REMARK  2 active torsions:
REMARK  status: ('A' for Active; 'I' for Inactive)
REMARK    1  A    between atoms: C_5  and  C_7
REMARK    2  A    between atoms: C_7  and  C_8
REMARK                            x       y       z     vdW  Elec       q    Type
REMARK                         _______ _______ _______ _____ _____    ______ ____
ROOT
ATOM      1  O   UNL     1      -0.382  12.876  17.877  0.00  0.00    +0.000 OA
ATOM      2  C   UNL     1      -0.331  12.010  18.750  0.00  0.00    +0.000 C 
ATOM      3  C   UNL     1      -0.138  10.538  18.433  0.00  0.00    +0.000 C 
ATOM      4  N   UNL     1       0.430   9.750  19.540  0.00  0.00    +0.000 N 
ATOM      5  C   UNL     1       1.503   8.855  19.407  0.00  0.00    +0.000 C 
ATOM      6  O   UNL     1       2.009   8.254  20.358  0.00  0.00    +0.000 OA
ATOM      7  C   UNL     1      -0.145  10.047  20.824  0.00  0.00    +0.000 A 
ATOM      8  C   UNL     1      -0.189   9.121  21.872  0.00  0.00    +0.000 A 
ATOM      9  C   UNL     1      -0.711   9.481  23.119  0.00  0.00    +0.000 A 
ATOM     10  C   UNL     1      -1.176  10.775  23.343  0.00  0.00    +0.000 A 
ATOM     11  C   UNL     1      -1.142  11.710  22.312  0.00  0.00    +0.000 A 
ATOM     12  C   UNL     1      -0.654  11.341  21.057  0.00  0.00    +0.000 A 
ATOM     13  N   UNL     1      -0.637  12.309  20.046  0.00  0.00    +0.000 N 
ATOM     14  H   UNL     1      -0.881  13.269  20.243  0.00  0.00    +0.000 HD
ENDROOT
BRANCH   5  15
ATOM     15  C   UNL     1       2.134   8.730  18.020  0.00  0.00    +0.000 C 
BRANCH  15  16
ATOM     16  C   UNL     1       2.828   7.415  17.755  0.00  0.00    +0.000 A 
ATOM     17  C   UNL     1       2.196   6.220  18.113  0.00  0.00    +0.000 A 
ATOM     18  C   UNL     1       2.788   4.992  17.819  0.00  0.00    +0.000 A 
ATOM     19  C   UNL     1       4.028   4.932  17.168  0.00  0.00    +0.000 A 
ATOM     20  C   UNL     1       4.614   3.700  16.843  0.00  0.00    +0.000 A 
ATOM     21  C   UNL     1       5.847   3.650  16.193  0.00  0.00    +0.000 A 
ATOM     22  C   UNL     1       6.507   4.830  15.866  0.00  0.00    +0.000 A 
ATOM     23  C   UNL     1       5.936   6.064  16.184  0.00  0.00    +0.000 A 
ATOM     24  C   UNL     1       4.690   6.132  16.829  0.00  0.00    +0.000 A 
ATOM     25  C   UNL     1       4.084   7.365  17.134  0.00  0.00    +0.000 A 
ENDBRANCH  15  16
ENDBRANCH   5  15
TORSDOF 2
ENDMDL
MODEL 6
REMARK VINA RESULT:      -7.9      2.027      3.799
REMARK  Name = 
REMARK  2 active torsions:
REMARK  status: ('A' for Active; 'I' for Inactive)
REMARK    1  A    between atoms: C_5  and  C_7
REMARK    2  A    between atoms: C_7  and  C_8
REMARK                            x       y       z     vdW  Elec       q    Type
REMARK                         _______ _______ _______ _____ _____    ______ ____
ROOT
ATOM      1  O   UNL     1       2.971   1.693  18.708  0.00  0.00    +0.000 OA
ATOM      2  C   UNL     1       3.372   2.709  18.141  0.00  0.00    +0.000 C 
ATOM      3  C   UNL     1       2.579   4.002  18.119  0.00  0.00    +0.000 C 
ATOM      4  N   UNL     1       3.394   5.209  17.897  0.00  0.00    +0.000 N 
ATOM      5  C   UNL     1       3.306   6.378  18.670  0.00  0.00    +0.000 C 
ATOM      6  O   UNL     1       4.044   7.354  18.511  0.00  0.00    +0.000 OA
ATOM      7  C   UNL     1       4.387   5.062  16.867  0.00  0.00    +0.000 A 
ATOM      8  C   UNL     1       4.876   6.140  16.122  0.00  0.00    +0.000 A 
ATOM      9  C   UNL     1       5.882   5.948  15.169  0.00  0.00    +0.000 A 
ATOM     10  C   UNL     1       6.428   4.683  14.962  0.00  0.00    +0.000 A 
ATOM     11  C   UNL     1       5.952   3.597  15.693  0.00  0.00    +0.000 A 
ATOM     12  C   UNL     1       4.924   3.782  16.620  0.00  0.00    +0.000 A 
ATOM     13  N   UNL     1       4.472   2.667  17.334  0.00  0.00    +0.000 N 
ATOM     14  H   UNL     1       4.938   1.775  17.252  0.00  0.00    +0.000 HD
ENDROOT
BRANCH   5  15
ATOM     15  C   UNL     1       2.318   6.367  19.835  0.00  0.00    +0.000 C 
BRANCH  15  16
ATOM     16  C   UNL     1       1.650   7.693  20.114  0.00  0.00    +0.000 A 
ATOM     17  C   UNL     1       1.575   8.651  19.097  0.00  0.00    +0.000 A 
ATOM     18  C   UNL     1       0.907   9.856  19.311  0.00  0.00    +0.000 A 
ATOM     19  C   UNL     1       0.305  10.132  20.546  0.00  0.00    +0.000 A 
ATOM     20  C   UNL     1      -0.394  11.330  20.757  0.00  0.00    +0.000 A 
ATOM     21  C   UNL     1      -0.992  11.596  21.989  0.00  0.00    +0.000 A 
ATOM     22  C   UNL     1      -0.892  10.669  23.023  0.00  0.00    +0.000 A 
ATOM     23  C   UNL     1      -0.199   9.473  22.827  0.00  0.00    +0.000 A 
ATOM     24  C   UNL     1       0.400   9.185  21.589  0.00  0.00    +0.000 A 
ATOM     25  C   UNL     1       1.080   7.975  21.362  0.00  0.00    +0.000 A 
ENDBRANCH  15  16
ENDBRANCH   5  15
TORSDOF 2
ENDMDL
MODEL 7
REMARK VINA RESULT:      -7.9      4.642      9.085
REMARK  Name = 
REMARK  2 active torsions:
REMARK  status: ('A' for Active; 'I' for Inactive)
REMARK    1  A    between atoms: C_5  and  C_7
REMARK    2  A    between atoms: C_7  and  C_8
REMARK                            x       y       z     vdW  Elec       q    Type
REMARK                         _______ _______ _______ _____ _____    ______ ____
ROOT
ATOM      1  O   UNL     1      -2.711  10.938  15.826  0.00  0.00    +0.000 OA
ATOM      2  C   UNL     1      -2.356  11.056  16.998  0.00  0.00    +0.000 C 
ATOM      3  C   UNL     1      -1.383  10.097  17.660  0.00  0.00    +0.000 C 
ATOM      4  N   UNL     1      -0.671  10.662  18.819  0.00  0.00    +0.000 N 
ATOM      5  C   UNL     1       0.716  10.574  19.018  0.00  0.00    +0.000 C 
ATOM      6  O   UNL     1       1.303  11.111  19.961  0.00  0.00    +0.000 OA
ATOM      7  C   UNL     1      -1.511  11.420  19.708  0.00  0.00    +0.000 A 
ATOM      8  C   UNL     1      -1.233  11.575  21.070  0.00  0.00    +0.000 A 
ATOM      9  C   UNL     1      -2.054  12.369  21.878  0.00  0.00    +0.000 A 
ATOM     10  C   UNL     1      -3.150  13.034  21.333  0.00  0.00    +0.000 A 
ATOM     11  C   UNL     1      -3.444  12.890  19.980  0.00  0.00    +0.000 A 
ATOM     12  C   UNL     1      -2.644  12.070  19.180  0.00  0.00    +0.000 A 
ATOM     13  N   UNL     1      -2.972  11.950  17.825  0.00  0.00    +0.000 N 
ATOM     14  H   UNL     1      -3.705  12.512  17.417  0.00  0.00    +0.000 HD
ENDROOT
BRANCH   5  15
ATOM     15  C   UNL     1       1.529   9.873  17.930  0.00  0.00    +0.000 C 
BRANCH  15  16
ATOM     16  C   UNL     1       2.145   8.558  18.348  0.00  0.00    +0.000 A 
ATOM     17  C   UNL     1       1.764   7.975  19.561  0.00  0.00    +0.000 A 
ATOM     18  C   UNL     1       2.270   6.731  19.936  0.00  0.00    +0.000 A 
ATOM     19  C   UNL     1       3.172   6.046  19.110  0.00  0.00    +0.000 A 
ATOM     20  C   UNL     1       3.661   4.781  19.469  0.00  0.00    +0.000 A 
ATOM     21  C   UNL     1       4.557   4.105  18.640  0.00  0.00    +0.000 A 
ATOM     22  C   UNL     1       4.976   4.690  17.449  0.00  0.00    +0.000 A 
ATOM     23  C   UNL     1       4.498   5.949  17.080  0.00  0.00    +0.000 A 
ATOM     24  C   UNL     1       3.587   6.638  17.898  0.00  0.00    +0.000 A 
ATOM     25  C   UNL     1       3.072   7.895  17.532  0.00  0.00    +0.000 A 
ENDBRANCH  15  16
ENDBRANCH   5  15
TORSDOF 2
ENDMDL
MODEL 8
REMARK VINA RESULT:      -7.9      4.250      8.708
REMARK  Name = 
REMARK  2 active torsions:
REMARK  status: ('A' for Active; 'I' for Inactive)
REMARK    1  A    between atoms: C_5  and  C_7
REMARK    2  A    between atoms: C_7  and  C_8
REMARK                            x       y       z     vdW  Elec       q    Type
REMARK                         _______ _______ _______ _____ _____    ______ ____
ROOT
ATOM      1  O   UNL     1      -1.906  12.016  17.156  0.00  0.00    +0.000 OA
ATOM      2  C   UNL     1      -1.521  11.479  18.194  0.00  0.00    +0.000 C 
ATOM      3  C   UNL     1      -0.956  10.070  18.227  0.00  0.00    +0.000 C 
ATOM      4  N   UNL     1      -0.077   9.798  19.377  0.00  0.00    +0.000 N 
ATOM      5  C   UNL     1       1.185   9.190  19.283  0.00  0.00    +0.000 C 
ATOM      6  O   UNL     1       1.936   9.031  20.249  0.00  0.00    +0.000 OA
ATOM      7  C   UNL     1      -0.576  10.305  20.627  0.00  0.00    +0.000 A 
ATOM      8  C   UNL     1      -0.247   9.740  21.864  0.00  0.00    +0.000 A 
ATOM      9  C   UNL     1      -0.716  10.308  23.053  0.00  0.00    +0.000 A 
ATOM     10  C   UNL     1      -1.501  11.458  23.025  0.00  0.00    +0.000 A 
ATOM     11  C   UNL     1      -1.840  12.034  21.803  0.00  0.00    +0.000 A 
ATOM     12  C   UNL     1      -1.401  11.448  20.614  0.00  0.00    +0.000 A 
ATOM     13  N   UNL     1      -1.763  12.055  19.407  0.00  0.00    +0.000 N 
ATOM     14  H   UNL     1      -2.246  12.943  19.397  0.00  0.00    +0.000 HD
ENDROOT
BRANCH   5  15
ATOM     15  C   UNL     1       1.678   8.827  17.883  0.00  0.00    +0.000 C 
BRANCH  15  16
ATOM     16  C   UNL     1       2.379   7.492  17.784  0.00  0.00    +0.000 A 
ATOM     17  C   UNL     1       3.763   7.457  17.583  0.00  0.00    +0.000 A 
ATOM     18  C   UNL     1       4.441   6.239  17.553  0.00  0.00    +0.000 A 
ATOM     19  C   UNL     1       3.750   5.030  17.718  0.00  0.00    +0.000 A 
ATOM     20  C   UNL     1       4.431   3.804  17.719  0.00  0.00    +0.000 A 
ATOM     21  C   UNL     1       3.737   2.606  17.887  0.00  0.00    +0.000 A 
ATOM     22  C   UNL     1       2.354   2.623  18.049  0.00  0.00    +0.000 A 
ATOM     23  C   UNL     1       1.663   3.836  18.048  0.00  0.00    +0.000 A 
ATOM     24  C   UNL     1       2.349   5.052  17.893  0.00  0.00    +0.000 A 
ATOM     25  C   UNL     1       1.676   6.287  17.917  0.00  0.00    +0.000 A 
ENDBRANCH  15  16
ENDBRANCH   5  15
TORSDOF 2
ENDMDL
MODEL 9
REMARK VINA RESULT:      -7.8      6.290     10.513
REMARK  Name = 
REMARK  2 active torsions:
REMARK  status: ('A' for Active; 'I' for Inactive)
REMARK    1  A    between atoms: C_5  and  C_7
REMARK    2  A    between atoms: C_7  and  C_8
REMARK                            x       y       z     vdW  Elec       q    Type
REMARK                         _______ _______ _______ _____ _____    ______ ____
ROOT
ATOM      1  O   UNL     1      -3.289  10.833  15.097  0.00  0.00    +0.000 OA
ATOM      2  C   UNL     1      -3.674  11.115  16.232  0.00  0.00    +0.000 C 
ATOM      3  C   UNL     1      -2.812  10.907  17.464  0.00  0.00    +0.000 C 
ATOM      4  N   UNL     1      -3.176  11.761  18.608  0.00  0.00    +0.000 N 
ATOM      5  C   UNL     1      -2.258  12.508  19.363  0.00  0.00    +0.000 C 
ATOM      6  O   UNL     1      -2.589  13.269  20.276  0.00  0.00    +0.000 OA
ATOM      7  C   UNL     1      -4.592  11.856  18.839  0.00  0.00    +0.000 A 
ATOM      8  C   UNL     1      -5.143  12.119  20.098  0.00  0.00    +0.000 A 
ATOM      9  C   UNL     1      -6.526  12.256  20.256  0.00  0.00    +0.000 A 
ATOM     10  C   UNL     1      -7.376  12.153  19.156  0.00  0.00    +0.000 A 
ATOM     11  C   UNL     1      -6.847  11.890  17.896  0.00  0.00    +0.000 A 
ATOM     12  C   UNL     1      -5.469  11.718  17.744  0.00  0.00    +0.000 A 
ATOM     13  N   UNL     1      -4.975  11.454  16.461  0.00  0.00    +0.000 N 
ATOM     14  H   UNL     1      -5.584  11.480  15.656  0.00  0.00    +0.000 HD
ENDROOT
BRANCH   5  15
ATOM     15  C   UNL     1      -0.793  12.446  18.933  0.00  0.00    +0.000 C 
BRANCH  15  16
ATOM     16  C   UNL     1      -0.067  11.183  19.335  0.00  0.00    +0.000 A 
ATOM     17  C   UNL     1      -0.196  10.703  20.642  0.00  0.00    +0.000 A 
ATOM     18  C   UNL     1       0.412   9.506  21.018  0.00  0.00    +0.000 A 
ATOM     19  C   UNL     1       1.167   8.766  20.096  0.00  0.00    +0.000 A 
ATOM     20  C   UNL     1       1.755   7.546  20.460  0.00  0.00    +0.000 A 
ATOM     21  C   UNL     1       2.502   6.814  19.537  0.00  0.00    +0.000 A 
ATOM     22  C   UNL     1       2.673   7.299  18.244  0.00  0.00    +0.000 A 
ATOM     23  C   UNL     1       2.093   8.512  17.868  0.00  0.00    +0.000 A 
ATOM     24  C   UNL     1       1.328   9.255  18.782  0.00  0.00    +0.000 A 
ATOM     25  C   UNL     1       0.713  10.467  18.417  0.00  0.00    +0.000 A 
ENDBRANCH  15  16
ENDBRANCH   5  15
TORSDOF 2
ENDMDL
