MODEL 1
REMARK VINA RESULT:      -8.6      0.000      0.000
REMARK  Name = 
REMARK  6 active torsions:
REMARK  status: ('A' for Active; 'I' for Inactive)
REMARK    1  A    between atoms: C_1  and  C_2
REMARK    2  A    between atoms: C_5  and  C_6
REMARK    3  A    between atoms: C_6  and  C_7
REMARK    4  A    between atoms: N_11  and  C_12
REMARK    5  A    between atoms: C_12  and  C_13
REMARK    6  A    between atoms: C_16  and  C_17
REMARK                            x       y       z     vdW  Elec       q    Type
REMARK                         _______ _______ _______ _____ _____    ______ ____
ROOT
ATOM      1  C   UNL     1       4.698   5.220  17.455  0.00  0.00    +0.000 C 
ATOM      2  C   UNL     1       4.279   6.595  16.896  0.00  0.00    +0.000 C 
ATOM      3  N   UNL     1       5.619   4.574  16.543  0.00  0.00    +0.000 N 
ATOM      4  C   UNL     1       6.928   4.865  16.848  0.00  0.00    +0.000 C 
ATOM      5  O   UNL     1       7.878   4.598  16.132  0.00  0.00    +0.000 OA
ATOM      6  N   UNL     1       6.962   5.466  18.069  0.00  0.00    +0.000 N 
ATOM      7  C   UNL     1       5.697   5.553  18.588  0.00  0.00    +0.000 C 
ATOM      8  O   UNL     1       5.416   5.928  19.719  0.00  0.00    +0.000 OA
ATOM      9  H   UNL     1       5.369   4.180  15.647  0.00  0.00    +0.000 HD
ENDROOT
BRANCH   1  14
ATOM     10  C   UNL     1       0.217   1.728  18.920  0.00  0.00    +0.000 C 
ATOM     11  C   UNL     1       1.343   2.629  18.506  0.00  0.00    +0.000 A 
ATOM     12  C   UNL     1       1.271   4.006  18.712  0.00  0.00    +0.000 A 
ATOM     13  C   UNL     1       2.343   4.831  18.353  0.00  0.00    +0.000 A 
ATOM     14  C   UNL     1       3.530   4.310  17.800  0.00  0.00    +0.000 A 
ATOM     15  C   UNL     1       3.569   2.926  17.559  0.00  0.00    +0.000 A 
ATOM     16  C   UNL     1       2.494   2.098  17.915  0.00  0.00    +0.000 A 
ENDBRANCH   1  14
BRANCH   6  17
ATOM     17  C   UNL     1       8.137   6.073  18.658  0.00  0.00    +0.000 C 
BRANCH  17  18
ATOM     18  C   UNL     1       8.174   7.533  18.314  0.00  0.00    +0.000 A 
ATOM     19  N   UNL     1       7.515   8.179  17.369  0.00  0.00    +0.000 NA
ATOM     20  C   UNL     1       7.909   9.483  17.523  0.00  0.00    +0.000 A 
ATOM     21  C   UNL     1       8.806   9.600  18.563  0.00  0.00    +0.000 A 
ATOM     22  O   UNL     1       8.980   8.338  19.083  0.00  0.00    +0.000 OA
BRANCH  21  23
ATOM     23  C   UNL     1       9.543  10.705  19.171  0.00  0.00    +0.000 A 
ATOM     24  C   UNL     1      10.448  11.461  18.405  0.00  0.00    +0.000 A 
ATOM     25  C   UNL     1      11.166  12.520  18.971  0.00  0.00    +0.000 A 
ATOM     26  C   UNL     1      10.992  12.841  20.313  0.00  0.00    +0.000 A 
ATOM     27  C   UNL     1      10.101  12.104  21.089  0.00  0.00    +0.000 A 
ATOM     28  C   UNL     1       9.381  11.044  20.523  0.00  0.00    +0.000 A 
ENDBRANCH  21  23
ENDBRANCH  17  18
ENDBRANCH   6  17
TORSDOF 4
ENDMDL
MODEL 2
REMARK VINA RESULT:      -8.1      4.654      6.924
REMARK  Name = 
REMARK  6 active torsions:
REMARK  status: ('A' for Active; 'I' for Inactive)
REMARK    1  A    between atoms: C_1  and  C_2
REMARK    2  A    between atoms: C_5  and  C_6
REMARK    3  A    between atoms: C_6  and  C_7
REMARK    4  A    between atoms: N_11  and  C_12
REMARK    5  A    between atoms: C_12  and  C_13
REMARK    6  A    between atoms: C_16  and  C_17
REMARK                            x       y       z     vdW  Elec       q    Type
REMARK                         _______ _______ _______ _____ _____    ______ ____
ROOT
ATOM      1  C   UNL     1       2.512   6.898  18.555  0.00  0.00    +0.000 C 
ATOM      2  C   UNL     1       3.310   7.590  17.431  0.00  0.00    +0.000 C 
ATOM      3  N   UNL     1       1.575   5.951  17.988  0.00  0.00    +0.000 N 
ATOM      4  C   UNL     1       2.121   4.693  17.884  0.00  0.00    +0.000 C 
ATOM      5  O   UNL     1       1.609   3.768  17.276  0.00  0.00    +0.000 OA
ATOM      6  N   UNL     1       3.288   4.671  18.584  0.00  0.00    +0.000 N 
ATOM      7  C   UNL     1       3.509   5.889  19.172  0.00  0.00    +0.000 C 
ATOM      8  O   UNL     1       4.407   6.144  19.964  0.00  0.00    +0.000 OA
ATOM      9  H   UNL     1       0.734   6.196  17.484  0.00  0.00    +0.000 HD
ENDROOT
BRANCH   1  14
ATOM     10  C   UNL     1      -0.276  10.534  22.220  0.00  0.00    +0.000 C 
ATOM     11  C   UNL     1       0.475   9.619  21.299  0.00  0.00    +0.000 A 
ATOM     12  C   UNL     1       0.880   8.354  21.720  0.00  0.00    +0.000 A 
ATOM     13  C   UNL     1       1.550   7.496  20.841  0.00  0.00    +0.000 A 
ATOM     14  C   UNL     1       1.818   7.861  19.506  0.00  0.00    +0.000 A 
ATOM     15  C   UNL     1       1.443   9.156  19.110  0.00  0.00    +0.000 A 
ATOM     16  C   UNL     1       0.774  10.018  19.992  0.00  0.00    +0.000 A 
ENDBRANCH   1  14
BRANCH   6  17
ATOM     17  C   UNL     1       4.237   3.577  18.573  0.00  0.00    +0.000 C 
BRANCH  17  18
ATOM     18  C   UNL     1       5.442   3.967  17.768  0.00  0.00    +0.000 A 
ATOM     19  N   UNL     1       6.635   4.343  18.190  0.00  0.00    +0.000 NA
ATOM     20  C   UNL     1       7.344   4.553  17.036  0.00  0.00    +0.000 A 
ATOM     21  C   UNL     1       6.559   4.301  15.931  0.00  0.00    +0.000 A 
ATOM     22  O   UNL     1       5.324   3.917  16.399  0.00  0.00    +0.000 OA
BRANCH  21  23
ATOM     23  C   UNL     1       6.764   4.355  14.486  0.00  0.00    +0.000 A 
ATOM     24  C   UNL     1       6.056   3.488  13.636  0.00  0.00    +0.000 A 
ATOM     25  C   UNL     1       6.241   3.521  12.249  0.00  0.00    +0.000 A 
ATOM     26  C   UNL     1       7.140   4.423  11.689  0.00  0.00    +0.000 A 
ATOM     27  C   UNL     1       7.852   5.290  12.514  0.00  0.00    +0.000 A 
ATOM     28  C   UNL     1       7.666   5.257  13.902  0.00  0.00    +0.000 A 
ENDBRANCH  21  23
ENDBRANCH  17  18
ENDBRANCH   6  17
TORSDOF 4
ENDMDL
MODEL 3
REMARK VINA RESULT:      -8.1      4.342      6.650
REMARK  Name = 
REMARK  6 active torsions:
REMARK  status: ('A' for Active; 'I' for Inactive)
REMARK    1  A    between atoms: C_1  and  C_2
REMARK    2  A    between atoms: C_5  and  C_6
REMARK    3  A    between atoms: C_6  and  C_7
REMARK    4  A    between atoms: N_11  and  C_12
REMARK    5  A    between atoms: C_12  and  C_13
REMARK    6  A    between atoms: C_16  and  C_17
REMARK                            x       y       z     vdW  Elec       q    Type
REMARK                         _______ _______ _______ _____ _____    ______ ____
ROOT
ATOM      1  C   UNL     1       5.859   5.290  16.241  0.00  0.00    +0.000 C 
ATOM      2  C   UNL     1       4.963   6.545  16.263  0.00  0.00    +0.000 C 
ATOM      3  N   UNL     1       7.041   5.510  17.049  0.00  0.00    +0.000 N 
ATOM      4  C   UNL     1       6.854   5.101  18.349  0.00  0.00    +0.000 C 
ATOM      5  O   UNL     1       7.621   5.343  19.265  0.00  0.00    +0.000 OA
ATOM      6  N   UNL     1       5.701   4.380  18.412  0.00  0.00    +0.000 N 
ATOM      7  C   UNL     1       5.136   4.283  17.167  0.00  0.00    +0.000 C 
ATOM      8  O   UNL     1       4.165   3.596  16.877  0.00  0.00    +0.000 OA
ATOM      9  H   UNL     1       7.810   6.116  16.800  0.00  0.00    +0.000 HD
ENDROOT
BRANCH   1  14
ATOM     10  C   UNL     1       7.296   3.328  10.902  0.00  0.00    +0.000 C 
ATOM     11  C   UNL     1       6.904   3.861  12.248  0.00  0.00    +0.000 A 
ATOM     12  C   UNL     1       5.724   3.449  12.866  0.00  0.00    +0.000 A 
ATOM     13  C   UNL     1       5.388   3.928  14.137  0.00  0.00    +0.000 A 
ATOM     14  C   UNL     1       6.225   4.813  14.844  0.00  0.00    +0.000 A 
ATOM     15  C   UNL     1       7.389   5.252  14.189  0.00  0.00    +0.000 A 
ATOM     16  C   UNL     1       7.726   4.776  12.914  0.00  0.00    +0.000 A 
ENDBRANCH   1  14
BRANCH   6  17
ATOM     17  C   UNL     1       5.078   3.923  19.636  0.00  0.00    +0.000 C 
BRANCH  17  18
ATOM     18  C   UNL     1       3.758   4.614  19.815  0.00  0.00    +0.000 A 
ATOM     19  N   UNL     1       2.631   4.134  20.308  0.00  0.00    +0.000 NA
ATOM     20  C   UNL     1       1.767   5.198  20.255  0.00  0.00    +0.000 A 
ATOM     21  C   UNL     1       2.392   6.307  19.726  0.00  0.00    +0.000 A 
ATOM     22  O   UNL     1       3.686   5.935  19.440  0.00  0.00    +0.000 OA
BRANCH  21  23
ATOM     23  C   UNL     1       1.988   7.679  19.435  0.00  0.00    +0.000 A 
ATOM     24  C   UNL     1       1.332   8.448  20.412  0.00  0.00    +0.000 A 
ATOM     25  C   UNL     1       0.932   9.763  20.150  0.00  0.00    +0.000 A 
ATOM     26  C   UNL     1       1.182  10.332  18.906  0.00  0.00    +0.000 A 
ATOM     27  C   UNL     1       1.831   9.587  17.924  0.00  0.00    +0.000 A 
ATOM     28  C   UNL     1       2.232   8.271  18.186  0.00  0.00    +0.000 A 
ENDBRANCH  21  23
ENDBRANCH  17  18
ENDBRANCH   6  17
TORSDOF 4
ENDMDL
MODEL 4
REMARK VINA RESULT:      -7.9      4.501      6.728
REMARK  Name = 
REMARK  6 active torsions:
REMARK  status: ('A' for Active; 'I' for Inactive)
REMARK    1  A    between atoms: C_1  and  C_2
REMARK    2  A    between atoms: C_5  and  C_6
REMARK    3  A    between atoms: C_6  and  C_7
REMARK    4  A    between atoms: N_11  and  C_12
REMARK    5  A    between atoms: C_12  and  C_13
REMARK    6  A    between atoms: C_16  and  C_17
REMARK                            x       y       z     vdW  Elec       q    Type
REMARK                         _______ _______ _______ _____ _____    ______ ____
ROOT
ATOM      1  C   UNL     1       5.491   5.209  16.678  0.00  0.00    +0.000 C 
ATOM      2  C   UNL     1       4.530   6.414  16.709  0.00  0.00    +0.000 C 
ATOM      3  N   UNL     1       6.607   5.441  17.571  0.00  0.00    +0.000 N 
ATOM      4  C   UNL     1       6.362   4.950  18.832  0.00  0.00    +0.000 C 
ATOM      5  O   UNL     1       7.058   5.177  19.807  0.00  0.00    +0.000 OA
ATOM      6  N   UNL     1       5.248   4.170  18.781  0.00  0.00    +0.000 N 
ATOM      7  C   UNL     1       4.767   4.116  17.499  0.00  0.00    +0.000 C 
ATOM      8  O   UNL     1       3.854   3.399  17.111  0.00  0.00    +0.000 OA
ATOM      9  H   UNL     1       7.357   6.098  17.405  0.00  0.00    +0.000 HD
ENDROOT
BRANCH   1  14
ATOM     10  C   UNL     1       7.315   3.886  11.261  0.00  0.00    +0.000 C 
ATOM     11  C   UNL     1       6.870   4.189  12.661  0.00  0.00    +0.000 A 
ATOM     12  C   UNL     1       7.673   4.935  13.522  0.00  0.00    +0.000 A 
ATOM     13  C   UNL     1       7.232   5.240  14.814  0.00  0.00    +0.000 A 
ATOM     14  C   UNL     1       5.967   4.832  15.283  0.00  0.00    +0.000 A 
ATOM     15  C   UNL     1       5.188   4.044  14.419  0.00  0.00    +0.000 A 
ATOM     16  C   UNL     1       5.631   3.735  13.124  0.00  0.00    +0.000 A 
ENDBRANCH   1  14
BRANCH   6  17
ATOM     17  C   UNL     1       4.576   3.613  19.937  0.00  0.00    +0.000 C 
BRANCH  17  18
ATOM     18  C   UNL     1       3.283   4.341  20.163  0.00  0.00    +0.000 A 
ATOM     19  N   UNL     1       2.124   3.862  20.578  0.00  0.00    +0.000 NA
ATOM     20  C   UNL     1       1.308   4.963  20.624  0.00  0.00    +0.000 A 
ATOM     21  C   UNL     1       1.994   6.093  20.230  0.00  0.00    +0.000 A 
ATOM     22  O   UNL     1       3.277   5.696  19.932  0.00  0.00    +0.000 OA
BRANCH  21  23
ATOM     23  C   UNL     1       1.656   7.506  20.082  0.00  0.00    +0.000 A 
ATOM     24  C   UNL     1       1.827   8.150  18.845  0.00  0.00    +0.000 A 
ATOM     25  C   UNL     1       1.514   9.505  18.684  0.00  0.00    +0.000 A 
ATOM     26  C   UNL     1       1.023  10.238  19.760  0.00  0.00    +0.000 A 
ATOM     27  C   UNL     1       0.848   9.617  20.995  0.00  0.00    +0.000 A 
ATOM     28  C   UNL     1       1.160   8.262  21.155  0.00  0.00    +0.000 A 
ENDBRANCH  21  23
ENDBRANCH  17  18
ENDBRANCH   6  17
TORSDOF 4
ENDMDL
MODEL 5
REMARK VINA RESULT:      -7.9      1.704      1.898
REMARK  Name = 
REMARK  6 active torsions:
REMARK  status: ('A' for Active; 'I' for Inactive)
REMARK    1  A    between atoms: C_1  and  C_2
REMARK    2  A    between atoms: C_5  and  C_6
REMARK    3  A    between atoms: C_6  and  C_7
REMARK    4  A    between atoms: N_11  and  C_12
REMARK    5  A    between atoms: C_12  and  C_13
REMARK    6  A    between atoms: C_16  and  C_17
REMARK                            x       y       z     vdW  Elec       q    Type
REMARK                         _______ _______ _______ _____ _____    ______ ____
ROOT
ATOM      1  C   UNL     1       4.539   4.285  17.378  0.00  0.00    +0.000 C 
ATOM      2  C   UNL     1       3.928   3.973  15.996  0.00  0.00    +0.000 C 
ATOM      3  N   UNL     1       5.882   3.748  17.459  0.00  0.00    +0.000 N 
ATOM      4  C   UNL     1       6.825   4.668  17.064  0.00  0.00    +0.000 C 
ATOM      5  O   UNL     1       8.000   4.410  16.867  0.00  0.00    +0.000 OA
ATOM      6  N   UNL     1       6.222   5.885  16.963  0.00  0.00    +0.000 N 
ATOM      7  C   UNL     1       4.900   5.787  17.310  0.00  0.00    +0.000 C 
ATOM      8  O   UNL     1       4.127   6.728  17.439  0.00  0.00    +0.000 OA
ATOM      9  H   UNL     1       6.112   2.766  17.531  0.00  0.00    +0.000 HD
ENDROOT
BRANCH   1  14
ATOM     10  C   UNL     1       1.248   2.638  21.947  0.00  0.00    +0.000 C 
ATOM     11  C   UNL     1       2.075   3.024  20.756  0.00  0.00    +0.000 A 
ATOM     12  C   UNL     1       1.530   3.780  19.720  0.00  0.00    +0.000 A 
ATOM     13  C   UNL     1       2.321   4.162  18.632  0.00  0.00    +0.000 A 
ATOM     14  C   UNL     1       3.687   3.824  18.551  0.00  0.00    +0.000 A 
ATOM     15  C   UNL     1       4.210   3.025  19.581  0.00  0.00    +0.000 A 
ATOM     16  C   UNL     1       3.417   2.638  20.671  0.00  0.00    +0.000 A 
ENDBRANCH   1  14
BRANCH   6  17
ATOM     17  C   UNL     1       6.844   7.071  16.412  0.00  0.00    +0.000 C 
BRANCH  17  18
ATOM     18  C   UNL     1       7.646   7.758  17.478  0.00  0.00    +0.000 A 
ATOM     19  N   UNL     1       8.146   7.256  18.592  0.00  0.00    +0.000 NA
ATOM     20  C   UNL     1       8.798   8.315  19.169  0.00  0.00    +0.000 A 
ATOM     21  C   UNL     1       8.676   9.445  18.389  0.00  0.00    +0.000 A 
ATOM     22  O   UNL     1       7.931   9.089  17.288  0.00  0.00    +0.000 OA
BRANCH  21  23
ATOM     23  C   UNL     1       9.142  10.825  18.490  0.00  0.00    +0.000 A 
ATOM     24  C   UNL     1       8.561  11.830  17.699  0.00  0.00    +0.000 A 
ATOM     25  C   UNL     1       8.997  13.158  17.778  0.00  0.00    +0.000 A 
ATOM     26  C   UNL     1      10.023  13.502  18.653  0.00  0.00    +0.000 A 
ATOM     27  C   UNL     1      10.612  12.520  19.446  0.00  0.00    +0.000 A 
ATOM     28  C   UNL     1      10.175  11.192  19.367  0.00  0.00    +0.000 A 
ENDBRANCH  21  23
ENDBRANCH  17  18
ENDBRANCH   6  17
TORSDOF 4
ENDMDL
MODEL 6
REMARK VINA RESULT:      -7.8      4.944      7.256
REMARK  Name = 
REMARK  6 active torsions:
REMARK  status: ('A' for Active; 'I' for Inactive)
REMARK    1  A    between atoms: C_1  and  C_2
REMARK    2  A    between atoms: C_5  and  C_6
REMARK    3  A    between atoms: C_6  and  C_7
REMARK    4  A    between atoms: N_11  and  C_12
REMARK    5  A    between atoms: C_12  and  C_13
REMARK    6  A    between atoms: C_16  and  C_17
REMARK                            x       y       z     vdW  Elec       q    Type
REMARK                         _______ _______ _______ _____ _____    ______ ____
ROOT
ATOM      1  C   UNL     1       4.369   3.826  17.883  0.00  0.00    +0.000 C 
ATOM      2  C   UNL     1       4.860   2.644  18.744  0.00  0.00    +0.000 C 
ATOM      3  N   UNL     1       2.996   3.608  17.478  0.00  0.00    +0.000 N 
ATOM      4  C   UNL     1       2.107   4.159  18.371  0.00  0.00    +0.000 C 
ATOM      5  O   UNL     1       0.904   3.959  18.359  0.00  0.00    +0.000 OA
ATOM      6  N   UNL     1       2.799   4.961  19.227  0.00  0.00    +0.000 N 
ATOM      7  C   UNL     1       4.128   4.969  18.896  0.00  0.00    +0.000 C 
ATOM      8  O   UNL     1       4.982   5.688  19.399  0.00  0.00    +0.000 OA
ATOM      9  H   UNL     1       2.692   2.928  16.794  0.00  0.00    +0.000 HD
ENDROOT
BRANCH   1  14
ATOM     10  C   UNL     1       7.797   5.135  13.305  0.00  0.00    +0.000 C 
ATOM     11  C   UNL     1       6.935   4.759  14.473  0.00  0.00    +0.000 A 
ATOM     12  C   UNL     1       7.440   4.784  15.773  0.00  0.00    +0.000 A 
ATOM     13  C   UNL     1       6.616   4.464  16.857  0.00  0.00    +0.000 A 
ATOM     14  C   UNL     1       5.257   4.131  16.686  0.00  0.00    +0.000 A 
ATOM     15  C   UNL     1       4.776   4.067  15.367  0.00  0.00    +0.000 A 
ATOM     16  C   UNL     1       5.602   4.385  14.279  0.00  0.00    +0.000 A 
ENDBRANCH   1  14
BRANCH   6  17
ATOM     17  C   UNL     1       2.240   5.581  20.410  0.00  0.00    +0.000 C 
BRANCH  17  18
ATOM     18  C   UNL     1       1.891   7.009  20.110  0.00  0.00    +0.000 A 
ATOM     19  N   UNL     1       2.176   7.725  19.037  0.00  0.00    +0.000 NA
ATOM     20  C   UNL     1       1.598   8.943  19.288  0.00  0.00    +0.000 A 
ATOM     21  C   UNL     1       0.974   8.941  20.517  0.00  0.00    +0.000 A 
ATOM     22  O   UNL     1       1.158   7.687  21.055  0.00  0.00    +0.000 OA
BRANCH  21  23
ATOM     23  C   UNL     1       0.220   9.921  21.293  0.00  0.00    +0.000 A 
ATOM     24  C   UNL     1       0.038  11.226  20.803  0.00  0.00    +0.000 A 
ATOM     25  C   UNL     1      -0.678  12.181  21.534  0.00  0.00    +0.000 A 
ATOM     26  C   UNL     1      -1.224  11.846  22.769  0.00  0.00    +0.000 A 
ATOM     27  C   UNL     1      -1.054  10.558  23.272  0.00  0.00    +0.000 A 
ATOM     28  C   UNL     1      -0.339   9.602  22.540  0.00  0.00    +0.000 A 
ENDBRANCH  21  23
ENDBRANCH  17  18
ENDBRANCH   6  17
TORSDOF 4
ENDMDL
MODEL 7
REMARK VINA RESULT:      -7.8      3.985      6.576
REMARK  Name = 
REMARK  6 active torsions:
REMARK  status: ('A' for Active; 'I' for Inactive)
REMARK    1  A    between atoms: C_1  and  C_2
REMARK    2  A    between atoms: C_5  and  C_6
REMARK    3  A    between atoms: C_6  and  C_7
REMARK    4  A    between atoms: N_11  and  C_12
REMARK    5  A    between atoms: C_12  and  C_13
REMARK    6  A    between atoms: C_16  and  C_17
REMARK                            x       y       z     vdW  Elec       q    Type
REMARK                         _______ _______ _______ _____ _____    ______ ____
ROOT
ATOM      1  C   UNL     1       5.981   5.536  15.789  0.00  0.00    +0.000 C 
ATOM      2  C   UNL     1       4.916   6.645  15.664  0.00  0.00    +0.000 C 
ATOM      3  N   UNL     1       7.183   6.069  16.398  0.00  0.00    +0.000 N 
ATOM      4  C   UNL     1       7.169   5.925  17.766  0.00  0.00    +0.000 C 
ATOM      5  O   UNL     1       7.969   6.450  18.522  0.00  0.00    +0.000 OA
ATOM      6  N   UNL     1       6.144   5.095  18.100  0.00  0.00    +0.000 N 
ATOM      7  C   UNL     1       5.495   4.666  16.972  0.00  0.00    +0.000 C 
ATOM      8  O   UNL     1       4.613   3.817  16.937  0.00  0.00    +0.000 OA
ATOM      9  H   UNL     1       7.831   6.700  15.948  0.00  0.00    +0.000 HD
ENDROOT
BRANCH   1  14
ATOM     10  C   UNL     1       7.161   2.907  10.679  0.00  0.00    +0.000 C 
ATOM     11  C   UNL     1       6.883   3.548  12.006  0.00  0.00    +0.000 A 
ATOM     12  C   UNL     1       7.774   4.467  12.558  0.00  0.00    +0.000 A 
ATOM     13  C   UNL     1       7.487   5.084  13.781  0.00  0.00    +0.000 A 
ATOM     14  C   UNL     1       6.292   4.824  14.482  0.00  0.00    +0.000 A 
ATOM     15  C   UNL     1       5.425   3.864  13.933  0.00  0.00    +0.000 A 
ATOM     16  C   UNL     1       5.714   3.242  12.710  0.00  0.00    +0.000 A 
ENDBRANCH   1  14
BRANCH   6  17
ATOM     17  C   UNL     1       5.701   4.834  19.454  0.00  0.00    +0.000 C 
BRANCH  17  18
ATOM     18  C   UNL     1       4.261   5.233  19.596  0.00  0.00    +0.000 A 
ATOM     19  N   UNL     1       3.227   4.493  19.954  0.00  0.00    +0.000 NA
ATOM     20  C   UNL     1       2.172   5.368  19.937  0.00  0.00    +0.000 A 
ATOM     21  C   UNL     1       2.591   6.628  19.564  0.00  0.00    +0.000 A 
ATOM     22  O   UNL     1       3.947   6.547  19.344  0.00  0.00    +0.000 OA
BRANCH  21  23
ATOM     23  C   UNL     1       1.937   7.919  19.375  0.00  0.00    +0.000 A 
ATOM     24  C   UNL     1       1.940   8.539  18.113  0.00  0.00    +0.000 A 
ATOM     25  C   UNL     1       1.322   9.778  17.913  0.00  0.00    +0.000 A 
ATOM     26  C   UNL     1       0.690  10.420  18.973  0.00  0.00    +0.000 A 
ATOM     27  C   UNL     1       0.676   9.823  20.231  0.00  0.00    +0.000 A 
ATOM     28  C   UNL     1       1.293   8.582  20.431  0.00  0.00    +0.000 A 
ENDBRANCH  21  23
ENDBRANCH  17  18
ENDBRANCH   6  17
TORSDOF 4
ENDMDL
MODEL 8
REMARK VINA RESULT:      -7.7      5.610      8.133
REMARK  Name = 
REMARK  6 active torsions:
REMARK  status: ('A' for Active; 'I' for Inactive)
REMARK    1  A    between atoms: C_1  and  C_2
REMARK    2  A    between atoms: C_5  and  C_6
REMARK    3  A    between atoms: C_6  and  C_7
REMARK    4  A    between atoms: N_11  and  C_12
REMARK    5  A    between atoms: C_12  and  C_13
REMARK    6  A    between atoms: C_16  and  C_17
REMARK                            x       y       z     vdW  Elec       q    Type
REMARK                         _______ _______ _______ _____ _____    ______ ____
ROOT
ATOM      1  C   UNL     1      -0.051  10.538  18.928  0.00  0.00    +0.000 C 
ATOM      2  C   UNL     1       0.656  11.745  19.578  0.00  0.00    +0.000 C 
ATOM      3  N   UNL     1       0.696  10.090  17.771  0.00  0.00    +0.000 N 
ATOM      4  C   UNL     1       1.609   9.115  18.099  0.00  0.00    +0.000 C 
ATOM      5  O   UNL     1       2.479   8.707  17.350  0.00  0.00    +0.000 OA
ATOM      6  N   UNL     1       1.349   8.692  19.366  0.00  0.00    +0.000 N 
ATOM      7  C   UNL     1       0.261   9.353  19.872  0.00  0.00    +0.000 C 
ATOM      8  O   UNL     1      -0.292   9.105  20.936  0.00  0.00    +0.000 OA
ATOM      9  H   UNL     1       0.755  10.584  16.891  0.00  0.00    +0.000 HD
ENDROOT
BRANCH   1  14
ATOM     10  C   UNL     1      -5.719  11.449  17.714  0.00  0.00    +0.000 C 
ATOM     11  C   UNL     1      -4.259  11.248  17.996  0.00  0.00    +0.000 A 
ATOM     12  C   UNL     1      -3.602  12.019  18.954  0.00  0.00    +0.000 A 
ATOM     13  C   UNL     1      -2.249  11.798  19.232  0.00  0.00    +0.000 A 
ATOM     14  C   UNL     1      -1.511  10.788  18.582  0.00  0.00    +0.000 A 
ATOM     15  C   UNL     1      -2.177  10.050  17.588  0.00  0.00    +0.000 A 
ATOM     16  C   UNL     1      -3.533  10.273  17.306  0.00  0.00    +0.000 A 
ENDBRANCH   1  14
BRANCH   6  17
ATOM     17  C   UNL     1       2.195   7.796  20.127  0.00  0.00    +0.000 C 
BRANCH  17  18
ATOM     18  C   UNL     1       2.488   6.570  19.313  0.00  0.00    +0.000 A 
ATOM     19  N   UNL     1       1.707   5.533  19.065  0.00  0.00    +0.000 NA
ATOM     20  C   UNL     1       2.470   4.730  18.258  0.00  0.00    +0.000 A 
ATOM     21  C   UNL     1       3.706   5.298  18.034  0.00  0.00    +0.000 A 
ATOM     22  O   UNL     1       3.723   6.495  18.714  0.00  0.00    +0.000 OA
BRANCH  21  23
ATOM     23  C   UNL     1       4.897   4.915  17.282  0.00  0.00    +0.000 A 
ATOM     24  C   UNL     1       4.781   4.423  15.970  0.00  0.00    +0.000 A 
ATOM     25  C   UNL     1       5.910   4.046  15.235  0.00  0.00    +0.000 A 
ATOM     26  C   UNL     1       7.177   4.156  15.800  0.00  0.00    +0.000 A 
ATOM     27  C   UNL     1       7.313   4.641  17.098  0.00  0.00    +0.000 A 
ATOM     28  C   UNL     1       6.183   5.019  17.834  0.00  0.00    +0.000 A 
ENDBRANCH  21  23
ENDBRANCH  17  18
ENDBRANCH   6  17
TORSDOF 4
ENDMDL
MODEL 9
REMARK VINA RESULT:      -7.7      5.598      8.191
REMARK  Name = 
REMARK  6 active torsions:
REMARK  status: ('A' for Active; 'I' for Inactive)
REMARK    1  A    between atoms: C_1  and  C_2
REMARK    2  A    between atoms: C_5  and  C_6
REMARK    3  A    between atoms: C_6  and  C_7
REMARK    4  A    between atoms: N_11  and  C_12
REMARK    5  A    between atoms: C_12  and  C_13
REMARK    6  A    between atoms: C_16  and  C_17
REMARK                            x       y       z     vdW  Elec       q    Type
REMARK                         _______ _______ _______ _____ _____    ______ ____
ROOT
ATOM      1  C   UNL     1      -0.021  10.515  19.007  0.00  0.00    +0.000 C 
ATOM      2  C   UNL     1       0.688  11.695  19.702  0.00  0.00    +0.000 C 
ATOM      3  N   UNL     1       0.736  10.096  17.845  0.00  0.00    +0.000 N 
ATOM      4  C   UNL     1       1.637   9.103  18.154  0.00  0.00    +0.000 C 
ATOM      5  O   UNL     1       2.513   8.710  17.403  0.00  0.00    +0.000 OA
ATOM      6  N   UNL     1       1.358   8.643  19.405  0.00  0.00    +0.000 N 
ATOM      7  C   UNL     1       0.270   9.299  19.918  0.00  0.00    +0.000 C 
ATOM      8  O   UNL     1      -0.298   9.023  20.967  0.00  0.00    +0.000 OA
ATOM      9  H   UNL     1       0.810  10.615  16.981  0.00  0.00    +0.000 HD
ENDROOT
BRANCH   1  14
ATOM     10  C   UNL     1      -5.587  11.619  17.516  0.00  0.00    +0.000 C 
ATOM     11  C   UNL     1      -4.178  11.304  17.924  0.00  0.00    +0.000 A 
ATOM     12  C   UNL     1      -3.451  10.306  17.277  0.00  0.00    +0.000 A 
ATOM     13  C   UNL     1      -2.126  10.046  17.644  0.00  0.00    +0.000 A 
ATOM     14  C   UNL     1      -1.475  10.787  18.651  0.00  0.00    +0.000 A 
ATOM     15  C   UNL     1      -2.235  11.759  19.322  0.00  0.00    +0.000 A 
ATOM     16  C   UNL     1      -3.565  12.018  18.957  0.00  0.00    +0.000 A 
ENDBRANCH   1  14
BRANCH   6  17
ATOM     17  C   UNL     1       2.188   7.718  20.148  0.00  0.00    +0.000 C 
BRANCH  17  18
ATOM     18  C   UNL     1       2.477   6.513  19.301  0.00  0.00    +0.000 A 
ATOM     19  N   UNL     1       1.690   5.492  19.016  0.00  0.00    +0.000 NA
ATOM     20  C   UNL     1       2.454   4.705  18.193  0.00  0.00    +0.000 A 
ATOM     21  C   UNL     1       3.697   5.268  17.999  0.00  0.00    +0.000 A 
ATOM     22  O   UNL     1       3.718   6.443  18.714  0.00  0.00    +0.000 OA
BRANCH  21  23
ATOM     23  C   UNL     1       4.893   4.895  17.248  0.00  0.00    +0.000 A 
ATOM     24  C   UNL     1       6.160   4.957  17.853  0.00  0.00    +0.000 A 
ATOM     25  C   UNL     1       7.317   4.609  17.148  0.00  0.00    +0.000 A 
ATOM     26  C   UNL     1       7.227   4.192  15.824  0.00  0.00    +0.000 A 
ATOM     27  C   UNL     1       5.981   4.125  15.206  0.00  0.00    +0.000 A 
ATOM     28  C   UNL     1       4.822   4.472  15.912  0.00  0.00    +0.000 A 
ENDBRANCH  21  23
ENDBRANCH  17  18
ENDBRANCH   6  17
TORSDOF 4
ENDMDL
