MODEL 1
REMARK VINA RESULT:      -8.2      0.000      0.000
REMARK  Name = 
REMARK  4 active torsions:
REMARK  status: ('A' for Active; 'I' for Inactive)
REMARK    1  A    between atoms: N_1  and  C_2
REMARK    2  A    between atoms: C_3  and  S_4
REMARK    3  A    between atoms: S_4  and  C_7
REMARK    4  A    between atoms: N_23  and  C_24
REMARK                            x       y       z     vdW  Elec       q    Type
REMARK                         _______ _______ _______ _____ _____    ______ ____
ROOT
ATOM      1  C   UNL     1       6.980   4.893  18.025  0.00  0.00    +0.000 A 
ATOM      2  C   UNL     1       5.655   4.598  17.656  0.00  0.00    +0.000 A 
ATOM      3  C   UNL     1       5.766   4.646  16.201  0.00  0.00    +0.000 A 
ATOM      4  N   UNL     1       5.264   3.896  15.170  0.00  0.00    +0.000 NA
ATOM      5  C   UNL     1       5.944   4.067  13.992  0.00  0.00    +0.000 A 
ATOM      6  C   UNL     1       5.752   3.210  12.896  0.00  0.00    +0.000 A 
ATOM      7  C   UNL     1       6.535   3.274  11.718  0.00  0.00    +0.000 A 
ATOM      8  C   UNL     1       7.510   4.246  11.581  0.00  0.00    +0.000 A 
ATOM      9  C   UNL     1       7.710   5.135  12.634  0.00  0.00    +0.000 A 
ATOM     10  C   UNL     1       6.976   5.041  13.806  0.00  0.00    +0.000 A 
ATOM     11  N   UNL     1       7.366   5.856  14.766  0.00  0.00    +0.000 NA
ATOM     12  C   UNL     1       6.815   5.538  15.940  0.00  0.00    +0.000 A 
ATOM     13  N   UNL     1       7.203   5.976  17.175  0.00  0.00    +0.000 N 
ENDROOT
BRANCH   1  14
ATOM     14  N   UNL     1       8.000   4.000  18.244  0.00  0.00    +0.000 N 
ATOM     15  H   UNL     1       7.714   3.162  18.754  0.00  0.00    +0.000 HD
ATOM     16  H   UNL     1       8.437   3.637  17.389  0.00  0.00    +0.000 HD
ENDBRANCH   1  14
BRANCH   2  17
ATOM     17  S   UNL     1       4.421   5.393  18.641  0.00  0.00    +0.000 S 
ATOM     18  O   UNL     1       5.087   5.584  19.923  0.00  0.00    +0.000 OA
ATOM     19  O   UNL     1       3.960   6.519  17.864  0.00  0.00    +0.000 OA
BRANCH  17  20
ATOM     20  C   UNL     1       3.059   4.323  18.981  0.00  0.00    +0.000 A 
ATOM     21  C   UNL     1       2.863   3.218  18.132  0.00  0.00    +0.000 A 
ATOM     22  C   UNL     1       1.758   2.386  18.307  0.00  0.00    +0.000 A 
ATOM     23  C   UNL     1       0.857   2.655  19.334  0.00  0.00    +0.000 A 
ATOM     24  C   UNL     1       1.074   3.737  20.195  0.00  0.00    +0.000 A 
ATOM     25  C   UNL     1       2.177   4.578  20.026  0.00  0.00    +0.000 A 
ENDBRANCH  17  20
ENDBRANCH   2  17
BRANCH  13  26
ATOM     26  C   UNL     1       7.155   7.379  17.552  0.00  0.00    +0.000 C 
ATOM     27  C   UNL     1       8.277   8.338  17.140  0.00  0.00    +0.000 C 
ATOM     28  C   UNL     1       8.098   7.975  18.572  0.00  0.00    +0.000 C 
ENDBRANCH  13  26
TORSDOF 4
ENDMDL
MODEL 2
REMARK VINA RESULT:      -7.7      2.174      6.204
REMARK  Name = 
REMARK  4 active torsions:
REMARK  status: ('A' for Active; 'I' for Inactive)
REMARK    1  A    between atoms: N_1  and  C_2
REMARK    2  A    between atoms: C_3  and  S_4
REMARK    3  A    between atoms: S_4  and  C_7
REMARK    4  A    between atoms: N_23  and  C_24
REMARK                            x       y       z     vdW  Elec       q    Type
REMARK                         _______ _______ _______ _____ _____    ______ ____
ROOT
ATOM      1  C   UNL     1       5.445   6.264  16.662  0.00  0.00    +0.000 A 
ATOM      2  C   UNL     1       5.183   5.071  15.963  0.00  0.00    +0.000 A 
ATOM      3  C   UNL     1       4.416   4.337  16.967  0.00  0.00    +0.000 A 
ATOM      4  N   UNL     1       3.303   3.538  16.937  0.00  0.00    +0.000 NA
ATOM      5  C   UNL     1       2.712   3.383  18.164  0.00  0.00    +0.000 A 
ATOM      6  C   UNL     1       1.433   2.819  18.301  0.00  0.00    +0.000 A 
ATOM      7  C   UNL     1       0.738   2.772  19.535  0.00  0.00    +0.000 A 
ATOM      8  C   UNL     1       1.335   3.246  20.689  0.00  0.00    +0.000 A 
ATOM      9  C   UNL     1       2.615   3.784  20.599  0.00  0.00    +0.000 A 
ATOM     10  C   UNL     1       3.275   3.875  19.383  0.00  0.00    +0.000 A 
ATOM     11  N   UNL     1       4.418   4.530  19.425  0.00  0.00    +0.000 NA
ATOM     12  C   UNL     1       4.869   4.820  18.202  0.00  0.00    +0.000 A 
ATOM     13  N   UNL     1       5.849   5.714  17.879  0.00  0.00    +0.000 N 
ENDROOT
BRANCH   1  14
ATOM     14  N   UNL     1       4.683   7.407  16.670  0.00  0.00    +0.000 N 
ATOM     15  H   UNL     1       3.682   7.236  16.775  0.00  0.00    +0.000 HD
ATOM     16  H   UNL     1       4.908   8.061  17.428  0.00  0.00    +0.000 HD
ENDBRANCH   1  14
BRANCH   2  17
ATOM     17  S   UNL     1       6.545   4.451  15.024  0.00  0.00    +0.000 S 
ATOM     18  O   UNL     1       7.312   5.651  14.714  0.00  0.00    +0.000 OA
ATOM     19  O   UNL     1       7.115   3.384  15.813  0.00  0.00    +0.000 OA
BRANCH  17  20
ATOM     20  C   UNL     1       6.032   3.812  13.462  0.00  0.00    +0.000 A 
ATOM     21  C   UNL     1       4.668   3.906  13.128  0.00  0.00    +0.000 A 
ATOM     22  C   UNL     1       4.195   3.346  11.942  0.00  0.00    +0.000 A 
ATOM     23  C   UNL     1       5.087   2.702  11.089  0.00  0.00    +0.000 A 
ATOM     24  C   UNL     1       6.448   2.639  11.409  0.00  0.00    +0.000 A 
ATOM     25  C   UNL     1       6.931   3.195  12.598  0.00  0.00    +0.000 A 
ENDBRANCH  17  20
ENDBRANCH   2  17
BRANCH  13  26
ATOM     26  C   UNL     1       7.223   5.560  18.329  0.00  0.00    +0.000 C 
ATOM     27  C   UNL     1       7.612   5.882  19.775  0.00  0.00    +0.000 C 
ATOM     28  C   UNL     1       8.103   6.742  18.664  0.00  0.00    +0.000 C 
ENDBRANCH  13  26
TORSDOF 4
ENDMDL
MODEL 3
REMARK VINA RESULT:      -6.7      2.073      6.226
REMARK  Name = 
REMARK  4 active torsions:
REMARK  status: ('A' for Active; 'I' for Inactive)
REMARK    1  A    between atoms: N_1  and  C_2
REMARK    2  A    between atoms: C_3  and  S_4
REMARK    3  A    between atoms: S_4  and  C_7
REMARK    4  A    between atoms: N_23  and  C_24
REMARK                            x       y       z     vdW  Elec       q    Type
REMARK                         _______ _______ _______ _____ _____    ______ ____
ROOT
ATOM      1  C   UNL     1       5.268   6.535  17.384  0.00  0.00    +0.000 A 
ATOM      2  C   UNL     1       5.270   5.372  16.593  0.00  0.00    +0.000 A 
ATOM      3  C   UNL     1       4.452   4.487  17.418  0.00  0.00    +0.000 A 
ATOM      4  N   UNL     1       3.466   3.570  17.163  0.00  0.00    +0.000 NA
ATOM      5  C   UNL     1       2.711   3.263  18.266  0.00  0.00    +0.000 A 
ATOM      6  C   UNL     1       1.507   2.548  18.162  0.00  0.00    +0.000 A 
ATOM      7  C   UNL     1       0.637   2.336  19.259  0.00  0.00    +0.000 A 
ATOM      8  C   UNL     1       0.980   2.793  20.519  0.00  0.00    +0.000 A 
ATOM      9  C   UNL     1       2.182   3.479  20.670  0.00  0.00    +0.000 A 
ATOM     10  C   UNL     1       3.009   3.729  19.585  0.00  0.00    +0.000 A 
ATOM     11  N   UNL     1       4.041   4.506  19.849  0.00  0.00    +0.000 NA
ATOM     12  C   UNL     1       4.640   4.931  18.734  0.00  0.00    +0.000 A 
ATOM     13  N   UNL     1       5.540   5.952  18.623  0.00  0.00    +0.000 N 
ENDROOT
BRANCH   1  14
ATOM     14  N   UNL     1       4.380   7.580  17.324  0.00  0.00    +0.000 N 
ATOM     15  H   UNL     1       4.693   8.357  16.739  0.00  0.00    +0.000 HD
ATOM     16  H   UNL     1       3.460   7.334  16.942  0.00  0.00    +0.000 HD
ENDBRANCH   1  14
BRANCH   2  17
ATOM     17  S   UNL     1       6.831   4.979  15.862  0.00  0.00    +0.000 S 
ATOM     18  O   UNL     1       7.532   6.256  15.864  0.00  0.00    +0.000 OA
ATOM     19  O   UNL     1       7.339   3.847  16.601  0.00  0.00    +0.000 OA
BRANCH  17  20
ATOM     20  C   UNL     1       6.670   4.540  14.161  0.00  0.00    +0.000 A 
ATOM     21  C   UNL     1       5.606   3.694  13.797  0.00  0.00    +0.000 A 
ATOM     22  C   UNL     1       5.478   3.252  12.481  0.00  0.00    +0.000 A 
ATOM     23  C   UNL     1       6.408   3.664  11.530  0.00  0.00    +0.000 A 
ATOM     24  C   UNL     1       7.446   4.532  11.890  0.00  0.00    +0.000 A 
ATOM     25  C   UNL     1       7.584   4.977  13.208  0.00  0.00    +0.000 A 
ENDBRANCH  17  20
ENDBRANCH   2  17
BRANCH  13  26
ATOM     26  C   UNL     1       6.834   5.924  19.285  0.00  0.00    +0.000 C 
ATOM     27  C   UNL     1       8.012   6.734  18.733  0.00  0.00    +0.000 C 
ATOM     28  C   UNL     1       8.041   5.247  18.675  0.00  0.00    +0.000 C 
ENDBRANCH  13  26
TORSDOF 4
ENDMDL
MODEL 4
REMARK VINA RESULT:      -6.7      7.533      9.592
REMARK  Name = 
REMARK  4 active torsions:
REMARK  status: ('A' for Active; 'I' for Inactive)
REMARK    1  A    between atoms: N_1  and  C_2
REMARK    2  A    between atoms: C_3  and  S_4
REMARK    3  A    between atoms: S_4  and  C_7
REMARK    4  A    between atoms: N_23  and  C_24
REMARK                            x       y       z     vdW  Elec       q    Type
REMARK                         _______ _______ _______ _____ _____    ______ ____
ROOT
ATOM      1  C   UNL     1       0.407  11.480  20.253  0.00  0.00    +0.000 A 
ATOM      2  C   UNL     1       0.397  10.149  19.799  0.00  0.00    +0.000 A 
ATOM      3  C   UNL     1      -0.821  10.151  18.993  0.00  0.00    +0.000 A 
ATOM      4  N   UNL     1      -1.178   9.616  17.783  0.00  0.00    +0.000 NA
ATOM      5  C   UNL     1      -2.293  10.198  17.239  0.00  0.00    +0.000 A 
ATOM      6  C   UNL     1      -2.669   9.971  15.905  0.00  0.00    +0.000 A 
ATOM      7  C   UNL     1      -3.731  10.662  15.272  0.00  0.00    +0.000 A 
ATOM      8  C   UNL     1      -4.492  11.572  15.985  0.00  0.00    +0.000 A 
ATOM      9  C   UNL     1      -4.171  11.802  17.319  0.00  0.00    +0.000 A 
ATOM     10  C   UNL     1      -3.099  11.161  17.923  0.00  0.00    +0.000 A 
ATOM     11  N   UNL     1      -2.827  11.577  19.145  0.00  0.00    +0.000 NA
ATOM     12  C   UNL     1      -1.642  11.131  19.568  0.00  0.00    +0.000 A 
ATOM     13  N   UNL     1      -0.930  11.584  20.641  0.00  0.00    +0.000 N 
ENDROOT
BRANCH   1  14
ATOM     14  N   UNL     1       1.009  12.559  19.653  0.00  0.00    +0.000 N 
ATOM     15  H   UNL     1       1.853  12.323  19.129  0.00  0.00    +0.000 HD
ATOM     16  H   UNL     1       0.419  13.049  18.972  0.00  0.00    +0.000 HD
ENDBRANCH   1  14
BRANCH   2  17
ATOM     17  S   UNL     1       0.846   8.950  21.018  0.00  0.00    +0.000 S 
ATOM     18  O   UNL     1       1.836   9.650  21.826  0.00  0.00    +0.000 OA
ATOM     19  O   UNL     1      -0.395   8.487  21.592  0.00  0.00    +0.000 OA
BRANCH  17  20
ATOM     20  C   UNL     1       1.707   7.583  20.310  0.00  0.00    +0.000 A 
ATOM     21  C   UNL     1       2.343   7.776  19.069  0.00  0.00    +0.000 A 
ATOM     22  C   UNL     1       2.970   6.709  18.428  0.00  0.00    +0.000 A 
ATOM     23  C   UNL     1       2.968   5.454  19.031  0.00  0.00    +0.000 A 
ATOM     24  C   UNL     1       2.362   5.274  20.280  0.00  0.00    +0.000 A 
ATOM     25  C   UNL     1       1.728   6.338  20.929  0.00  0.00    +0.000 A 
ENDBRANCH  17  20
ENDBRANCH   2  17
BRANCH  13  26
ATOM     26  C   UNL     1      -1.430  11.491  22.003  0.00  0.00    +0.000 C 
ATOM     27  C   UNL     1      -2.530  12.437  22.497  0.00  0.00    +0.000 C 
ATOM     28  C   UNL     1      -1.150  12.551  23.043  0.00  0.00    +0.000 C 
ENDBRANCH  13  26
TORSDOF 4
ENDMDL
MODEL 5
REMARK VINA RESULT:      -6.7      3.136      6.801
REMARK  Name = 
REMARK  4 active torsions:
REMARK  status: ('A' for Active; 'I' for Inactive)
REMARK    1  A    between atoms: N_1  and  C_2
REMARK    2  A    between atoms: C_3  and  S_4
REMARK    3  A    between atoms: S_4  and  C_7
REMARK    4  A    between atoms: N_23  and  C_24
REMARK                            x       y       z     vdW  Elec       q    Type
REMARK                         _______ _______ _______ _____ _____    ______ ____
ROOT
ATOM      1  C   UNL     1       5.407   4.925  18.653  0.00  0.00    +0.000 A 
ATOM      2  C   UNL     1       4.952   5.270  17.368  0.00  0.00    +0.000 A 
ATOM      3  C   UNL     1       3.857   6.175  17.707  0.00  0.00    +0.000 A 
ATOM      4  N   UNL     1       3.396   7.364  17.205  0.00  0.00    +0.000 NA
ATOM      5  C   UNL     1       2.588   8.045  18.077  0.00  0.00    +0.000 A 
ATOM      6  C   UNL     1       2.226   9.384  17.856  0.00  0.00    +0.000 A 
ATOM      7  C   UNL     1       1.509  10.157  18.802  0.00  0.00    +0.000 A 
ATOM      8  C   UNL     1       1.084   9.588  19.989  0.00  0.00    +0.000 A 
ATOM      9  C   UNL     1       1.396   8.253  20.231  0.00  0.00    +0.000 A 
ATOM     10  C   UNL     1       2.139   7.511  19.326  0.00  0.00    +0.000 A 
ATOM     11  N   UNL     1       2.477   6.308  19.747  0.00  0.00    +0.000 NA
ATOM     12  C   UNL     1       3.405   5.752  18.965  0.00  0.00    +0.000 A 
ATOM     13  N   UNL     1       4.175   4.661  19.253  0.00  0.00    +0.000 N 
ENDROOT
BRANCH   1  14
ATOM     14  N   UNL     1       6.382   5.556  19.388  0.00  0.00    +0.000 N 
ATOM     15  H   UNL     1       7.328   5.222  19.193  0.00  0.00    +0.000 HD
ATOM     16  H   UNL     1       6.437   6.569  19.237  0.00  0.00    +0.000 HD
ENDBRANCH   1  14
BRANCH   2  17
ATOM     17  S   UNL     1       4.886   3.926  16.223  0.00  0.00    +0.000 S 
ATOM     18  O   UNL     1       5.611   2.865  16.910  0.00  0.00    +0.000 OA
ATOM     19  O   UNL     1       3.494   3.774  15.872  0.00  0.00    +0.000 OA
BRANCH  17  20
ATOM     20  C   UNL     1       5.822   4.257  14.764  0.00  0.00    +0.000 A 
ATOM     21  C   UNL     1       5.453   3.592  13.580  0.00  0.00    +0.000 A 
ATOM     22  C   UNL     1       6.207   3.755  12.418  0.00  0.00    +0.000 A 
ATOM     23  C   UNL     1       7.321   4.590  12.440  0.00  0.00    +0.000 A 
ATOM     24  C   UNL     1       7.665   5.275  13.611  0.00  0.00    +0.000 A 
ATOM     25  C   UNL     1       6.917   5.115  14.782  0.00  0.00    +0.000 A 
ENDBRANCH  17  20
ENDBRANCH   2  17
BRANCH  13  26
ATOM     26  C   UNL     1       3.605   3.344  19.482  0.00  0.00    +0.000 C 
ATOM     27  C   UNL     1       3.172   2.914  20.888  0.00  0.00    +0.000 C 
ATOM     28  C   UNL     1       4.342   2.262  20.238  0.00  0.00    +0.000 C 
ENDBRANCH  13  26
TORSDOF 4
ENDMDL
MODEL 6
REMARK VINA RESULT:      -6.6      9.709     12.071
REMARK  Name = 
REMARK  4 active torsions:
REMARK  status: ('A' for Active; 'I' for Inactive)
REMARK    1  A    between atoms: N_1  and  C_2
REMARK    2  A    between atoms: C_3  and  S_4
REMARK    3  A    between atoms: S_4  and  C_7
REMARK    4  A    between atoms: N_23  and  C_24
REMARK                            x       y       z     vdW  Elec       q    Type
REMARK                         _______ _______ _______ _____ _____    ______ ____
ROOT
ATOM      1  C   UNL     1      -1.063  13.689  20.188  0.00  0.00    +0.000 A 
ATOM      2  C   UNL     1      -1.105  12.320  19.866  0.00  0.00    +0.000 A 
ATOM      3  C   UNL     1      -2.541  12.136  19.673  0.00  0.00    +0.000 A 
ATOM      4  N   UNL     1      -3.313  11.446  18.775  0.00  0.00    +0.000 NA
ATOM      5  C   UNL     1      -4.615  11.873  18.737  0.00  0.00    +0.000 A 
ATOM      6  C   UNL     1      -5.494  11.474  17.717  0.00  0.00    +0.000 A 
ATOM      7  C   UNL     1      -6.799  12.004  17.570  0.00  0.00    +0.000 A 
ATOM      8  C   UNL     1      -7.286  12.920  18.485  0.00  0.00    +0.000 A 
ATOM      9  C   UNL     1      -6.456  13.317  19.530  0.00  0.00    +0.000 A 
ATOM     10  C   UNL     1      -5.161  12.835  19.644  0.00  0.00    +0.000 A 
ATOM     11  N   UNL     1      -4.446  13.400  20.597  0.00  0.00    +0.000 NA
ATOM     12  C   UNL     1      -3.149  13.101  20.487  0.00  0.00    +0.000 A 
ATOM     13  N   UNL     1      -2.107  13.723  21.113  0.00  0.00    +0.000 N 
ENDROOT
BRANCH   1  14
ATOM     14  N   UNL     1      -0.909  14.742  19.320  0.00  0.00    +0.000 N 
ATOM     15  H   UNL     1      -0.497  15.574  19.748  0.00  0.00    +0.000 HD
ATOM     16  H   UNL     1      -0.301  14.546  18.518  0.00  0.00    +0.000 HD
ENDBRANCH   1  14
BRANCH   2  17
ATOM     17  S   UNL     1      -0.038  11.300  20.838  0.00  0.00    +0.000 S 
ATOM     18  O   UNL     1       1.011  12.220  21.260  0.00  0.00    +0.000 OA
ATOM     19  O   UNL     1      -0.889  10.644  21.802  0.00  0.00    +0.000 OA
BRANCH  17  20
ATOM     20  C   UNL     1       0.780  10.082  19.858  0.00  0.00    +0.000 A 
ATOM     21  C   UNL     1       1.154   8.877  20.483  0.00  0.00    +0.000 A 
ATOM     22  C   UNL     1       1.873   7.914  19.777  0.00  0.00    +0.000 A 
ATOM     23  C   UNL     1       2.209   8.152  18.446  0.00  0.00    +0.000 A 
ATOM     24  C   UNL     1       1.807   9.337  17.820  0.00  0.00    +0.000 A 
ATOM     25  C   UNL     1       1.089  10.311  18.521  0.00  0.00    +0.000 A 
ENDBRANCH  17  20
ENDBRANCH   2  17
BRANCH  13  26
ATOM     26  C   UNL     1      -1.963  13.736  22.559  0.00  0.00    +0.000 C 
ATOM     27  C   UNL     1      -2.256  15.008  23.362  0.00  0.00    +0.000 C 
ATOM     28  C   UNL     1      -0.861  14.501  23.256  0.00  0.00    +0.000 C 
ENDBRANCH  13  26
TORSDOF 4
ENDMDL
MODEL 7
REMARK VINA RESULT:      -6.4      9.558     11.787
REMARK  Name = 
REMARK  4 active torsions:
REMARK  status: ('A' for Active; 'I' for Inactive)
REMARK    1  A    between atoms: N_1  and  C_2
REMARK    2  A    between atoms: C_3  and  S_4
REMARK    3  A    between atoms: S_4  and  C_7
REMARK    4  A    between atoms: N_23  and  C_24
REMARK                            x       y       z     vdW  Elec       q    Type
REMARK                         _______ _______ _______ _____ _____    ______ ____
ROOT
ATOM      1  C   UNL     1      -2.060  12.983  19.946  0.00  0.00    +0.000 A 
ATOM      2  C   UNL     1      -0.903  13.612  19.453  0.00  0.00    +0.000 A 
ATOM      3  C   UNL     1       0.033  12.491  19.456  0.00  0.00    +0.000 A 
ATOM      4  N   UNL     1       1.005  12.043  18.600  0.00  0.00    +0.000 NA
ATOM      5  C   UNL     1       1.361  10.737  18.817  0.00  0.00    +0.000 A 
ATOM      6  C   UNL     1       2.145  10.023  17.897  0.00  0.00    +0.000 A 
ATOM      7  C   UNL     1       2.414   8.638  18.022  0.00  0.00    +0.000 A 
ATOM      8  C   UNL     1       1.943   7.933  19.116  0.00  0.00    +0.000 A 
ATOM      9  C   UNL     1       1.189   8.613  20.067  0.00  0.00    +0.000 A 
ATOM     10  C   UNL     1       0.885   9.958  19.918  0.00  0.00    +0.000 A 
ATOM     11  N   UNL     1       0.049  10.436  20.819  0.00  0.00    +0.000 NA
ATOM     12  C   UNL     1      -0.415  11.640  20.475  0.00  0.00    +0.000 A 
ATOM     13  N   UNL     1      -1.488  12.291  21.015  0.00  0.00    +0.000 N 
ENDROOT
BRANCH   1  14
ATOM     14  N   UNL     1      -3.052  12.374  19.216  0.00  0.00    +0.000 N 
ATOM     15  H   UNL     1      -3.892  12.945  19.103  0.00  0.00    +0.000 HD
ATOM     16  H   UNL     1      -2.783  12.130  18.257  0.00  0.00    +0.000 HD
ENDBRANCH   1  14
BRANCH   2  17
ATOM     17  S   UNL     1      -0.606  15.228  20.105  0.00  0.00    +0.000 S 
ATOM     18  O   UNL     1      -1.944  15.712  20.420  0.00  0.00    +0.000 OA
ATOM     19  O   UNL     1       0.390  15.060  21.137  0.00  0.00    +0.000 OA
BRANCH  17  20
ATOM     20  C   UNL     1       0.009  16.332  18.874  0.00  0.00    +0.000 A 
ATOM     21  C   UNL     1       1.398  16.363  18.653  0.00  0.00    +0.000 A 
ATOM     22  C   UNL     1       1.945  17.273  17.750  0.00  0.00    +0.000 A 
ATOM     23  C   UNL     1       1.102  18.144  17.063  0.00  0.00    +0.000 A 
ATOM     24  C   UNL     1      -0.282  18.087  17.262  0.00  0.00    +0.000 A 
ATOM     25  C   UNL     1      -0.839  17.180  18.169  0.00  0.00    +0.000 A 
ENDBRANCH  17  20
ENDBRANCH   2  17
BRANCH  13  26
ATOM     26  C   UNL     1      -1.533  12.692  22.411  0.00  0.00    +0.000 C 
ATOM     27  C   UNL     1      -2.546  12.061  23.372  0.00  0.00    +0.000 C 
ATOM     28  C   UNL     1      -2.679  13.493  22.986  0.00  0.00    +0.000 C 
ENDBRANCH  13  26
TORSDOF 4
ENDMDL
MODEL 8
REMARK VINA RESULT:      -6.3      7.342      9.288
REMARK  Name = 
REMARK  4 active torsions:
REMARK  status: ('A' for Active; 'I' for Inactive)
REMARK    1  A    between atoms: N_1  and  C_2
REMARK    2  A    between atoms: C_3  and  S_4
REMARK    3  A    between atoms: S_4  and  C_7
REMARK    4  A    between atoms: N_23  and  C_24
REMARK                            x       y       z     vdW  Elec       q    Type
REMARK                         _______ _______ _______ _____ _____    ______ ____
ROOT
ATOM      1  C   UNL     1      -0.619  10.646  19.577  0.00  0.00    +0.000 A 
ATOM      2  C   UNL     1       0.513  11.179  18.935  0.00  0.00    +0.000 A 
ATOM      3  C   UNL     1       1.398  10.016  18.946  0.00  0.00    +0.000 A 
ATOM      4  N   UNL     1       2.268   9.458  18.047  0.00  0.00    +0.000 NA
ATOM      5  C   UNL     1       2.587   8.156  18.336  0.00  0.00    +0.000 A 
ATOM      6  C   UNL     1       3.253   7.336  17.411  0.00  0.00    +0.000 A 
ATOM      7  C   UNL     1       3.474   5.953  17.623  0.00  0.00    +0.000 A 
ATOM      8  C   UNL     1       3.076   5.357  18.807  0.00  0.00    +0.000 A 
ATOM      9  C   UNL     1       2.441   6.145  19.763  0.00  0.00    +0.000 A 
ATOM     10  C   UNL     1       2.181   7.487  19.534  0.00  0.00    +0.000 A 
ATOM     11  N   UNL     1       1.452   8.073  20.463  0.00  0.00    +0.000 NA
ATOM     12  C   UNL     1       1.009   9.268  20.066  0.00  0.00    +0.000 A 
ATOM     13  N   UNL     1       0.019  10.011  20.643  0.00  0.00    +0.000 N 
ENDROOT
BRANCH   1  14
ATOM     14  N   UNL     1      -1.698  10.033  18.988  0.00  0.00    +0.000 N 
ATOM     15  H   UNL     1      -1.886   9.095  19.345  0.00  0.00    +0.000 HD
ATOM     16  H   UNL     1      -2.587  10.531  19.109  0.00  0.00    +0.000 HD
ENDBRANCH   1  14
BRANCH   2  17
ATOM     17  S   UNL     1       0.936  12.823  19.426  0.00  0.00    +0.000 S 
ATOM     18  O   UNL     1       2.103  12.628  20.278  0.00  0.00    +0.000 OA
ATOM     19  O   UNL     1       1.021  13.590  18.207  0.00  0.00    +0.000 OA
BRANCH  17  20
ATOM     20  C   UNL     1      -0.291  13.532  20.477  0.00  0.00    +0.000 A 
ATOM     21  C   UNL     1       0.127  14.070  21.708  0.00  0.00    +0.000 A 
ATOM     22  C   UNL     1      -0.810  14.570  22.611  0.00  0.00    +0.000 A 
ATOM     23  C   UNL     1      -2.162  14.540  22.278  0.00  0.00    +0.000 A 
ATOM     24  C   UNL     1      -2.571  14.034  21.039  0.00  0.00    +0.000 A 
ATOM     25  C   UNL     1      -1.638  13.526  20.129  0.00  0.00    +0.000 A 
ENDBRANCH  17  20
ENDBRANCH   2  17
BRANCH  13  26
ATOM     26  C   UNL     1       0.118  10.519  22.001  0.00  0.00    +0.000 C 
ATOM     27  C   UNL     1      -0.277   9.642  23.194  0.00  0.00    +0.000 C 
ATOM     28  C   UNL     1      -1.101  10.830  22.840  0.00  0.00    +0.000 C 
ENDBRANCH  13  26
TORSDOF 4
ENDMDL
MODEL 9
REMARK VINA RESULT:      -6.3      9.946     12.415
REMARK  Name = 
REMARK  4 active torsions:
REMARK  status: ('A' for Active; 'I' for Inactive)
REMARK    1  A    between atoms: N_1  and  C_2
REMARK    2  A    between atoms: C_3  and  S_4
REMARK    3  A    between atoms: S_4  and  C_7
REMARK    4  A    between atoms: N_23  and  C_24
REMARK                            x       y       z     vdW  Elec       q    Type
REMARK                         _______ _______ _______ _____ _____    ______ ____
ROOT
ATOM      1  C   UNL     1      -1.495  14.524  20.637  0.00  0.00    +0.000 A 
ATOM      2  C   UNL     1      -1.089  13.354  19.970  0.00  0.00    +0.000 A 
ATOM      3  C   UNL     1      -2.371  12.669  19.830  0.00  0.00    +0.000 A 
ATOM      4  N   UNL     1      -2.974  11.945  18.835  0.00  0.00    +0.000 NA
ATOM      5  C   UNL     1      -4.330  11.824  18.997  0.00  0.00    +0.000 A 
ATOM      6  C   UNL     1      -5.157  11.345  17.967  0.00  0.00    +0.000 A 
ATOM      7  C   UNL     1      -6.571  11.339  18.051  0.00  0.00    +0.000 A 
ATOM      8  C   UNL     1      -7.202  11.767  19.205  0.00  0.00    +0.000 A 
ATOM      9  C   UNL     1      -6.415  12.220  20.260  0.00  0.00    +0.000 A 
ATOM     10  C   UNL     1      -5.033  12.272  20.159  0.00  0.00    +0.000 A 
ATOM     11  N   UNL     1      -4.428  12.850  21.177  0.00  0.00    +0.000 NA
ATOM     12  C   UNL     1      -3.147  13.115  20.908  0.00  0.00    +0.000 A 
ATOM     13  N   UNL     1      -2.316  13.944  21.605  0.00  0.00    +0.000 N 
ENDROOT
BRANCH   1  14
ATOM     14  N   UNL     1      -1.877  15.715  20.070  0.00  0.00    +0.000 N 
ATOM     15  H   UNL     1      -1.966  15.679  19.053  0.00  0.00    +0.000 HD
ATOM     16  H   UNL     1      -2.787  16.064  20.390  0.00  0.00    +0.000 HD
ENDBRANCH   1  14
BRANCH   2  17
ATOM     17  S   UNL     1       0.418  12.650  20.567  0.00  0.00    +0.000 S 
ATOM     18  O   UNL     1       1.160  12.363  19.345  0.00  0.00    +0.000 OA
ATOM     19  O   UNL     1       0.926  13.578  21.549  0.00  0.00    +0.000 OA
BRANCH  17  20
ATOM     20  C   UNL     1       0.155  11.080  21.329  0.00  0.00    +0.000 A 
ATOM     21  C   UNL     1       0.523   9.929  20.608  0.00  0.00    +0.000 A 
ATOM     22  C   UNL     1       0.264   8.662  21.129  0.00  0.00    +0.000 A 
ATOM     23  C   UNL     1      -0.354   8.549  22.372  0.00  0.00    +0.000 A 
ATOM     24  C   UNL     1      -0.688   9.696  23.100  0.00  0.00    +0.000 A 
ATOM     25  C   UNL     1      -0.435  10.971  22.583  0.00  0.00    +0.000 A 
ENDBRANCH  17  20
ENDBRANCH   2  17
BRANCH  13  26
ATOM     26  C   UNL     1      -1.954  13.697  22.991  0.00  0.00    +0.000 C 
ATOM     27  C   UNL     1      -2.754  14.334  24.133  0.00  0.00    +0.000 C 
ATOM     28  C   UNL     1      -1.354  14.767  23.874  0.00  0.00    +0.000 C 
ENDBRANCH  13  26
TORSDOF 4
ENDMDL
