MODEL 1
REMARK VINA RESULT:      -8.4      0.000      0.000
REMARK  Name = 
REMARK  9 active torsions:
REMARK  status: ('A' for Active; 'I' for Inactive)
REMARK    1  A    between atoms: C_1  and  C_2
REMARK    2  A    between atoms: C_2  and  C_3
REMARK    3  A    between atoms: C_5  and  O_6
REMARK    4  A    between atoms: C_7  and  N_8
REMARK    5  A    between atoms: C_15  and  C_16
REMARK    6  A    between atoms: C_23  and  C_24
REMARK    7  A    between atoms: C_24  and  C_25
REMARK    8  A    between atoms: C_25  and  C_26
REMARK    9  A    between atoms: N_30  and  C_31
REMARK                            x       y       z     vdW  Elec       q    Type
REMARK                         _______ _______ _______ _____ _____    ______ ____
ROOT
ATOM      1  C   UNL     1      -0.505  11.263  21.240  0.00  0.00    +0.000 A 
ATOM      2  C   UNL     1       0.342  10.554  22.129  0.00  0.00    +0.000 A 
ATOM      3  C   UNL     1       1.047   9.427  21.721  0.00  0.00    +0.000 A 
ATOM      4  C   UNL     1       1.004   9.033  20.391  0.00  0.00    +0.000 A 
ATOM      5  C   UNL     1       0.207   9.772  19.498  0.00  0.00    +0.000 A 
ATOM      6  C   UNL     1      -0.624  10.866  19.880  0.00  0.00    +0.000 A 
ENDROOT
BRANCH   4   7
ATOM      7  N   UNL     1       1.720   7.913  19.920  0.00  0.00    +0.000 N 
ATOM      8  C   UNL     1       1.621   6.601  20.545  0.00  0.00    +0.000 C 
ATOM      9  C   UNL     1       2.357   5.720  19.574  0.00  0.00    +0.000 A 
ATOM     10  C   UNL     1       2.895   6.509  18.554  0.00  0.00    +0.000 A 
ATOM     11  C   UNL     1       3.671   6.002  17.530  0.00  0.00    +0.000 A 
ATOM     12  C   UNL     1       3.888   4.626  17.513  0.00  0.00    +0.000 A 
ATOM     13  C   UNL     1       3.326   3.807  18.507  0.00  0.00    +0.000 A 
ATOM     14  C   UNL     1       2.550   4.341  19.561  0.00  0.00    +0.000 A 
ATOM     15  C   UNL     1       2.458   7.895  18.746  0.00  0.00    +0.000 C 
ATOM     16  O   UNL     1       2.726   8.797  17.975  0.00  0.00    +0.000 OA
BRANCH  14  17
ATOM     17  C   UNL     1       1.958   3.413  20.589  0.00  0.00    +0.000 C 
ATOM     18  F   UNL     1       2.198   2.096  20.345  0.00  0.00    +0.000 F 
ATOM     19  F   UNL     1       2.447   3.653  21.838  0.00  0.00    +0.000 F 
ATOM     20  F   UNL     1       0.607   3.536  20.686  0.00  0.00    +0.000 F 
ENDBRANCH  14  17
ENDBRANCH   4   7
BRANCH   6  21
ATOM     21  C   UNL     1      -1.639  11.478  18.755  0.00  0.00    +0.000 C 
ATOM     22  C   UNL     1      -2.953  12.109  19.306  0.00  0.00    +0.000 C 
ATOM     23  O   UNL     1      -3.673  11.668  18.119  0.00  0.00    +0.000 OA
ATOM     24  C   UNL     1      -2.653  10.640  17.931  0.00  0.00    +0.000 C 
BRANCH  21  25
ATOM     25  C   UNL     1      -0.929  12.526  17.861  0.00  0.00    +0.000 C 
BRANCH  25  26
ATOM     26  C   UNL     1      -0.176  13.601  18.574  0.00  0.00    +0.000 A 
ATOM     27  N   UNL     1      -0.659  14.657  19.193  0.00  0.00    +0.000 NA
ATOM     28  N   UNL     1       0.404  15.362  19.710  0.00  0.00    +0.000 NA
ATOM     29  C   UNL     1       1.504  14.714  19.405  0.00  0.00    +0.000 A 
ATOM     30  N   UNL     1       1.192  13.604  18.708  0.00  0.00    +0.000 N 
ATOM     31  C   UNL     1       2.115  12.611  18.224  0.00  0.00    +0.000 C 
ENDBRANCH  25  26
ENDBRANCH  21  25
ENDBRANCH   6  21
BRANCH   1  33
ATOM     32  C   UNL     1      -1.980  12.064  23.120  0.00  0.00    +0.000 C 
ATOM     33  C   UNL     1      -1.244  12.440  21.839  0.00  0.00    +0.000 C 
ENDBRANCH   1  33
BRANCH   3  34
ATOM     34  O   UNL     1       1.835   8.756  22.615  0.00  0.00    +0.000 OA
ATOM     35  H   UNL     1       1.818   7.809  22.395  0.00  0.00    +0.000 HD
ENDBRANCH   3  34
TORSDOF 7
ENDMDL
MODEL 2
REMARK VINA RESULT:      -8.3      3.810      8.705
REMARK  Name = 
REMARK  9 active torsions:
REMARK  status: ('A' for Active; 'I' for Inactive)
REMARK    1  A    between atoms: C_1  and  C_2
REMARK    2  A    between atoms: C_2  and  C_3
REMARK    3  A    between atoms: C_5  and  O_6
REMARK    4  A    between atoms: C_7  and  N_8
REMARK    5  A    between atoms: C_15  and  C_16
REMARK    6  A    between atoms: C_23  and  C_24
REMARK    7  A    between atoms: C_24  and  C_25
REMARK    8  A    between atoms: C_25  and  C_26
REMARK    9  A    between atoms: N_30  and  C_31
REMARK                            x       y       z     vdW  Elec       q    Type
REMARK                         _______ _______ _______ _____ _____    ______ ____
ROOT
ATOM      1  C   UNL     1       4.149   3.913  19.371  0.00  0.00    +0.000 A 
ATOM      2  C   UNL     1       2.818   3.878  19.858  0.00  0.00    +0.000 A 
ATOM      3  C   UNL     1       2.070   5.038  20.020  0.00  0.00    +0.000 A 
ATOM      4  C   UNL     1       2.593   6.256  19.609  0.00  0.00    +0.000 A 
ATOM      5  C   UNL     1       3.893   6.281  19.074  0.00  0.00    +0.000 A 
ATOM      6  C   UNL     1       4.748   5.143  18.988  0.00  0.00    +0.000 A 
ENDROOT
BRANCH   4   7
ATOM      7  N   UNL     1       1.867   7.460  19.728  0.00  0.00    +0.000 N 
ATOM      8  C   UNL     1       1.160   7.831  20.946  0.00  0.00    +0.000 C 
ATOM      9  C   UNL     1       0.757   9.252  20.670  0.00  0.00    +0.000 A 
ATOM     10  C   UNL     1       1.130   9.591  19.367  0.00  0.00    +0.000 A 
ATOM     11  C   UNL     1       0.856  10.817  18.792  0.00  0.00    +0.000 A 
ATOM     12  C   UNL     1       0.201  11.761  19.580  0.00  0.00    +0.000 A 
ATOM     13  C   UNL     1      -0.152  11.456  20.906  0.00  0.00    +0.000 A 
ATOM     14  C   UNL     1       0.118  10.191  21.476  0.00  0.00    +0.000 A 
ATOM     15  C   UNL     1       1.873   8.472  18.780  0.00  0.00    +0.000 C 
ATOM     16  O   UNL     1       2.374   8.506  17.672  0.00  0.00    +0.000 OA
BRANCH  14  17
ATOM     17  C   UNL     1      -0.268   9.926  22.908  0.00  0.00    +0.000 C 
ATOM     18  F   UNL     1       0.786   9.635  23.717  0.00  0.00    +0.000 F 
ATOM     19  F   UNL     1      -0.887  10.997  23.478  0.00  0.00    +0.000 F 
ATOM     20  F   UNL     1      -1.134   8.884  23.031  0.00  0.00    +0.000 F 
ENDBRANCH  14  17
ENDBRANCH   4   7
BRANCH   6  21
ATOM     21  C   UNL     1       6.298   5.390  18.532  0.00  0.00    +0.000 C 
ATOM     22  C   UNL     1       7.318   5.589  19.694  0.00  0.00    +0.000 C 
ATOM     23  O   UNL     1       8.088   6.512  18.871  0.00  0.00    +0.000 OA
ATOM     24  C   UNL     1       6.881   6.758  18.087  0.00  0.00    +0.000 C 
BRANCH  21  25
ATOM     25  C   UNL     1       6.810   4.245  17.621  0.00  0.00    +0.000 C 
BRANCH  25  26
ATOM     26  C   UNL     1       6.828   4.525  16.154  0.00  0.00    +0.000 A 
ATOM     27  N   UNL     1       7.839   4.935  15.417  0.00  0.00    +0.000 NA
ATOM     28  N   UNL     1       7.393   5.047  14.121  0.00  0.00    +0.000 NA
ATOM     29  C   UNL     1       6.129   4.691  14.095  0.00  0.00    +0.000 A 
ATOM     30  N   UNL     1       5.737   4.345  15.338  0.00  0.00    +0.000 N 
ATOM     31  C   UNL     1       4.435   3.862  15.719  0.00  0.00    +0.000 C 
ENDBRANCH  25  26
ENDBRANCH  21  25
ENDBRANCH   6  21
BRANCH   1  33
ATOM     32  C   UNL     1       3.970   1.498  18.671  0.00  0.00    +0.000 C 
ATOM     33  C   UNL     1       4.852   2.575  19.293  0.00  0.00    +0.000 C 
ENDBRANCH   1  33
BRANCH   3  34
ATOM     34  O   UNL     1       0.797   4.965  20.515  0.00  0.00    +0.000 OA
ATOM     35  H   UNL     1       0.835   4.626  21.424  0.00  0.00    +0.000 HD
ENDBRANCH   3  34
TORSDOF 7
ENDMDL
MODEL 3
REMARK VINA RESULT:      -8.2      0.530      1.039
REMARK  Name = 
REMARK  9 active torsions:
REMARK  status: ('A' for Active; 'I' for Inactive)
REMARK    1  A    between atoms: C_1  and  C_2
REMARK    2  A    between atoms: C_2  and  C_3
REMARK    3  A    between atoms: C_5  and  O_6
REMARK    4  A    between atoms: C_7  and  N_8
REMARK    5  A    between atoms: C_15  and  C_16
REMARK    6  A    between atoms: C_23  and  C_24
REMARK    7  A    between atoms: C_24  and  C_25
REMARK    8  A    between atoms: C_25  and  C_26
REMARK    9  A    between atoms: N_30  and  C_31
REMARK                            x       y       z     vdW  Elec       q    Type
REMARK                         _______ _______ _______ _____ _____    ______ ____
ROOT
ATOM      1  C   UNL     1      -0.417  11.273  21.177  0.00  0.00    +0.000 A 
ATOM      2  C   UNL     1       0.399  10.541  22.076  0.00  0.00    +0.000 A 
ATOM      3  C   UNL     1       1.084   9.399  21.675  0.00  0.00    +0.000 A 
ATOM      4  C   UNL     1       1.053   9.011  20.342  0.00  0.00    +0.000 A 
ATOM      5  C   UNL     1       0.287   9.772  19.441  0.00  0.00    +0.000 A 
ATOM      6  C   UNL     1      -0.523  10.884  19.814  0.00  0.00    +0.000 A 
ENDROOT
BRANCH   4   7
ATOM      7  N   UNL     1       1.750   7.876  19.879  0.00  0.00    +0.000 N 
ATOM      8  C   UNL     1       1.641   6.574  20.521  0.00  0.00    +0.000 C 
ATOM      9  C   UNL     1       2.355   5.672  19.554  0.00  0.00    +0.000 A 
ATOM     10  C   UNL     1       2.892   6.441  18.518  0.00  0.00    +0.000 A 
ATOM     11  C   UNL     1       3.650   5.910  17.492  0.00  0.00    +0.000 A 
ATOM     12  C   UNL     1       3.849   4.532  17.490  0.00  0.00    +0.000 A 
ATOM     13  C   UNL     1       3.288   3.733  18.501  0.00  0.00    +0.000 A 
ATOM     14  C   UNL     1       2.531   4.290  19.556  0.00  0.00    +0.000 A 
ATOM     15  C   UNL     1       2.474   7.834  18.697  0.00  0.00    +0.000 C 
ATOM     16  O   UNL     1       2.745   8.722  17.911  0.00  0.00    +0.000 OA
BRANCH  14  17
ATOM     17  C   UNL     1       1.939   3.383  20.603  0.00  0.00    +0.000 C 
ATOM     18  F   UNL     1       2.140   2.059  20.362  0.00  0.00    +0.000 F 
ATOM     19  F   UNL     1       2.460   3.617  21.839  0.00  0.00    +0.000 F 
ATOM     20  F   UNL     1       0.593   3.540  20.729  0.00  0.00    +0.000 F 
ENDBRANCH  14  17
ENDBRANCH   4   7
BRANCH   6  21
ATOM     21  C   UNL     1      -1.506  11.524  18.675  0.00  0.00    +0.000 C 
ATOM     22  C   UNL     1      -2.904  11.994  19.180  0.00  0.00    +0.000 C 
ATOM     23  O   UNL     1      -3.500  11.618  17.906  0.00  0.00    +0.000 OA
ATOM     24  C   UNL     1      -2.387  10.695  17.702  0.00  0.00    +0.000 C 
BRANCH  21  25
ATOM     25  C   UNL     1      -0.827  12.707  17.940  0.00  0.00    +0.000 C 
BRANCH  25  26
ATOM     26  C   UNL     1       0.454  13.202  18.526  0.00  0.00    +0.000 A 
ATOM     27  N   UNL     1       1.655  12.671  18.421  0.00  0.00    +0.000 NA
ATOM     28  N   UNL     1       2.529  13.475  19.116  0.00  0.00    +0.000 NA
ATOM     29  C   UNL     1       1.847  14.479  19.615  0.00  0.00    +0.000 A 
ATOM     30  N   UNL     1       0.551  14.358  19.264  0.00  0.00    +0.000 N 
ATOM     31  C   UNL     1      -0.510  15.277  19.584  0.00  0.00    +0.000 C 
ENDBRANCH  25  26
ENDBRANCH  21  25
ENDBRANCH   6  21
BRANCH   1  33
ATOM     32  C   UNL     1      -1.968  12.086  22.989  0.00  0.00    +0.000 C 
ATOM     33  C   UNL     1      -1.136  12.465  21.769  0.00  0.00    +0.000 C 
ENDBRANCH   1  33
BRANCH   3  34
ATOM     34  O   UNL     1       1.842   8.707  22.578  0.00  0.00    +0.000 OA
ATOM     35  H   UNL     1       1.567   8.960  23.475  0.00  0.00    +0.000 HD
ENDBRANCH   3  34
TORSDOF 7
ENDMDL
MODEL 4
REMARK VINA RESULT:      -8.2      2.996      3.748
REMARK  Name = 
REMARK  9 active torsions:
REMARK  status: ('A' for Active; 'I' for Inactive)
REMARK    1  A    between atoms: C_1  and  C_2
REMARK    2  A    between atoms: C_2  and  C_3
REMARK    3  A    between atoms: C_5  and  O_6
REMARK    4  A    between atoms: C_7  and  N_8
REMARK    5  A    between atoms: C_15  and  C_16
REMARK    6  A    between atoms: C_23  and  C_24
REMARK    7  A    between atoms: C_24  and  C_25
REMARK    8  A    between atoms: C_25  and  C_26
REMARK    9  A    between atoms: N_30  and  C_31
REMARK                            x       y       z     vdW  Elec       q    Type
REMARK                         _______ _______ _______ _____ _____    ______ ____
ROOT
ATOM      1  C   UNL     1       0.317   9.048  21.020  0.00  0.00    +0.000 A 
ATOM      2  C   UNL     1       0.912   7.843  21.474  0.00  0.00    +0.000 A 
ATOM      3  C   UNL     1       1.749   7.091  20.659  0.00  0.00    +0.000 A 
ATOM      4  C   UNL     1       2.096   7.568  19.402  0.00  0.00    +0.000 A 
ATOM      5  C   UNL     1       1.548   8.792  18.976  0.00  0.00    +0.000 A 
ATOM      6  C   UNL     1       0.598   9.550  19.721  0.00  0.00    +0.000 A 
ENDROOT
BRANCH   4   7
ATOM      7  N   UNL     1       2.961   6.857  18.546  0.00  0.00    +0.000 N 
ATOM      8  C   UNL     1       4.312   7.312  18.243  0.00  0.00    +0.000 C 
ATOM      9  C   UNL     1       4.894   6.138  17.506  0.00  0.00    +0.000 A 
ATOM     10  C   UNL     1       3.905   5.164  17.338  0.00  0.00    +0.000 A 
ATOM     11  C   UNL     1       4.112   3.982  16.654  0.00  0.00    +0.000 A 
ATOM     12  C   UNL     1       5.387   3.753  16.142  0.00  0.00    +0.000 A 
ATOM     13  C   UNL     1       6.408   4.701  16.331  0.00  0.00    +0.000 A 
ATOM     14  C   UNL     1       6.178   5.916  17.015  0.00  0.00    +0.000 A 
ATOM     15  C   UNL     1       2.690   5.598  18.033  0.00  0.00    +0.000 C 
ATOM     16  O   UNL     1       1.682   4.921  18.107  0.00  0.00    +0.000 OA
BRANCH  14  17
ATOM     17  C   UNL     1       7.314   6.887  17.203  0.00  0.00    +0.000 C 
ATOM     18  F   UNL     1       8.103   6.612  18.277  0.00  0.00    +0.000 F 
ATOM     19  F   UNL     1       8.150   6.912  16.128  0.00  0.00    +0.000 F 
ATOM     20  F   UNL     1       6.885   8.167  17.371  0.00  0.00    +0.000 F 
ENDBRANCH  14  17
ENDBRANCH   4   7
BRANCH   6  21
ATOM     21  C   UNL     1      -0.088  10.839  18.987  0.00  0.00    +0.000 C 
ATOM     22  C   UNL     1      -1.364  11.406  19.679  0.00  0.00    +0.000 C 
ATOM     23  O   UNL     1      -1.918  11.767  18.380  0.00  0.00    +0.000 OA
ATOM     24  C   UNL     1      -1.055  10.755  17.776  0.00  0.00    +0.000 C 
BRANCH  21  25
ATOM     25  C   UNL     1       0.928  11.996  18.809  0.00  0.00    +0.000 C 
BRANCH  25  26
ATOM     26  C   UNL     1       1.063  12.941  19.957  0.00  0.00    +0.000 A 
ATOM     27  N   UNL     1       1.661  12.736  21.112  0.00  0.00    +0.000 NA
ATOM     28  N   UNL     1       1.543  13.888  21.854  0.00  0.00    +0.000 NA
ATOM     29  C   UNL     1       0.891  14.769  21.132  0.00  0.00    +0.000 A 
ATOM     30  N   UNL     1       0.581  14.228  19.937  0.00  0.00    +0.000 N 
ATOM     31  C   UNL     1      -0.100  14.886  18.852  0.00  0.00    +0.000 C 
ENDBRANCH  25  26
ENDBRANCH  21  25
ENDBRANCH   6  21
BRANCH   1  33
ATOM     32  C   UNL     1      -0.119   9.596  23.442  0.00  0.00    +0.000 C 
ATOM     33  C   UNL     1      -0.608   9.732  22.004  0.00  0.00    +0.000 C 
ENDBRANCH   1  33
BRANCH   3  34
ATOM     34  O   UNL     1       2.285   5.923  21.125  0.00  0.00    +0.000 OA
ATOM     35  H   UNL     1       1.868   5.706  21.976  0.00  0.00    +0.000 HD
ENDBRANCH   3  34
TORSDOF 7
ENDMDL
MODEL 5
REMARK VINA RESULT:      -8.1      3.636      8.184
REMARK  Name = 
REMARK  9 active torsions:
REMARK  status: ('A' for Active; 'I' for Inactive)
REMARK    1  A    between atoms: C_1  and  C_2
REMARK    2  A    between atoms: C_2  and  C_3
REMARK    3  A    between atoms: C_5  and  O_6
REMARK    4  A    between atoms: C_7  and  N_8
REMARK    5  A    between atoms: C_15  and  C_16
REMARK    6  A    between atoms: C_23  and  C_24
REMARK    7  A    between atoms: C_24  and  C_25
REMARK    8  A    between atoms: C_25  and  C_26
REMARK    9  A    between atoms: N_30  and  C_31
REMARK                            x       y       z     vdW  Elec       q    Type
REMARK                         _______ _______ _______ _____ _____    ______ ____
ROOT
ATOM      1  C   UNL     1       3.650   3.642  18.213  0.00  0.00    +0.000 A 
ATOM      2  C   UNL     1       2.643   3.751  19.204  0.00  0.00    +0.000 A 
ATOM      3  C   UNL     1       2.088   4.978  19.549  0.00  0.00    +0.000 A 
ATOM      4  C   UNL     1       2.452   6.119  18.846  0.00  0.00    +0.000 A 
ATOM      5  C   UNL     1       3.411   5.999  17.825  0.00  0.00    +0.000 A 
ATOM      6  C   UNL     1       4.095   4.790  17.503  0.00  0.00    +0.000 A 
ENDROOT
BRANCH   4   7
ATOM      7  N   UNL     1       1.902   7.384  19.138  0.00  0.00    +0.000 N 
ATOM      8  C   UNL     1       1.255   7.682  20.409  0.00  0.00    +0.000 C 
ATOM      9  C   UNL     1       1.054   9.170  20.332  0.00  0.00    +0.000 A 
ATOM     10  C   UNL     1       1.470   9.626  19.078  0.00  0.00    +0.000 A 
ATOM     11  C   UNL     1       1.369  10.944  18.677  0.00  0.00    +0.000 A 
ATOM     12  C   UNL     1       0.854  11.855  19.597  0.00  0.00    +0.000 A 
ATOM     13  C   UNL     1       0.463  11.426  20.877  0.00  0.00    +0.000 A 
ATOM     14  C   UNL     1       0.553  10.071  21.268  0.00  0.00    +0.000 A 
ATOM     15  C   UNL     1       2.048   8.504  18.334  0.00  0.00    +0.000 C 
ATOM     16  O   UNL     1       2.548   8.616  17.230  0.00  0.00    +0.000 OA
BRANCH  14  17
ATOM     17  C   UNL     1       0.136   9.673  22.659  0.00  0.00    +0.000 C 
ATOM     18  F   UNL     1      -0.455  10.674  23.366  0.00  0.00    +0.000 F 
ATOM     19  F   UNL     1      -0.759   8.647  22.652  0.00  0.00    +0.000 F 
ATOM     20  F   UNL     1       1.184   9.248  23.417  0.00  0.00    +0.000 F 
ENDBRANCH  14  17
ENDBRANCH   4   7
BRANCH   6  21
ATOM     21  C   UNL     1       5.325   4.875  16.429  0.00  0.00    +0.000 C 
ATOM     22  C   UNL     1       5.282   6.089  15.453  0.00  0.00    +0.000 C 
ATOM     23  O   UNL     1       5.885   5.278  14.404  0.00  0.00    +0.000 OA
ATOM     24  C   UNL     1       5.387   4.090  15.092  0.00  0.00    +0.000 C 
BRANCH  21  25
ATOM     25  C   UNL     1       6.701   4.869  17.142  0.00  0.00    +0.000 C 
BRANCH  25  26
ATOM     26  C   UNL     1       7.278   6.204  17.479  0.00  0.00    +0.000 A 
ATOM     27  N   UNL     1       7.289   7.294  16.741  0.00  0.00    +0.000 NA
ATOM     28  N   UNL     1       7.919   8.282  17.463  0.00  0.00    +0.000 NA
ATOM     29  C   UNL     1       8.263   7.777  18.624  0.00  0.00    +0.000 A 
ATOM     30  N   UNL     1       7.873   6.488  18.685  0.00  0.00    +0.000 N 
ATOM     31  C   UNL     1       8.033   5.599  19.807  0.00  0.00    +0.000 C 
ENDBRANCH  25  26
ENDBRANCH  21  25
ENDBRANCH   6  21
BRANCH   1  33
ATOM     32  C   UNL     1       3.537   1.218  18.896  0.00  0.00    +0.000 C 
ATOM     33  C   UNL     1       4.191   2.248  17.980  0.00  0.00    +0.000 C 
ENDBRANCH   1  33
BRANCH   3  34
ATOM     34  O   UNL     1       1.135   5.045  20.527  0.00  0.00    +0.000 OA
ATOM     35  H   UNL     1       0.323   4.625  20.199  0.00  0.00    +0.000 HD
ENDBRANCH   3  34
TORSDOF 7
ENDMDL
MODEL 6
REMARK VINA RESULT:      -7.9      2.565      3.828
REMARK  Name = 
REMARK  9 active torsions:
REMARK  status: ('A' for Active; 'I' for Inactive)
REMARK    1  A    between atoms: C_1  and  C_2
REMARK    2  A    between atoms: C_2  and  C_3
REMARK    3  A    between atoms: C_5  and  O_6
REMARK    4  A    between atoms: C_7  and  N_8
REMARK    5  A    between atoms: C_15  and  C_16
REMARK    6  A    between atoms: C_23  and  C_24
REMARK    7  A    between atoms: C_24  and  C_25
REMARK    8  A    between atoms: C_25  and  C_26
REMARK    9  A    between atoms: N_30  and  C_31
REMARK                            x       y       z     vdW  Elec       q    Type
REMARK                         _______ _______ _______ _____ _____    ______ ____
ROOT
ATOM      1  C   UNL     1      -1.707  11.550  19.474  0.00  0.00    +0.000 A 
ATOM      2  C   UNL     1      -0.675  11.462  20.443  0.00  0.00    +0.000 A 
ATOM      3  C   UNL     1       0.333  10.509  20.351  0.00  0.00    +0.000 A 
ATOM      4  C   UNL     1       0.396   9.680  19.240  0.00  0.00    +0.000 A 
ATOM      5  C   UNL     1      -0.598   9.806  18.252  0.00  0.00    +0.000 A 
ATOM      6  C   UNL     1      -1.716  10.686  18.346  0.00  0.00    +0.000 A 
ENDROOT
BRANCH   4   7
ATOM      7  N   UNL     1       1.411   8.713  19.085  0.00  0.00    +0.000 N 
ATOM      8  C   UNL     1       1.468   7.502  19.892  0.00  0.00    +0.000 C 
ATOM      9  C   UNL     1       2.552   6.710  19.215  0.00  0.00    +0.000 A 
ATOM     10  C   UNL     1       3.104   7.474  18.183  0.00  0.00    +0.000 A 
ATOM     11  C   UNL     1       4.158   7.044  17.400  0.00  0.00    +0.000 A 
ATOM     12  C   UNL     1       4.659   5.768  17.645  0.00  0.00    +0.000 A 
ATOM     13  C   UNL     1       4.096   4.967  18.653  0.00  0.00    +0.000 A 
ATOM     14  C   UNL     1       3.031   5.425  19.461  0.00  0.00    +0.000 A 
ATOM     15  C   UNL     1       2.355   8.728  18.070  0.00  0.00    +0.000 C 
ATOM     16  O   UNL     1       2.575   9.567  17.216  0.00  0.00    +0.000 OA
BRANCH  14  17
ATOM     17  C   UNL     1       2.455   4.516  20.514  0.00  0.00    +0.000 C 
ATOM     18  F   UNL     1       2.525   5.020  21.776  0.00  0.00    +0.000 F 
ATOM     19  F   UNL     1       1.137   4.248  20.296  0.00  0.00    +0.000 F 
ATOM     20  F   UNL     1       3.079   3.308  20.558  0.00  0.00    +0.000 F 
ENDBRANCH  14  17
ENDBRANCH   4   7
BRANCH   6  21
ATOM     21  C   UNL     1      -2.882  10.556  17.207  0.00  0.00    +0.000 C 
ATOM     22  C   UNL     1      -2.557   9.604  16.017  0.00  0.00    +0.000 C 
ATOM     23  O   UNL     1      -3.312  10.462  15.113  0.00  0.00    +0.000 OA
ATOM     24  C   UNL     1      -3.100  11.564  16.048  0.00  0.00    +0.000 C 
BRANCH  21  25
ATOM     25  C   UNL     1      -4.234  10.121  17.828  0.00  0.00    +0.000 C 
BRANCH  25  26
ATOM     26  C   UNL     1      -5.324  11.141  17.819  0.00  0.00    +0.000 A 
ATOM     27  N   UNL     1      -5.355  12.292  17.180  0.00  0.00    +0.000 NA
ATOM     28  N   UNL     1      -6.562  12.892  17.458  0.00  0.00    +0.000 NA
ATOM     29  C   UNL     1      -7.240  12.091  18.245  0.00  0.00    +0.000 A 
ATOM     30  N   UNL     1      -6.514  10.981  18.488  0.00  0.00    +0.000 N 
ATOM     31  C   UNL     1      -6.924   9.847  19.274  0.00  0.00    +0.000 C 
ENDBRANCH  25  26
ENDBRANCH  21  25
ENDBRANCH   6  21
BRANCH   1  33
ATOM     32  C   UNL     1      -2.235  13.734  20.616  0.00  0.00    +0.000 C 
ATOM     33  C   UNL     1      -2.759  12.606  19.733  0.00  0.00    +0.000 C 
ENDBRANCH   1  33
BRANCH   3  34
ATOM     34  O   UNL     1       1.297  10.442  21.318  0.00  0.00    +0.000 OA
ATOM     35  H   UNL     1       1.101  11.105  22.000  0.00  0.00    +0.000 HD
ENDBRANCH   3  34
TORSDOF 7
ENDMDL
MODEL 7
REMARK VINA RESULT:      -7.9      1.037      1.593
REMARK  Name = 
REMARK  9 active torsions:
REMARK  status: ('A' for Active; 'I' for Inactive)
REMARK    1  A    between atoms: C_1  and  C_2
REMARK    2  A    between atoms: C_2  and  C_3
REMARK    3  A    between atoms: C_5  and  O_6
REMARK    4  A    between atoms: C_7  and  N_8
REMARK    5  A    between atoms: C_15  and  C_16
REMARK    6  A    between atoms: C_23  and  C_24
REMARK    7  A    between atoms: C_24  and  C_25
REMARK    8  A    between atoms: C_25  and  C_26
REMARK    9  A    between atoms: N_30  and  C_31
REMARK                            x       y       z     vdW  Elec       q    Type
REMARK                         _______ _______ _______ _____ _____    ______ ____
ROOT
ATOM      1  C   UNL     1      -0.543  10.772  20.890  0.00  0.00    +0.000 A 
ATOM      2  C   UNL     1       0.237   9.929  21.722  0.00  0.00    +0.000 A 
ATOM      3  C   UNL     1       1.082   8.961  21.193  0.00  0.00    +0.000 A 
ATOM      4  C   UNL     1       1.249   8.872  19.817  0.00  0.00    +0.000 A 
ATOM      5  C   UNL     1       0.517   9.747  18.995  0.00  0.00    +0.000 A 
ATOM      6  C   UNL     1      -0.447  10.682  19.475  0.00  0.00    +0.000 A 
ENDROOT
BRANCH   4   7
ATOM      7  N   UNL     1       2.113   7.925  19.230  0.00  0.00    +0.000 N 
ATOM      8  C   UNL     1       2.145   6.529  19.646  0.00  0.00    +0.000 C 
ATOM      9  C   UNL     1       3.021   5.897  18.601  0.00  0.00    +0.000 A 
ATOM     10  C   UNL     1       3.504   6.889  17.744  0.00  0.00    +0.000 A 
ATOM     11  C   UNL     1       4.378   6.636  16.704  0.00  0.00    +0.000 A 
ATOM     12  C   UNL     1       4.759   5.312  16.496  0.00  0.00    +0.000 A 
ATOM     13  C   UNL     1       4.257   4.292  17.322  0.00  0.00    +0.000 A 
ATOM     14  C   UNL     1       3.378   4.566  18.394  0.00  0.00    +0.000 A 
ATOM     15  C   UNL     1       2.897   8.171  18.113  0.00  0.00    +0.000 C 
ATOM     16  O   UNL     1       3.089   9.205  17.501  0.00  0.00    +0.000 OA
BRANCH  14  17
ATOM     17  C   UNL     1       2.858   3.431  19.235  0.00  0.00    +0.000 C 
ATOM     18  F   UNL     1       3.193   3.521  20.551  0.00  0.00    +0.000 F 
ATOM     19  F   UNL     1       1.499   3.351  19.205  0.00  0.00    +0.000 F 
ATOM     20  F   UNL     1       3.313   2.219  18.816  0.00  0.00    +0.000 F 
ENDBRANCH  14  17
ENDBRANCH   4   7
BRANCH   6  21
ATOM     21  C   UNL     1      -1.353  11.473  18.368  0.00  0.00    +0.000 C 
ATOM     22  C   UNL     1      -2.887  11.497  18.648  0.00  0.00    +0.000 C 
ATOM     23  O   UNL     1      -3.156  11.459  17.216  0.00  0.00    +0.000 OA
ATOM     24  C   UNL     1      -1.836  10.866  17.024  0.00  0.00    +0.000 C 
BRANCH  21  25
ATOM     25  C   UNL     1      -0.867  12.932  18.177  0.00  0.00    +0.000 C 
BRANCH  25  26
ATOM     26  C   UNL     1       0.551  13.211  18.551  0.00  0.00    +0.000 A 
ATOM     27  N   UNL     1       1.647  12.783  17.960  0.00  0.00    +0.000 NA
ATOM     28  N   UNL     1       2.721  13.301  18.646  0.00  0.00    +0.000 NA
ATOM     29  C   UNL     1       2.257  14.040  19.626  0.00  0.00    +0.000 A 
ATOM     30  N   UNL     1       0.910  14.024  19.600  0.00  0.00    +0.000 N 
ATOM     31  C   UNL     1       0.030  14.741  20.486  0.00  0.00    +0.000 C 
ENDBRANCH  25  26
ENDBRANCH  21  25
ENDBRANCH   6  21
BRANCH   1  33
ATOM     32  C   UNL     1      -1.456  11.516  23.118  0.00  0.00    +0.000 C 
ATOM     33  C   UNL     1      -1.450  11.745  21.611  0.00  0.00    +0.000 C 
ENDBRANCH   1  33
BRANCH   3  34
ATOM     34  O   UNL     1       1.800   8.152  22.029  0.00  0.00    +0.000 OA
ATOM     35  H   UNL     1       1.881   8.590  22.893  0.00  0.00    +0.000 HD
ENDBRANCH   3  34
TORSDOF 7
ENDMDL
MODEL 8
REMARK VINA RESULT:      -7.9      3.251      4.331
REMARK  Name = 
REMARK  9 active torsions:
REMARK  status: ('A' for Active; 'I' for Inactive)
REMARK    1  A    between atoms: C_1  and  C_2
REMARK    2  A    between atoms: C_2  and  C_3
REMARK    3  A    between atoms: C_5  and  O_6
REMARK    4  A    between atoms: C_7  and  N_8
REMARK    5  A    between atoms: C_15  and  C_16
REMARK    6  A    between atoms: C_23  and  C_24
REMARK    7  A    between atoms: C_24  and  C_25
REMARK    8  A    between atoms: C_25  and  C_26
REMARK    9  A    between atoms: N_30  and  C_31
REMARK                            x       y       z     vdW  Elec       q    Type
REMARK                         _______ _______ _______ _____ _____    ______ ____
ROOT
ATOM      1  C   UNL     1       0.336   9.165  20.983  0.00  0.00    +0.000 A 
ATOM      2  C   UNL     1       0.785   7.890  21.411  0.00  0.00    +0.000 A 
ATOM      3  C   UNL     1       1.602   7.098  20.612  0.00  0.00    +0.000 A 
ATOM      4  C   UNL     1       2.075   7.597  19.406  0.00  0.00    +0.000 A 
ATOM      5  C   UNL     1       1.674   8.886  19.009  0.00  0.00    +0.000 A 
ATOM      6  C   UNL     1       0.750   9.697  19.732  0.00  0.00    +0.000 A 
ENDROOT
BRANCH   4   7
ATOM      7  N   UNL     1       2.926   6.846  18.569  0.00  0.00    +0.000 N 
ATOM      8  C   UNL     1       4.278   7.275  18.239  0.00  0.00    +0.000 C 
ATOM      9  C   UNL     1       4.843   6.069  17.541  0.00  0.00    +0.000 A 
ATOM     10  C   UNL     1       3.844   5.100  17.418  0.00  0.00    +0.000 A 
ATOM     11  C   UNL     1       4.034   3.890  16.778  0.00  0.00    +0.000 A 
ATOM     12  C   UNL     1       5.302   3.630  16.265  0.00  0.00    +0.000 A 
ATOM     13  C   UNL     1       6.333   4.575  16.409  0.00  0.00    +0.000 A 
ATOM     14  C   UNL     1       6.121   5.816  17.049  0.00  0.00    +0.000 A 
ATOM     15  C   UNL     1       2.639   5.571  18.106  0.00  0.00    +0.000 C 
ATOM     16  O   UNL     1       1.625   4.907  18.214  0.00  0.00    +0.000 OA
BRANCH  14  17
ATOM     17  C   UNL     1       7.268   6.783  17.191  0.00  0.00    +0.000 C 
ATOM     18  F   UNL     1       6.881   8.076  17.361  0.00  0.00    +0.000 F 
ATOM     19  F   UNL     1       8.057   6.489  18.262  0.00  0.00    +0.000 F 
ATOM     20  F   UNL     1       8.091   6.778  16.108  0.00  0.00    +0.000 F 
ENDBRANCH  14  17
ENDBRANCH   4   7
BRANCH   6  21
ATOM     21  C   UNL     1       0.238  11.078  19.024  0.00  0.00    +0.000 C 
ATOM     22  C   UNL     1       1.361  12.054  18.561  0.00  0.00    +0.000 C 
ATOM     23  O   UNL     1       0.508  13.195  18.866  0.00  0.00    +0.000 OA
ATOM     24  C   UNL     1      -0.233  12.342  19.791  0.00  0.00    +0.000 C 
BRANCH  21  25
ATOM     25  C   UNL     1      -0.686  10.786  17.814  0.00  0.00    +0.000 C 
BRANCH  25  26
ATOM     26  C   UNL     1      -2.122  11.163  17.973  0.00  0.00    +0.000 A 
ATOM     27  N   UNL     1      -2.730  11.615  19.050  0.00  0.00    +0.000 NA
ATOM     28  N   UNL     1      -4.048  11.835  18.725  0.00  0.00    +0.000 NA
ATOM     29  C   UNL     1      -4.210  11.527  17.459  0.00  0.00    +0.000 A 
ATOM     30  N   UNL     1      -3.034  11.114  16.945  0.00  0.00    +0.000 N 
ATOM     31  C   UNL     1      -2.788  10.724  15.581  0.00  0.00    +0.000 C 
ENDBRANCH  25  26
ENDBRANCH  21  25
ENDBRANCH   6  21
BRANCH   1  33
ATOM     32  C   UNL     1      -0.204   9.649  23.397  0.00  0.00    +0.000 C 
ATOM     33  C   UNL     1      -0.586   9.890  21.940  0.00  0.00    +0.000 C 
ENDBRANCH   1  33
BRANCH   3  34
ATOM     34  O   UNL     1       1.994   5.864  21.049  0.00  0.00    +0.000 OA
ATOM     35  H   UNL     1       1.203   5.314  21.181  0.00  0.00    +0.000 HD
ENDBRANCH   3  34
TORSDOF 7
ENDMDL
MODEL 9
REMARK VINA RESULT:      -7.8      3.638      8.358
REMARK  Name = 
REMARK  9 active torsions:
REMARK  status: ('A' for Active; 'I' for Inactive)
REMARK    1  A    between atoms: C_1  and  C_2
REMARK    2  A    between atoms: C_2  and  C_3
REMARK    3  A    between atoms: C_5  and  O_6
REMARK    4  A    between atoms: C_7  and  N_8
REMARK    5  A    between atoms: C_15  and  C_16
REMARK    6  A    between atoms: C_23  and  C_24
REMARK    7  A    between atoms: C_24  and  C_25
REMARK    8  A    between atoms: C_25  and  C_26
REMARK    9  A    between atoms: N_30  and  C_31
REMARK                            x       y       z     vdW  Elec       q    Type
REMARK                         _______ _______ _______ _____ _____    ______ ____
ROOT
ATOM      1  C   UNL     1       3.753   3.671  18.085  0.00  0.00    +0.000 A 
ATOM      2  C   UNL     1       2.783   3.783  19.113  0.00  0.00    +0.000 A 
ATOM      3  C   UNL     1       2.223   5.008  19.456  0.00  0.00    +0.000 A 
ATOM      4  C   UNL     1       2.541   6.141  18.718  0.00  0.00    +0.000 A 
ATOM      5  C   UNL     1       3.462   6.015  17.662  0.00  0.00    +0.000 A 
ATOM      6  C   UNL     1       4.152   4.811  17.337  0.00  0.00    +0.000 A 
ENDROOT
BRANCH   4   7
ATOM      7  N   UNL     1       1.982   7.403  19.008  0.00  0.00    +0.000 N 
ATOM      8  C   UNL     1       1.331   7.698  20.277  0.00  0.00    +0.000 C 
ATOM      9  C   UNL     1       1.122   9.184  20.198  0.00  0.00    +0.000 A 
ATOM     10  C   UNL     1       1.538   9.642  18.945  0.00  0.00    +0.000 A 
ATOM     11  C   UNL     1       1.429  10.959  18.542  0.00  0.00    +0.000 A 
ATOM     12  C   UNL     1       0.907  11.867  19.459  0.00  0.00    +0.000 A 
ATOM     13  C   UNL     1       0.516  11.438  20.739  0.00  0.00    +0.000 A 
ATOM     14  C   UNL     1       0.614  10.084  21.132  0.00  0.00    +0.000 A 
ATOM     15  C   UNL     1       2.124   8.522  18.202  0.00  0.00    +0.000 C 
ATOM     16  O   UNL     1       2.624   8.637  17.100  0.00  0.00    +0.000 OA
BRANCH  14  17
ATOM     17  C   UNL     1       0.197   9.684  22.523  0.00  0.00    +0.000 C 
ATOM     18  F   UNL     1      -0.360  10.696  23.244  0.00  0.00    +0.000 F 
ATOM     19  F   UNL     1      -0.729   8.685  22.513  0.00  0.00    +0.000 F 
ATOM     20  F   UNL     1       1.237   9.223  23.268  0.00  0.00    +0.000 F 
ENDBRANCH  14  17
ENDBRANCH   4   7
BRANCH   6  21
ATOM     21  C   UNL     1       5.338   4.894  16.215  0.00  0.00    +0.000 C 
ATOM     22  C   UNL     1       4.859   5.054  14.740  0.00  0.00    +0.000 C 
ATOM     23  O   UNL     1       5.993   4.265  14.278  0.00  0.00    +0.000 OA
ATOM     24  C   UNL     1       6.068   3.667  15.608  0.00  0.00    +0.000 C 
BRANCH  21  25
ATOM     25  C   UNL     1       6.338   6.036  16.531  0.00  0.00    +0.000 C 
BRANCH  25  26
ATOM     26  C   UNL     1       7.110   5.905  17.803  0.00  0.00    +0.000 A 
ATOM     27  N   UNL     1       7.264   4.834  18.553  0.00  0.00    +0.000 NA
ATOM     28  N   UNL     1       8.062   5.182  19.619  0.00  0.00    +0.000 NA
ATOM     29  C   UNL     1       8.385   6.447  19.486  0.00  0.00    +0.000 A 
ATOM     30  N   UNL     1       7.825   6.937  18.362  0.00  0.00    +0.000 N 
ATOM     31  C   UNL     1       7.972   8.273  17.846  0.00  0.00    +0.000 C 
ENDBRANCH  25  26
ENDBRANCH  21  25
ENDBRANCH   6  21
BRANCH   1  33
ATOM     32  C   UNL     1       3.498   1.214  18.589  0.00  0.00    +0.000 C 
ATOM     33  C   UNL     1       4.306   2.280  17.857  0.00  0.00    +0.000 C 
ENDBRANCH   1  33
BRANCH   3  34
ATOM     34  O   UNL     1       1.307   5.080  20.469  0.00  0.00    +0.000 OA
ATOM     35  H   UNL     1       1.123   4.180  20.786  0.00  0.00    +0.000 HD
ENDBRANCH   3  34
TORSDOF 7
ENDMDL
