MODEL 1
REMARK VINA RESULT:      -9.3      0.000      0.000
REMARK  Name = 
REMARK  3 active torsions:
REMARK  status: ('A' for Active; 'I' for Inactive)
REMARK    1  A    between atoms: N_3  and  C_4
REMARK    2  A    between atoms: C_7  and  C_8
REMARK    3  A    between atoms: C_21  and  N_22
REMARK                            x       y       z     vdW  Elec       q    Type
REMARK                         _______ _______ _______ _____ _____    ______ ____
ROOT
ATOM      1  O   UNL     1       1.315   6.512  20.941  0.00  0.00    +0.000 OA
ATOM      2  C   UNL     1       1.872   7.139  20.045  0.00  0.00    +0.000 C 
ATOM      3  N   UNL     1       1.635   8.462  19.764  0.00  0.00    +0.000 N 
ATOM      4  N   UNL     1       2.822   6.530  19.221  0.00  0.00    +0.000 N 
ATOM      5  C   UNL     1       3.696   7.239  18.284  0.00  0.00    +0.000 C 
ATOM      6  C   UNL     1       4.040   6.385  17.076  0.00  0.00    +0.000 C 
ATOM      7  C   UNL     1       4.522   4.982  17.438  0.00  0.00    +0.000 C 
ATOM      8  C   UNL     1       3.588   4.311  18.446  0.00  0.00    +0.000 C 
ATOM      9  C   UNL     1       3.265   5.199  19.634  0.00  0.00    +0.000 C 
ATOM     10  H   UNL     1       1.926   8.798  18.867  0.00  0.00    +0.000 HD
ENDROOT
BRANCH   3  11
ATOM     11  C   UNL     1       0.785   9.338  20.453  0.00  0.00    +0.000 A 
ATOM     12  C   UNL     1       0.070  10.361  19.844  0.00  0.00    +0.000 A 
ATOM     13  C   UNL     1      -0.670  11.255  20.619  0.00  0.00    +0.000 A 
ATOM     14  C   UNL     1      -0.752  11.125  22.017  0.00  0.00    +0.000 A 
ATOM     15  C   UNL     1      -0.070  10.043  22.594  0.00  0.00    +0.000 A 
ATOM     16  F   UNL     1      -0.121   9.817  23.916  0.00  0.00    +0.000 F 
ATOM     17  C   UNL     1       0.688   9.161  21.832  0.00  0.00    +0.000 A 
BRANCH  14  18
ATOM     18  C   UNL     1      -1.523  12.094  22.818  0.00  0.00    +0.000 A 
ATOM     19  C   UNL     1      -1.054  13.401  23.053  0.00  0.00    +0.000 A 
ATOM     20  C   UNL     1      -1.789  14.315  23.816  0.00  0.00    +0.000 A 
ATOM     21  C   UNL     1      -3.021  13.944  24.343  0.00  0.00    +0.000 A 
ATOM     22  C   UNL     1      -3.503  12.665  24.108  0.00  0.00    +0.000 A 
ATOM     23  F   UNL     1      -4.694  12.304  24.602  0.00  0.00    +0.000 F 
ATOM     24  C   UNL     1      -2.770  11.747  23.366  0.00  0.00    +0.000 A 
ENDBRANCH  14  18
ENDBRANCH   3  11
BRANCH   7  25
ATOM     25  N   UNL     1       5.923   4.941  17.850  0.00  0.00    +0.000 N 
ATOM     26  C   UNL     1       6.508   5.207  19.033  0.00  0.00    +0.000 A 
ATOM     27  N   UNL     1       7.784   4.990  19.086  0.00  0.00    +0.000 NA
ATOM     28  N   UNL     1       8.080   4.530  17.839  0.00  0.00    +0.000 N 
ATOM     29  C   UNL     1       6.935   4.459  17.059  0.00  0.00    +0.000 A 
ATOM     30  O   UNL     1       6.865   4.040  15.916  0.00  0.00    +0.000 OA
ATOM     31  H   UNL     1       9.008   4.224  17.568  0.00  0.00    +0.000 HD
ENDBRANCH   7  25
TORSDOF 3
ENDMDL
MODEL 2
REMARK VINA RESULT:      -9.1      4.488     10.796
REMARK  Name = 
REMARK  3 active torsions:
REMARK  status: ('A' for Active; 'I' for Inactive)
REMARK    1  A    between atoms: N_3  and  C_4
REMARK    2  A    between atoms: C_7  and  C_8
REMARK    3  A    between atoms: C_21  and  N_22
REMARK                            x       y       z     vdW  Elec       q    Type
REMARK                         _______ _______ _______ _____ _____    ______ ____
ROOT
ATOM      1  O   UNL     1       1.290  10.786  21.856  0.00  0.00    +0.000 OA
ATOM      2  C   UNL     1       0.327  10.865  21.099  0.00  0.00    +0.000 C 
ATOM      3  N   UNL     1       0.232  10.211  19.897  0.00  0.00    +0.000 N 
ATOM      4  N   UNL     1      -0.781  11.653  21.423  0.00  0.00    +0.000 N 
ATOM      5  C   UNL     1      -2.059  11.638  20.707  0.00  0.00    +0.000 C 
ATOM      6  C   UNL     1      -2.747  12.990  20.750  0.00  0.00    +0.000 C 
ATOM      7  C   UNL     1      -2.826  13.591  22.151  0.00  0.00    +0.000 C 
ATOM      8  C   UNL     1      -1.472  13.544  22.859  0.00  0.00    +0.000 C 
ATOM      9  C   UNL     1      -0.814  12.177  22.789  0.00  0.00    +0.000 C 
ATOM     10  H   UNL     1      -0.452  10.546  19.246  0.00  0.00    +0.000 HD
ENDROOT
BRANCH   3  11
ATOM     11  C   UNL     1       1.155   9.314  19.342  0.00  0.00    +0.000 A 
ATOM     12  C   UNL     1       1.741   9.481  18.094  0.00  0.00    +0.000 A 
ATOM     13  C   UNL     1       2.569   8.486  17.572  0.00  0.00    +0.000 A 
ATOM     14  C   UNL     1       2.867   7.320  18.298  0.00  0.00    +0.000 A 
ATOM     15  C   UNL     1       2.310   7.212  19.581  0.00  0.00    +0.000 A 
ATOM     16  F   UNL     1       2.569   6.151  20.362  0.00  0.00    +0.000 F 
ATOM     17  C   UNL     1       1.466   8.188  20.100  0.00  0.00    +0.000 A 
BRANCH  14  18
ATOM     18  C   UNL     1       3.728   6.272  17.717  0.00  0.00    +0.000 A 
ATOM     19  C   UNL     1       3.276   4.948  17.555  0.00  0.00    +0.000 A 
ATOM     20  C   UNL     1       4.097   3.958  17.005  0.00  0.00    +0.000 A 
ATOM     21  C   UNL     1       5.384   4.279  16.588  0.00  0.00    +0.000 A 
ATOM     22  C   UNL     1       5.838   5.581  16.727  0.00  0.00    +0.000 A 
ATOM     23  F   UNL     1       7.071   5.902  16.315  0.00  0.00    +0.000 F 
ATOM     24  C   UNL     1       5.034   6.566  17.288  0.00  0.00    +0.000 A 
ENDBRANCH  14  18
ENDBRANCH   3  11
BRANCH   7  25
ATOM     25  N   UNL     1      -3.907  13.029  22.960  0.00  0.00    +0.000 N 
ATOM     26  C   UNL     1      -3.897  12.451  24.175  0.00  0.00    +0.000 A 
ATOM     27  N   UNL     1      -5.058  12.132  24.651  0.00  0.00    +0.000 NA
ATOM     28  N   UNL     1      -5.922  12.538  23.680  0.00  0.00    +0.000 N 
ATOM     29  C   UNL     1      -5.235  13.129  22.630  0.00  0.00    +0.000 A 
ATOM     30  O   UNL     1      -5.729  13.637  21.638  0.00  0.00    +0.000 OA
ATOM     31  H   UNL     1      -6.929  12.467  23.770  0.00  0.00    +0.000 HD
ENDBRANCH   7  25
TORSDOF 3
ENDMDL
MODEL 3
REMARK VINA RESULT:      -9.1      0.929      1.286
REMARK  Name = 
REMARK  3 active torsions:
REMARK  status: ('A' for Active; 'I' for Inactive)
REMARK    1  A    between atoms: N_3  and  C_4
REMARK    2  A    between atoms: C_7  and  C_8
REMARK    3  A    between atoms: C_21  and  N_22
REMARK                            x       y       z     vdW  Elec       q    Type
REMARK                         _______ _______ _______ _____ _____    ______ ____
ROOT
ATOM      1  O   UNL     1       1.367   6.544  21.022  0.00  0.00    +0.000 OA
ATOM      2  C   UNL     1       1.887   7.122  20.073  0.00  0.00    +0.000 C 
ATOM      3  N   UNL     1       1.635   8.427  19.729  0.00  0.00    +0.000 N 
ATOM      4  N   UNL     1       2.807   6.470  19.247  0.00  0.00    +0.000 N 
ATOM      5  C   UNL     1       3.642   7.126  18.240  0.00  0.00    +0.000 C 
ATOM      6  C   UNL     1       3.943   6.208  17.069  0.00  0.00    +0.000 C 
ATOM      7  C   UNL     1       4.441   4.827  17.488  0.00  0.00    +0.000 C 
ATOM      8  C   UNL     1       3.549   4.212  18.566  0.00  0.00    +0.000 C 
ATOM      9  C   UNL     1       3.269   5.163  19.716  0.00  0.00    +0.000 C 
ATOM     10  H   UNL     1       1.891   8.714  18.804  0.00  0.00    +0.000 HD
ENDROOT
BRANCH   3  11
ATOM     11  C   UNL     1       0.810   9.339  20.401  0.00  0.00    +0.000 A 
ATOM     12  C   UNL     1       0.203  10.429  19.790  0.00  0.00    +0.000 A 
ATOM     13  C   UNL     1      -0.517  11.348  20.555  0.00  0.00    +0.000 A 
ATOM     14  C   UNL     1      -0.687  11.180  21.940  0.00  0.00    +0.000 A 
ATOM     15  C   UNL     1      -0.115  10.035  22.515  0.00  0.00    +0.000 A 
ATOM     16  F   UNL     1      -0.258   9.772  23.824  0.00  0.00    +0.000 F 
ATOM     17  C   UNL     1       0.623   9.126  21.765  0.00  0.00    +0.000 A 
BRANCH  14  18
ATOM     18  C   UNL     1      -1.434  12.175  22.732  0.00  0.00    +0.000 A 
ATOM     19  C   UNL     1      -2.730  11.914  23.217  0.00  0.00    +0.000 A 
ATOM     20  C   UNL     1      -3.435  12.863  23.966  0.00  0.00    +0.000 A 
ATOM     21  C   UNL     1      -2.847  14.087  24.262  0.00  0.00    +0.000 A 
ATOM     22  C   UNL     1      -1.565  14.353  23.805  0.00  0.00    +0.000 A 
ATOM     23  F   UNL     1      -0.986  15.525  24.096  0.00  0.00    +0.000 F 
ATOM     24  C   UNL     1      -0.866  13.422  23.046  0.00  0.00    +0.000 A 
ENDBRANCH  14  18
ENDBRANCH   3  11
BRANCH   7  25
ATOM     25  N   UNL     1       5.858   4.810  17.847  0.00  0.00    +0.000 N 
ATOM     26  C   UNL     1       6.480   5.060  19.015  0.00  0.00    +0.000 A 
ATOM     27  N   UNL     1       7.761   4.873  19.016  0.00  0.00    +0.000 NA
ATOM     28  N   UNL     1       8.022   4.453  17.747  0.00  0.00    +0.000 N 
ATOM     29  C   UNL     1       6.851   4.374  17.008  0.00  0.00    +0.000 A 
ATOM     30  O   UNL     1       6.748   3.983  15.857  0.00  0.00    +0.000 OA
ATOM     31  H   UNL     1       8.946   4.177  17.435  0.00  0.00    +0.000 HD
ENDBRANCH   7  25
TORSDOF 3
ENDMDL
MODEL 4
REMARK VINA RESULT:      -9.0      4.495     10.698
REMARK  Name = 
REMARK  3 active torsions:
REMARK  status: ('A' for Active; 'I' for Inactive)
REMARK    1  A    between atoms: N_3  and  C_4
REMARK    2  A    between atoms: C_7  and  C_8
REMARK    3  A    between atoms: C_21  and  N_22
REMARK                            x       y       z     vdW  Elec       q    Type
REMARK                         _______ _______ _______ _____ _____    ______ ____
ROOT
ATOM      1  O   UNL     1       1.046  10.353  22.168  0.00  0.00    +0.000 OA
ATOM      2  C   UNL     1       0.208  10.673  21.329  0.00  0.00    +0.000 C 
ATOM      3  N   UNL     1       0.208  10.233  20.029  0.00  0.00    +0.000 N 
ATOM      4  N   UNL     1      -0.843  11.535  21.653  0.00  0.00    +0.000 N 
ATOM      5  C   UNL     1      -2.005  11.796  20.802  0.00  0.00    +0.000 C 
ATOM      6  C   UNL     1      -2.545  13.202  20.997  0.00  0.00    +0.000 C 
ATOM      7  C   UNL     1      -2.748  13.580  22.463  0.00  0.00    +0.000 C 
ATOM      8  C   UNL     1      -1.515  13.249  23.304  0.00  0.00    +0.000 C 
ATOM      9  C   UNL     1      -1.004  11.837  23.075  0.00  0.00    +0.000 C 
ATOM     10  H   UNL     1      -0.341  10.752  19.371  0.00  0.00    +0.000 HD
ENDROOT
BRANCH   3  11
ATOM     11  C   UNL     1       1.096   9.324  19.438  0.00  0.00    +0.000 A 
ATOM     12  C   UNL     1       1.636   9.484  18.169  0.00  0.00    +0.000 A 
ATOM     13  C   UNL     1       2.429   8.478  17.615  0.00  0.00    +0.000 A 
ATOM     14  C   UNL     1       2.740   7.308  18.329  0.00  0.00    +0.000 A 
ATOM     15  C   UNL     1       2.232   7.207  19.633  0.00  0.00    +0.000 A 
ATOM     16  F   UNL     1       2.507   6.143  20.404  0.00  0.00    +0.000 F 
ATOM     17  C   UNL     1       1.422   8.194  20.185  0.00  0.00    +0.000 A 
BRANCH  14  18
ATOM     18  C   UNL     1       3.563   6.248  17.715  0.00  0.00    +0.000 A 
ATOM     19  C   UNL     1       4.789   6.535  17.084  0.00  0.00    +0.000 A 
ATOM     20  C   UNL     1       5.564   5.527  16.502  0.00  0.00    +0.000 A 
ATOM     21  C   UNL     1       5.136   4.205  16.558  0.00  0.00    +0.000 A 
ATOM     22  C   UNL     1       3.939   3.905  17.190  0.00  0.00    +0.000 A 
ATOM     23  F   UNL     1       3.526   2.633  17.260  0.00  0.00    +0.000 F 
ATOM     24  C   UNL     1       3.155   4.904  17.755  0.00  0.00    +0.000 A 
ENDBRANCH  14  18
ENDBRANCH   3  11
BRANCH   7  25
ATOM     25  N   UNL     1      -3.982  13.041  23.031  0.00  0.00    +0.000 N 
ATOM     26  C   UNL     1      -4.237  12.482  24.229  0.00  0.00    +0.000 A 
ATOM     27  N   UNL     1      -5.477  12.182  24.452  0.00  0.00    +0.000 NA
ATOM     28  N   UNL     1      -6.110  12.580  23.314  0.00  0.00    +0.000 N 
ATOM     29  C   UNL     1      -5.209  13.148  22.426  0.00  0.00    +0.000 A 
ATOM     30  O   UNL     1      -5.476  13.645  21.345  0.00  0.00    +0.000 OA
ATOM     31  H   UNL     1      -7.114  12.519  23.190  0.00  0.00    +0.000 HD
ENDBRANCH   7  25
TORSDOF 3
ENDMDL
MODEL 5
REMARK VINA RESULT:      -9.0      4.434     10.786
REMARK  Name = 
REMARK  3 active torsions:
REMARK  status: ('A' for Active; 'I' for Inactive)
REMARK    1  A    between atoms: N_3  and  C_4
REMARK    2  A    between atoms: C_7  and  C_8
REMARK    3  A    between atoms: C_21  and  N_22
REMARK                            x       y       z     vdW  Elec       q    Type
REMARK                         _______ _______ _______ _____ _____    ______ ____
ROOT
ATOM      1  O   UNL     1       0.912  10.082  22.128  0.00  0.00    +0.000 OA
ATOM      2  C   UNL     1       0.239  10.553  21.215  0.00  0.00    +0.000 C 
ATOM      3  N   UNL     1       0.387  10.219  19.893  0.00  0.00    +0.000 N 
ATOM      4  N   UNL     1      -0.763  11.493  21.470  0.00  0.00    +0.000 N 
ATOM      5  C   UNL     1      -1.760  11.941  20.495  0.00  0.00    +0.000 C 
ATOM      6  C   UNL     1      -2.189  13.376  20.743  0.00  0.00    +0.000 C 
ATOM      7  C   UNL     1      -2.568  13.657  22.195  0.00  0.00    +0.000 C 
ATOM      8  C   UNL     1      -1.507  13.134  23.164  0.00  0.00    +0.000 C 
ATOM      9  C   UNL     1      -1.102  11.698  22.878  0.00  0.00    +0.000 C 
ATOM     10  H   UNL     1      -0.010  10.842  19.216  0.00  0.00    +0.000 HD
ENDROOT
BRANCH   3  11
ATOM     11  C   UNL     1       1.264   9.271  19.348  0.00  0.00    +0.000 A 
ATOM     12  C   UNL     1       1.868   9.400  18.105  0.00  0.00    +0.000 A 
ATOM     13  C   UNL     1       2.644   8.359  17.593  0.00  0.00    +0.000 A 
ATOM     14  C   UNL     1       2.873   7.182  18.326  0.00  0.00    +0.000 A 
ATOM     15  C   UNL     1       2.301   7.110  19.605  0.00  0.00    +0.000 A 
ATOM     16  F   UNL     1       2.496   6.040  20.392  0.00  0.00    +0.000 F 
ATOM     17  C   UNL     1       1.507   8.132  20.114  0.00  0.00    +0.000 A 
BRANCH  14  18
ATOM     18  C   UNL     1       3.679   6.085  17.756  0.00  0.00    +0.000 A 
ATOM     19  C   UNL     1       3.153   4.790  17.584  0.00  0.00    +0.000 A 
ATOM     20  C   UNL     1       3.923   3.755  17.045  0.00  0.00    +0.000 A 
ATOM     21  C   UNL     1       5.232   4.000  16.647  0.00  0.00    +0.000 A 
ATOM     22  C   UNL     1       5.759   5.274  16.796  0.00  0.00    +0.000 A 
ATOM     23  F   UNL     1       7.016   5.522  16.404  0.00  0.00    +0.000 F 
ATOM     24  C   UNL     1       5.006   6.303  17.347  0.00  0.00    +0.000 A 
ENDBRANCH  14  18
ENDBRANCH   3  11
BRANCH   7  25
ATOM     25  N   UNL     1      -3.916  13.209  22.537  0.00  0.00    +0.000 N 
ATOM     26  C   UNL     1      -4.896  12.683  21.778  0.00  0.00    +0.000 A 
ATOM     27  N   UNL     1      -5.958  12.310  22.417  0.00  0.00    +0.000 NA
ATOM     28  N   UNL     1      -5.666  12.599  23.715  0.00  0.00    +0.000 N 
ATOM     29  C   UNL     1      -4.390  13.129  23.822  0.00  0.00    +0.000 A 
ATOM     30  O   UNL     1      -3.821  13.440  24.856  0.00  0.00    +0.000 OA
ATOM     31  H   UNL     1      -6.290  12.381  24.484  0.00  0.00    +0.000 HD
ENDBRANCH   7  25
TORSDOF 3
ENDMDL
MODEL 6
REMARK VINA RESULT:      -9.0      0.958      1.296
REMARK  Name = 
REMARK  3 active torsions:
REMARK  status: ('A' for Active; 'I' for Inactive)
REMARK    1  A    between atoms: N_3  and  C_4
REMARK    2  A    between atoms: C_7  and  C_8
REMARK    3  A    between atoms: C_21  and  N_22
REMARK                            x       y       z     vdW  Elec       q    Type
REMARK                         _______ _______ _______ _____ _____    ______ ____
ROOT
ATOM      1  O   UNL     1       1.211   6.618  21.243  0.00  0.00    +0.000 OA
ATOM      2  C   UNL     1       1.761   7.256  20.350  0.00  0.00    +0.000 C 
ATOM      3  N   UNL     1       1.609   8.606  20.158  0.00  0.00    +0.000 N 
ATOM      4  N   UNL     1       2.613   6.630  19.437  0.00  0.00    +0.000 N 
ATOM      5  C   UNL     1       3.484   7.328  18.488  0.00  0.00    +0.000 C 
ATOM      6  C   UNL     1       3.692   6.525  17.217  0.00  0.00    +0.000 C 
ATOM      7  C   UNL     1       4.086   5.072  17.470  0.00  0.00    +0.000 C 
ATOM      8  C   UNL     1       3.164   4.411  18.495  0.00  0.00    +0.000 C 
ATOM      9  C   UNL     1       2.977   5.248  19.749  0.00  0.00    +0.000 C 
ATOM     10  H   UNL     1       1.873   8.974  19.265  0.00  0.00    +0.000 HD
ENDROOT
BRANCH   3  11
ATOM     11  C   UNL     1       0.869   9.500  20.945  0.00  0.00    +0.000 A 
ATOM     12  C   UNL     1       0.487   9.243  22.255  0.00  0.00    +0.000 A 
ATOM     13  C   UNL     1      -0.339  10.142  22.932  0.00  0.00    +0.000 A 
ATOM     14  C   UNL     1      -0.770  11.339  22.334  0.00  0.00    +0.000 A 
ATOM     15  C   UNL     1      -0.314  11.598  21.033  0.00  0.00    +0.000 A 
ATOM     16  F   UNL     1      -0.643  12.733  20.396  0.00  0.00    +0.000 F 
ATOM     17  C   UNL     1       0.491  10.698  20.343  0.00  0.00    +0.000 A 
BRANCH  14  18
ATOM     18  C   UNL     1      -1.660  12.264  23.061  0.00  0.00    +0.000 A 
ATOM     19  C   UNL     1      -1.286  13.594  23.331  0.00  0.00    +0.000 A 
ATOM     20  C   UNL     1      -2.133  14.466  24.021  0.00  0.00    +0.000 A 
ATOM     21  C   UNL     1      -3.385  14.029  24.440  0.00  0.00    +0.000 A 
ATOM     22  C   UNL     1      -3.774  12.726  24.168  0.00  0.00    +0.000 A 
ATOM     23  F   UNL     1      -4.983  12.300  24.556  0.00  0.00    +0.000 F 
ATOM     24  C   UNL     1      -2.930  11.849  23.497  0.00  0.00    +0.000 A 
ENDBRANCH  14  18
ENDBRANCH   3  11
BRANCH   7  25
ATOM     25  N   UNL     1       5.502   4.905  17.792  0.00  0.00    +0.000 N 
ATOM     26  C   UNL     1       6.186   5.132  18.929  0.00  0.00    +0.000 A 
ATOM     27  N   UNL     1       7.436   4.797  18.905  0.00  0.00    +0.000 NA
ATOM     28  N   UNL     1       7.606   4.293  17.651  0.00  0.00    +0.000 N 
ATOM     29  C   UNL     1       6.411   4.319  16.949  0.00  0.00    +0.000 A 
ATOM     30  O   UNL     1       6.226   3.890  15.822  0.00  0.00    +0.000 OA
ATOM     31  H   UNL     1       8.481   3.897  17.328  0.00  0.00    +0.000 HD
ENDBRANCH   7  25
TORSDOF 3
ENDMDL
MODEL 7
REMARK VINA RESULT:      -9.0      4.529     10.802
REMARK  Name = 
REMARK  3 active torsions:
REMARK  status: ('A' for Active; 'I' for Inactive)
REMARK    1  A    between atoms: N_3  and  C_4
REMARK    2  A    between atoms: C_7  and  C_8
REMARK    3  A    between atoms: C_21  and  N_22
REMARK                            x       y       z     vdW  Elec       q    Type
REMARK                         _______ _______ _______ _____ _____    ______ ____
ROOT
ATOM      1  O   UNL     1       0.753  10.443  22.324  0.00  0.00    +0.000 OA
ATOM      2  C   UNL     1       0.037  10.870  21.422  0.00  0.00    +0.000 C 
ATOM      3  N   UNL     1       0.092  10.437  20.121  0.00  0.00    +0.000 N 
ATOM      4  N   UNL     1      -0.918  11.859  21.668  0.00  0.00    +0.000 N 
ATOM      5  C   UNL     1      -1.961  12.270  20.725  0.00  0.00    +0.000 C 
ATOM      6  C   UNL     1      -2.331  13.733  20.893  0.00  0.00    +0.000 C 
ATOM      7  C   UNL     1      -2.608  14.131  22.341  0.00  0.00    +0.000 C 
ATOM      8  C   UNL     1      -1.504  13.642  23.278  0.00  0.00    +0.000 C 
ATOM      9  C   UNL     1      -1.160  12.177  23.075  0.00  0.00    +0.000 C 
ATOM     10  H   UNL     1      -0.329  11.023  19.426  0.00  0.00    +0.000 HD
ENDROOT
BRANCH   3  11
ATOM     11  C   UNL     1       0.903   9.423  19.595  0.00  0.00    +0.000 A 
ATOM     12  C   UNL     1       1.448   9.452  18.319  0.00  0.00    +0.000 A 
ATOM     13  C   UNL     1       2.158   8.351  17.836  0.00  0.00    +0.000 A 
ATOM     14  C   UNL     1       2.379   7.212  18.630  0.00  0.00    +0.000 A 
ATOM     15  C   UNL     1       1.870   7.242  19.937  0.00  0.00    +0.000 A 
ATOM     16  F   UNL     1       2.065   6.214  20.779  0.00  0.00    +0.000 F 
ATOM     17  C   UNL     1       1.143   8.324  20.418  0.00  0.00    +0.000 A 
BRANCH  14  18
ATOM     18  C   UNL     1       3.114   6.051  18.091  0.00  0.00    +0.000 A 
ATOM     19  C   UNL     1       4.498   6.104  17.836  0.00  0.00    +0.000 A 
ATOM     20  C   UNL     1       5.189   5.002  17.324  0.00  0.00    +0.000 A 
ATOM     21  C   UNL     1       4.511   3.814  17.075  0.00  0.00    +0.000 A 
ATOM     22  C   UNL     1       3.151   3.742  17.336  0.00  0.00    +0.000 A 
ATOM     23  F   UNL     1       2.492   2.597  17.111  0.00  0.00    +0.000 F 
ATOM     24  C   UNL     1       2.455   4.838  17.828  0.00  0.00    +0.000 A 
ENDBRANCH  14  18
ENDBRANCH   3  11
BRANCH   7  25
ATOM     25  N   UNL     1      -3.945  13.754  22.796  0.00  0.00    +0.000 N 
ATOM     26  C   UNL     1      -4.740  12.722  22.458  0.00  0.00    +0.000 A 
ATOM     27  N   UNL     1      -5.849  12.631  23.120  0.00  0.00    +0.000 NA
ATOM     28  N   UNL     1      -5.791  13.683  23.982  0.00  0.00    +0.000 N 
ATOM     29  C   UNL     1      -4.603  14.380  23.825  0.00  0.00    +0.000 A 
ATOM     30  O   UNL     1      -4.234  15.337  24.484  0.00  0.00    +0.000 OA
ATOM     31  H   UNL     1      -6.504  13.866  24.680  0.00  0.00    +0.000 HD
ENDBRANCH   7  25
TORSDOF 3
ENDMDL
MODEL 8
REMARK VINA RESULT:      -8.9      1.274      1.783
REMARK  Name = 
REMARK  3 active torsions:
REMARK  status: ('A' for Active; 'I' for Inactive)
REMARK    1  A    between atoms: N_3  and  C_4
REMARK    2  A    between atoms: C_7  and  C_8
REMARK    3  A    between atoms: C_21  and  N_22
REMARK                            x       y       z     vdW  Elec       q    Type
REMARK                         _______ _______ _______ _____ _____    ______ ____
ROOT
ATOM      1  O   UNL     1       1.508   6.500  20.971  0.00  0.00    +0.000 OA
ATOM      2  C   UNL     1       2.028   7.143  20.064  0.00  0.00    +0.000 C 
ATOM      3  N   UNL     1       1.849   8.490  19.869  0.00  0.00    +0.000 N 
ATOM      4  N   UNL     1       2.871   6.527  19.135  0.00  0.00    +0.000 N 
ATOM      5  C   UNL     1       3.709   7.235  18.165  0.00  0.00    +0.000 C 
ATOM      6  C   UNL     1       3.905   6.430  16.893  0.00  0.00    +0.000 C 
ATOM      7  C   UNL     1       4.328   4.985  17.144  0.00  0.00    +0.000 C 
ATOM      8  C   UNL     1       3.439   4.314  18.191  0.00  0.00    +0.000 C 
ATOM      9  C   UNL     1       3.265   5.153  19.445  0.00  0.00    +0.000 C 
ATOM     10  H   UNL     1       2.087   8.858  18.969  0.00  0.00    +0.000 HD
ENDROOT
BRANCH   3  11
ATOM     11  C   UNL     1       1.111   9.374  20.668  0.00  0.00    +0.000 A 
ATOM     12  C   UNL     1       0.752   9.112  21.984  0.00  0.00    +0.000 A 
ATOM     13  C   UNL     1      -0.074  10.001  22.673  0.00  0.00    +0.000 A 
ATOM     14  C   UNL     1      -0.528  11.193  22.083  0.00  0.00    +0.000 A 
ATOM     15  C   UNL     1      -0.095  11.458  20.775  0.00  0.00    +0.000 A 
ATOM     16  F   UNL     1      -0.447  12.590  20.145  0.00  0.00    +0.000 F 
ATOM     17  C   UNL     1       0.710  10.568  20.072  0.00  0.00    +0.000 A 
BRANCH  14  18
ATOM     18  C   UNL     1      -1.418  12.108  22.824  0.00  0.00    +0.000 A 
ATOM     19  C   UNL     1      -2.696  11.707  23.259  0.00  0.00    +0.000 A 
ATOM     20  C   UNL     1      -3.536  12.578  23.959  0.00  0.00    +0.000 A 
ATOM     21  C   UNL     1      -3.105  13.866  24.256  0.00  0.00    +0.000 A 
ATOM     22  C   UNL     1      -1.843  14.271  23.847  0.00  0.00    +0.000 A 
ATOM     23  F   UNL     1      -1.415  15.506  24.140  0.00  0.00    +0.000 F 
ATOM     24  C   UNL     1      -1.010  13.416  23.136  0.00  0.00    +0.000 A 
ENDBRANCH  14  18
ENDBRANCH   3  11
BRANCH   7  25
ATOM     25  N   UNL     1       5.753   4.844  17.436  0.00  0.00    +0.000 N 
ATOM     26  C   UNL     1       6.442   4.992  18.583  0.00  0.00    +0.000 A 
ATOM     27  N   UNL     1       7.704   4.708  18.516  0.00  0.00    +0.000 NA
ATOM     28  N   UNL     1       7.876   4.328  17.220  0.00  0.00    +0.000 N 
ATOM     29  C   UNL     1       6.672   4.372  16.534  0.00  0.00    +0.000 A 
ATOM     30  O   UNL     1       6.490   4.042  15.374  0.00  0.00    +0.000 OA
ATOM     31  H   UNL     1       8.762   3.997  16.854  0.00  0.00    +0.000 HD
ENDBRANCH   7  25
TORSDOF 3
ENDMDL
MODEL 9
REMARK VINA RESULT:      -8.7      4.655     10.740
REMARK  Name = 
REMARK  3 active torsions:
REMARK  status: ('A' for Active; 'I' for Inactive)
REMARK    1  A    between atoms: N_3  and  C_4
REMARK    2  A    between atoms: C_7  and  C_8
REMARK    3  A    between atoms: C_21  and  N_22
REMARK                            x       y       z     vdW  Elec       q    Type
REMARK                         _______ _______ _______ _____ _____    ______ ____
ROOT
ATOM      1  O   UNL     1       1.846  12.353  20.610  0.00  0.00    +0.000 OA
ATOM      2  C   UNL     1       0.666  12.013  20.613  0.00  0.00    +0.000 C 
ATOM      3  N   UNL     1       0.203  10.820  20.117  0.00  0.00    +0.000 N 
ATOM      4  N   UNL     1      -0.322  12.847  21.142  0.00  0.00    +0.000 N 
ATOM      5  C   UNL     1      -1.708  12.448  21.396  0.00  0.00    +0.000 C 
ATOM      6  C   UNL     1      -2.669  13.613  21.245  0.00  0.00    +0.000 C 
ATOM      7  C   UNL     1      -2.233  14.866  22.002  0.00  0.00    +0.000 C 
ATOM      8  C   UNL     1      -0.770  15.208  21.724  0.00  0.00    +0.000 C 
ATOM      9  C   UNL     1       0.157  14.015  21.881  0.00  0.00    +0.000 C 
ATOM     10  H   UNL     1      -0.776  10.756  19.921  0.00  0.00    +0.000 HD
ENDROOT
BRANCH   3  11
ATOM     11  C   UNL     1       0.962   9.770  19.582  0.00  0.00    +0.000 A 
ATOM     12  C   UNL     1       1.442   9.748  18.279  0.00  0.00    +0.000 A 
ATOM     13  C   UNL     1       2.098   8.616  17.795  0.00  0.00    +0.000 A 
ATOM     14  C   UNL     1       2.331   7.494  18.610  0.00  0.00    +0.000 A 
ATOM     15  C   UNL     1       1.890   7.575  19.940  0.00  0.00    +0.000 A 
ATOM     16  F   UNL     1       2.102   6.567  20.802  0.00  0.00    +0.000 F 
ATOM     17  C   UNL     1       1.215   8.690  20.425  0.00  0.00    +0.000 A 
BRANCH  14  18
ATOM     18  C   UNL     1       3.009   6.300  18.071  0.00  0.00    +0.000 A 
ATOM     19  C   UNL     1       4.374   6.314  17.727  0.00  0.00    +0.000 A 
ATOM     20  C   UNL     1       5.011   5.180  17.214  0.00  0.00    +0.000 A 
ATOM     21  C   UNL     1       4.296   3.998  17.053  0.00  0.00    +0.000 A 
ATOM     22  C   UNL     1       2.954   3.964  17.402  0.00  0.00    +0.000 A 
ATOM     23  F   UNL     1       2.261   2.826  17.262  0.00  0.00    +0.000 F 
ATOM     24  C   UNL     1       2.311   5.092  17.896  0.00  0.00    +0.000 A 
ENDBRANCH  14  18
ENDBRANCH   3  11
BRANCH   7  25
ATOM     25  N   UNL     1      -2.542  14.814  23.429  0.00  0.00    +0.000 N 
ATOM     26  C   UNL     1      -1.750  14.924  24.512  0.00  0.00    +0.000 A 
ATOM     27  N   UNL     1      -2.361  14.915  25.654  0.00  0.00    +0.000 NA
ATOM     28  N   UNL     1      -3.674  14.800  25.311  0.00  0.00    +0.000 N 
ATOM     29  C   UNL     1      -3.817  14.767  23.932  0.00  0.00    +0.000 A 
ATOM     30  O   UNL     1      -4.869  14.721  23.316  0.00  0.00    +0.000 OA
ATOM     31  H   UNL     1      -4.426  14.810  25.990  0.00  0.00    +0.000 HD
ENDBRANCH   7  25
TORSDOF 3
ENDMDL
