MODEL 1
REMARK VINA RESULT:      -9.2      0.000      0.000
REMARK  Name = 
REMARK  7 active torsions:
REMARK  status: ('A' for Active; 'I' for Inactive)
REMARK    1  A    between atoms: C_2  and  C_3
REMARK    2  A    between atoms: C_3  and  N_4
REMARK    3  A    between atoms: N_4  and  C_5
REMARK    4  A    between atoms: C_10  and  C_11
REMARK    5  A    between atoms: N_13  and  C_14
REMARK    6  A    between atoms: C_14  and  C_15
REMARK    7  A    between atoms: N_20  and  C_21
REMARK                            x       y       z     vdW  Elec       q    Type
REMARK                         _______ _______ _______ _____ _____    ______ ____
ROOT
ATOM      1  N   UNL     1       3.014   6.434  19.692  0.00  0.00    +0.000 N 
ATOM      2  H   UNL     1       4.000   6.593  19.938  0.00  0.00    +0.000 HD
ENDROOT
BRANCH   1   3
ATOM      3  C   UNL     1       2.787   5.030  19.786  0.00  0.00    +0.000 A 
ATOM      4  C   UNL     1       1.541   4.477  20.116  0.00  0.00    +0.000 A 
ATOM      5  C   UNL     1       1.320   3.086  20.088  0.00  0.00    +0.000 A 
ATOM      6  C   UNL     1       2.325   2.230  19.668  0.00  0.00    +0.000 A 
ATOM      7  C   UNL     1       3.557   2.741  19.299  0.00  0.00    +0.000 A 
ATOM      8  C   UNL     1       3.809   4.124  19.366  0.00  0.00    +0.000 A 
BRANCH   8   9
ATOM      9  C   UNL     1       5.187   4.555  18.999  0.00  0.00    +0.000 C 
ATOM     10  O   UNL     1       5.843   5.269  19.749  0.00  0.00    +0.000 OA
ATOM     11  N   UNL     1       5.611   4.150  17.768  0.00  0.00    +0.000 N 
ATOM     12  H   UNL     1       5.015   3.531  17.230  0.00  0.00    +0.000 HD
BRANCH  11  13
ATOM     13  C   UNL     1       6.863   4.587  17.186  0.00  0.00    +0.000 C 
BRANCH  13  14
ATOM     14  C   UNL     1       6.765   4.458  15.713  0.00  0.00    +0.000 A 
ATOM     15  C   UNL     1       5.953   3.701  14.893  0.00  0.00    +0.000 A 
ATOM     16  C   UNL     1       6.326   4.015  13.566  0.00  0.00    +0.000 A 
ATOM     17  C   UNL     1       7.346   4.931  13.659  0.00  0.00    +0.000 A 
ATOM     18  O   UNL     1       7.627   5.200  14.961  0.00  0.00    +0.000 OA
ENDBRANCH  13  14
ENDBRANCH  11  13
ENDBRANCH   8   9
ENDBRANCH   1   3
BRANCH   1  19
ATOM     19  C   UNL     1       2.733   7.048  18.385  0.00  0.00    +0.000 C 
BRANCH  19  21
ATOM     20  O   UNL     1       2.289   9.203  17.524  0.00  0.00    +0.000 OA
ATOM     21  C   UNL     1       2.092   8.437  18.472  0.00  0.00    +0.000 C 
ATOM     22  N   UNL     1       1.279   8.708  19.573  0.00  0.00    +0.000 N 
ATOM     23  H   UNL     1       0.983   7.907  20.123  0.00  0.00    +0.000 HD
BRANCH  22  24
ATOM     24  C   UNL     1       0.570   9.940  19.744  0.00  0.00    +0.000 A 
ATOM     25  C   UNL     1       0.889  10.787  20.812  0.00  0.00    +0.000 A 
ATOM     26  C   UNL     1       0.326  12.052  20.934  0.00  0.00    +0.000 A 
ATOM     27  C   UNL     1      -0.489  12.532  19.924  0.00  0.00    +0.000 A 
ATOM     28  C   UNL     1      -0.862  11.704  18.865  0.00  0.00    +0.000 A 
ATOM     29  C   UNL     1      -1.691  12.235  17.871  0.00  0.00    +0.000 A 
ATOM     30  C   UNL     1      -2.452  11.392  17.078  0.00  0.00    +0.000 A 
ATOM     31  C   UNL     1      -2.218  10.027  17.128  0.00  0.00    +0.000 A 
ATOM     32  C   UNL     1      -1.163   9.526  17.912  0.00  0.00    +0.000 A 
ATOM     33  C   UNL     1      -0.463  10.345  18.833  0.00  0.00    +0.000 A 
ENDBRANCH  22  24
ENDBRANCH  19  21
ENDBRANCH   1  19
TORSDOF 7
ENDMDL
MODEL 2
REMARK VINA RESULT:      -8.9      1.374      2.202
REMARK  Name = 
REMARK  7 active torsions:
REMARK  status: ('A' for Active; 'I' for Inactive)
REMARK    1  A    between atoms: C_2  and  C_3
REMARK    2  A    between atoms: C_3  and  N_4
REMARK    3  A    between atoms: N_4  and  C_5
REMARK    4  A    between atoms: C_10  and  C_11
REMARK    5  A    between atoms: N_13  and  C_14
REMARK    6  A    between atoms: C_14  and  C_15
REMARK    7  A    between atoms: N_20  and  C_21
REMARK                            x       y       z     vdW  Elec       q    Type
REMARK                         _______ _______ _______ _____ _____    ______ ____
ROOT
ATOM      1  N   UNL     1       2.812   5.900  19.395  0.00  0.00    +0.000 N 
ATOM      2  H   UNL     1       3.755   5.974  19.801  0.00  0.00    +0.000 HD
ENDROOT
BRANCH   1   3
ATOM      3  C   UNL     1       2.506   4.510  19.314  0.00  0.00    +0.000 A 
ATOM      4  C   UNL     1       1.211   4.002  19.492  0.00  0.00    +0.000 A 
ATOM      5  C   UNL     1       0.920   2.638  19.292  0.00  0.00    +0.000 A 
ATOM      6  C   UNL     1       1.908   1.773  18.850  0.00  0.00    +0.000 A 
ATOM      7  C   UNL     1       3.190   2.245  18.629  0.00  0.00    +0.000 A 
ATOM      8  C   UNL     1       3.507   3.595  18.868  0.00  0.00    +0.000 A 
BRANCH   8   9
ATOM      9  C   UNL     1       4.930   3.979  18.650  0.00  0.00    +0.000 C 
ATOM     10  O   UNL     1       5.661   4.248  19.597  0.00  0.00    +0.000 OA
ATOM     11  N   UNL     1       5.314   4.063  17.344  0.00  0.00    +0.000 N 
ATOM     12  H   UNL     1       4.652   3.787  16.628  0.00  0.00    +0.000 HD
BRANCH  11  13
ATOM     13  C   UNL     1       6.613   4.554  16.937  0.00  0.00    +0.000 C 
BRANCH  13  14
ATOM     14  C   UNL     1       6.696   4.491  15.459  0.00  0.00    +0.000 A 
ATOM     15  C   UNL     1       5.956   3.815  14.509  0.00  0.00    +0.000 A 
ATOM     16  C   UNL     1       6.510   4.162  13.255  0.00  0.00    +0.000 A 
ATOM     17  C   UNL     1       7.555   5.015  13.518  0.00  0.00    +0.000 A 
ATOM     18  O   UNL     1       7.683   5.214  14.856  0.00  0.00    +0.000 OA
ENDBRANCH  13  14
ENDBRANCH  11  13
ENDBRANCH   8   9
ENDBRANCH   1   3
BRANCH   1  19
ATOM     19  C   UNL     1       2.768   6.646  18.129  0.00  0.00    +0.000 C 
BRANCH  19  21
ATOM     20  O   UNL     1       2.432   8.831  17.295  0.00  0.00    +0.000 OA
ATOM     21  C   UNL     1       2.279   8.091  18.272  0.00  0.00    +0.000 C 
ATOM     22  N   UNL     1       1.637   8.444  19.459  0.00  0.00    +0.000 N 
ATOM     23  H   UNL     1       1.334   7.679  20.053  0.00  0.00    +0.000 HD
BRANCH  22  24
ATOM     24  C   UNL     1       1.076   9.741  19.695  0.00  0.00    +0.000 A 
ATOM     25  C   UNL     1       1.210  10.746  18.730  0.00  0.00    +0.000 A 
ATOM     26  C   UNL     1       0.564  11.970  18.855  0.00  0.00    +0.000 A 
ATOM     27  C   UNL     1      -0.317  12.167  19.905  0.00  0.00    +0.000 A 
ATOM     28  C   UNL     1      -0.446  11.205  20.908  0.00  0.00    +0.000 A 
ATOM     29  C   UNL     1      -1.346  11.455  21.949  0.00  0.00    +0.000 A 
ATOM     30  C   UNL     1      -1.196  10.808  23.166  0.00  0.00    +0.000 A 
ATOM     31  C   UNL     1      -0.294   9.762  23.265  0.00  0.00    +0.000 A 
ATOM     32  C   UNL     1       0.390   9.315  22.119  0.00  0.00    +0.000 A 
ATOM     33  C   UNL     1       0.361  10.041  20.903  0.00  0.00    +0.000 A 
ENDBRANCH  22  24
ENDBRANCH  19  21
ENDBRANCH   1  19
TORSDOF 7
ENDMDL
MODEL 3
REMARK VINA RESULT:      -8.9      1.937      4.350
REMARK  Name = 
REMARK  7 active torsions:
REMARK  status: ('A' for Active; 'I' for Inactive)
REMARK    1  A    between atoms: C_2  and  C_3
REMARK    2  A    between atoms: C_3  and  N_4
REMARK    3  A    between atoms: N_4  and  C_5
REMARK    4  A    between atoms: C_10  and  C_11
REMARK    5  A    between atoms: N_13  and  C_14
REMARK    6  A    between atoms: C_14  and  C_15
REMARK    7  A    between atoms: N_20  and  C_21
REMARK                            x       y       z     vdW  Elec       q    Type
REMARK                         _______ _______ _______ _____ _____    ______ ____
ROOT
ATOM      1  N   UNL     1       3.853   6.652  18.200  0.00  0.00    +0.000 N 
ATOM      2  H   UNL     1       4.217   6.874  19.136  0.00  0.00    +0.000 HD
ENDROOT
BRANCH   1   3
ATOM      3  C   UNL     1       4.949   6.146  17.441  0.00  0.00    +0.000 A 
ATOM      4  C   UNL     1       6.088   6.907  17.144  0.00  0.00    +0.000 A 
ATOM      5  C   UNL     1       7.202   6.345  16.492  0.00  0.00    +0.000 A 
ATOM      6  C   UNL     1       7.219   4.993  16.183  0.00  0.00    +0.000 A 
ATOM      7  C   UNL     1       6.128   4.202  16.493  0.00  0.00    +0.000 A 
ATOM      8  C   UNL     1       4.988   4.759  17.103  0.00  0.00    +0.000 A 
BRANCH   8   9
ATOM      9  C   UNL     1       3.852   3.824  17.339  0.00  0.00    +0.000 C 
ATOM     10  O   UNL     1       2.704   4.147  17.057  0.00  0.00    +0.000 OA
ATOM     11  N   UNL     1       4.187   2.645  17.936  0.00  0.00    +0.000 N 
ATOM     12  H   UNL     1       5.167   2.448  18.101  0.00  0.00    +0.000 HD
BRANCH  11  13
ATOM     13  C   UNL     1       3.202   1.676  18.368  0.00  0.00    +0.000 C 
BRANCH  13  14
ATOM     14  C   UNL     1       2.501   2.218  19.556  0.00  0.00    +0.000 A 
ATOM     15  C   UNL     1       1.178   2.528  19.800  0.00  0.00    +0.000 A 
ATOM     16  C   UNL     1       1.121   3.001  21.131  0.00  0.00    +0.000 A 
ATOM     17  C   UNL     1       2.409   2.963  21.610  0.00  0.00    +0.000 A 
ATOM     18  O   UNL     1       3.258   2.496  20.656  0.00  0.00    +0.000 OA
ENDBRANCH  13  14
ENDBRANCH  11  13
ENDBRANCH   8   9
ENDBRANCH   1   3
BRANCH   1  19
ATOM     19  C   UNL     1       3.177   7.835  17.648  0.00  0.00    +0.000 C 
BRANCH  19  21
ATOM     20  O   UNL     1       1.862   7.809  19.611  0.00  0.00    +0.000 OA
ATOM     21  C   UNL     1       2.074   8.402  18.548  0.00  0.00    +0.000 C 
ATOM     22  N   UNL     1       1.444   9.578  18.141  0.00  0.00    +0.000 N 
ATOM     23  H   UNL     1       1.903  10.102  17.402  0.00  0.00    +0.000 HD
BRANCH  22  24
ATOM     24  C   UNL     1       0.445  10.247  18.919  0.00  0.00    +0.000 A 
ATOM     25  C   UNL     1       0.770  10.760  20.180  0.00  0.00    +0.000 A 
ATOM     26  C   UNL     1      -0.125  11.535  20.907  0.00  0.00    +0.000 A 
ATOM     27  C   UNL     1      -1.329  11.900  20.329  0.00  0.00    +0.000 A 
ATOM     28  C   UNL     1      -1.706  11.376  19.092  0.00  0.00    +0.000 A 
ATOM     29  C   UNL     1      -2.934  11.772  18.553  0.00  0.00    +0.000 A 
ATOM     30  C   UNL     1      -3.566  10.981  17.608  0.00  0.00    +0.000 A 
ATOM     31  C   UNL     1      -2.872   9.922  17.045  0.00  0.00    +0.000 A 
ATOM     32  C   UNL     1      -1.519   9.718  17.373  0.00  0.00    +0.000 A 
ATOM     33  C   UNL     1      -0.894  10.420  18.432  0.00  0.00    +0.000 A 
ENDBRANCH  22  24
ENDBRANCH  19  21
ENDBRANCH   1  19
TORSDOF 7
ENDMDL
MODEL 4
REMARK VINA RESULT:      -8.8      1.608      4.394
REMARK  Name = 
REMARK  7 active torsions:
REMARK  status: ('A' for Active; 'I' for Inactive)
REMARK    1  A    between atoms: C_2  and  C_3
REMARK    2  A    between atoms: C_3  and  N_4
REMARK    3  A    between atoms: N_4  and  C_5
REMARK    4  A    between atoms: C_10  and  C_11
REMARK    5  A    between atoms: N_13  and  C_14
REMARK    6  A    between atoms: C_14  and  C_15
REMARK    7  A    between atoms: N_20  and  C_21
REMARK                            x       y       z     vdW  Elec       q    Type
REMARK                         _______ _______ _______ _____ _____    ______ ____
ROOT
ATOM      1  N   UNL     1       4.120   6.782  17.859  0.00  0.00    +0.000 N 
ATOM      2  H   UNL     1       4.802   7.220  18.493  0.00  0.00    +0.000 HD
ENDROOT
BRANCH   1   3
ATOM      3  C   UNL     1       4.866   6.013  16.919  0.00  0.00    +0.000 A 
ATOM      4  C   UNL     1       5.093   6.430  15.600  0.00  0.00    +0.000 A 
ATOM      5  C   UNL     1       5.929   5.705  14.729  0.00  0.00    +0.000 A 
ATOM      6  C   UNL     1       6.604   4.583  15.186  0.00  0.00    +0.000 A 
ATOM      7  C   UNL     1       6.433   4.161  16.492  0.00  0.00    +0.000 A 
ATOM      8  C   UNL     1       5.565   4.848  17.361  0.00  0.00    +0.000 A 
BRANCH   8   9
ATOM      9  C   UNL     1       5.417   4.272  18.726  0.00  0.00    +0.000 C 
ATOM     10  O   UNL     1       6.031   4.742  19.677  0.00  0.00    +0.000 OA
ATOM     11  N   UNL     1       4.616   3.172  18.807  0.00  0.00    +0.000 N 
ATOM     12  H   UNL     1       4.119   2.873  17.975  0.00  0.00    +0.000 HD
BRANCH  11  13
ATOM     13  C   UNL     1       4.464   2.398  20.021  0.00  0.00    +0.000 C 
BRANCH  13  14
ATOM     14  C   UNL     1       3.082   2.582  20.524  0.00  0.00    +0.000 A 
ATOM     15  C   UNL     1       1.896   2.915  19.901  0.00  0.00    +0.000 A 
ATOM     16  C   UNL     1       0.908   2.929  20.911  0.00  0.00    +0.000 A 
ATOM     17  C   UNL     1       1.551   2.617  22.085  0.00  0.00    +0.000 A 
ATOM     18  O   UNL     1       2.876   2.413  21.862  0.00  0.00    +0.000 OA
ENDBRANCH  13  14
ENDBRANCH  11  13
ENDBRANCH   8   9
ENDBRANCH   1   3
BRANCH   1  19
ATOM     19  C   UNL     1       3.244   7.819  17.295  0.00  0.00    +0.000 C 
BRANCH  19  21
ATOM     20  O   UNL     1       2.062   7.733  19.339  0.00  0.00    +0.000 OA
ATOM     21  C   UNL     1       2.183   8.339  18.270  0.00  0.00    +0.000 C 
ATOM     22  N   UNL     1       1.484   9.494  17.914  0.00  0.00    +0.000 N 
ATOM     23  H   UNL     1       1.874  10.038  17.151  0.00  0.00    +0.000 HD
BRANCH  22  24
ATOM     24  C   UNL     1       0.514  10.120  18.761  0.00  0.00    +0.000 A 
ATOM     25  C   UNL     1       0.876  10.535  20.048  0.00  0.00    +0.000 A 
ATOM     26  C   UNL     1       0.010  11.270  20.848  0.00  0.00    +0.000 A 
ATOM     27  C   UNL     1      -1.199  11.695  20.327  0.00  0.00    +0.000 A 
ATOM     28  C   UNL     1      -1.612  11.268  19.064  0.00  0.00    +0.000 A 
ATOM     29  C   UNL     1      -2.845  11.722  18.584  0.00  0.00    +0.000 A 
ATOM     30  C   UNL     1      -3.511  11.011  17.599  0.00  0.00    +0.000 A 
ATOM     31  C   UNL     1      -2.848   9.984  16.945  0.00  0.00    +0.000 A 
ATOM     32  C   UNL     1      -1.492   9.735  17.227  0.00  0.00    +0.000 A 
ATOM     33  C   UNL     1      -0.832  10.350  18.319  0.00  0.00    +0.000 A 
ENDBRANCH  22  24
ENDBRANCH  19  21
ENDBRANCH   1  19
TORSDOF 7
ENDMDL
MODEL 5
REMARK VINA RESULT:      -8.8      1.181      1.293
REMARK  Name = 
REMARK  7 active torsions:
REMARK  status: ('A' for Active; 'I' for Inactive)
REMARK    1  A    between atoms: C_2  and  C_3
REMARK    2  A    between atoms: C_3  and  N_4
REMARK    3  A    between atoms: N_4  and  C_5
REMARK    4  A    between atoms: C_10  and  C_11
REMARK    5  A    between atoms: N_13  and  C_14
REMARK    6  A    between atoms: C_14  and  C_15
REMARK    7  A    between atoms: N_20  and  C_21
REMARK                            x       y       z     vdW  Elec       q    Type
REMARK                         _______ _______ _______ _____ _____    ______ ____
ROOT
ATOM      1  N   UNL     1       3.355   5.643  20.059  0.00  0.00    +0.000 N 
ATOM      2  H   UNL     1       4.379   5.578  20.140  0.00  0.00    +0.000 HD
ENDROOT
BRANCH   1   3
ATOM      3  C   UNL     1       2.903   4.392  19.547  0.00  0.00    +0.000 A 
ATOM      4  C   UNL     1       1.595   3.919  19.733  0.00  0.00    +0.000 A 
ATOM      5  C   UNL     1       1.145   2.734  19.119  0.00  0.00    +0.000 A 
ATOM      6  C   UNL     1       1.978   2.036  18.258  0.00  0.00    +0.000 A 
ATOM      7  C   UNL     1       3.263   2.492  18.022  0.00  0.00    +0.000 A 
ATOM      8  C   UNL     1       3.743   3.648  18.664  0.00  0.00    +0.000 A 
BRANCH   8   9
ATOM      9  C   UNL     1       5.159   4.013  18.378  0.00  0.00    +0.000 C 
ATOM     10  O   UNL     1       5.923   4.326  19.284  0.00  0.00    +0.000 OA
ATOM     11  N   UNL     1       5.497   4.030  17.057  0.00  0.00    +0.000 N 
ATOM     12  H   UNL     1       4.810   3.723  16.378  0.00  0.00    +0.000 HD
BRANCH  11  13
ATOM     13  C   UNL     1       6.784   4.493  16.582  0.00  0.00    +0.000 C 
BRANCH  13  14
ATOM     14  C   UNL     1       6.785   4.434  15.101  0.00  0.00    +0.000 A 
ATOM     15  C   UNL     1       7.474   5.143  14.137  0.00  0.00    +0.000 A 
ATOM     16  C   UNL     1       7.057   4.625  12.890  0.00  0.00    +0.000 A 
ATOM     17  C   UNL     1       6.134   3.645  13.168  0.00  0.00    +0.000 A 
ATOM     18  O   UNL     1       5.955   3.527  14.510  0.00  0.00    +0.000 OA
ENDBRANCH  13  14
ENDBRANCH  11  13
ENDBRANCH   8   9
ENDBRANCH   1   3
BRANCH   1  19
ATOM     19  C   UNL     1       3.005   6.830  19.264  0.00  0.00    +0.000 C 
BRANCH  19  21
ATOM     20  O   UNL     1       1.369   7.263  20.913  0.00  0.00    +0.000 OA
ATOM     21  C   UNL     1       1.890   7.685  19.877  0.00  0.00    +0.000 C 
ATOM     22  N   UNL     1       1.598   8.904  19.264  0.00  0.00    +0.000 N 
ATOM     23  H   UNL     1       2.282   9.251  18.599  0.00  0.00    +0.000 HD
BRANCH  22  24
ATOM     24  C   UNL     1       0.626   9.826  19.771  0.00  0.00    +0.000 A 
ATOM     25  C   UNL     1       0.736  10.306  21.081  0.00  0.00    +0.000 A 
ATOM     26  C   UNL     1      -0.100  11.305  21.566  0.00  0.00    +0.000 A 
ATOM     27  C   UNL     1      -0.995  11.917  20.705  0.00  0.00    +0.000 A 
ATOM     28  C   UNL     1      -1.161  11.440  19.404  0.00  0.00    +0.000 A 
ATOM     29  C   UNL     1      -2.081  12.091  18.575  0.00  0.00    +0.000 A 
ATOM     30  C   UNL     1      -2.625  11.428  17.487  0.00  0.00    +0.000 A 
ATOM     31  C   UNL     1      -2.088  10.209  17.104  0.00  0.00    +0.000 A 
ATOM     32  C   UNL     1      -0.952   9.706  17.765  0.00  0.00    +0.000 A 
ATOM     33  C   UNL     1      -0.464  10.289  18.960  0.00  0.00    +0.000 A 
ENDBRANCH  22  24
ENDBRANCH  19  21
ENDBRANCH   1  19
TORSDOF 7
ENDMDL
MODEL 6
REMARK VINA RESULT:      -8.8      1.762      2.238
REMARK  Name = 
REMARK  7 active torsions:
REMARK  status: ('A' for Active; 'I' for Inactive)
REMARK    1  A    between atoms: C_2  and  C_3
REMARK    2  A    between atoms: C_3  and  N_4
REMARK    3  A    between atoms: N_4  and  C_5
REMARK    4  A    between atoms: C_10  and  C_11
REMARK    5  A    between atoms: N_13  and  C_14
REMARK    6  A    between atoms: C_14  and  C_15
REMARK    7  A    between atoms: N_20  and  C_21
REMARK                            x       y       z     vdW  Elec       q    Type
REMARK                         _______ _______ _______ _____ _____    ______ ____
ROOT
ATOM      1  N   UNL     1       3.318   5.868  19.862  0.00  0.00    +0.000 N 
ATOM      2  H   UNL     1       4.332   5.759  19.722  0.00  0.00    +0.000 HD
ENDROOT
BRANCH   1   3
ATOM      3  C   UNL     1       2.720   4.615  19.539  0.00  0.00    +0.000 A 
ATOM      4  C   UNL     1       1.613   4.098  20.226  0.00  0.00    +0.000 A 
ATOM      5  C   UNL     1       0.974   2.913  19.810  0.00  0.00    +0.000 A 
ATOM      6  C   UNL     1       1.395   2.262  18.661  0.00  0.00    +0.000 A 
ATOM      7  C   UNL     1       2.461   2.763  17.936  0.00  0.00    +0.000 A 
ATOM      8  C   UNL     1       3.139   3.919  18.364  0.00  0.00    +0.000 A 
BRANCH   8   9
ATOM      9  C   UNL     1       4.306   4.335  17.537  0.00  0.00    +0.000 C 
ATOM     10  O   UNL     1       4.148   4.793  16.411  0.00  0.00    +0.000 OA
ATOM     11  N   UNL     1       5.526   4.108  18.102  0.00  0.00    +0.000 N 
ATOM     12  H   UNL     1       5.561   3.759  19.053  0.00  0.00    +0.000 HD
BRANCH  11  13
ATOM     13  C   UNL     1       6.771   4.319  17.394  0.00  0.00    +0.000 C 
BRANCH  13  14
ATOM     14  C   UNL     1       7.283   5.667  17.736  0.00  0.00    +0.000 A 
ATOM     15  C   UNL     1       7.924   6.169  18.851  0.00  0.00    +0.000 A 
ATOM     16  C   UNL     1       8.173   7.534  18.584  0.00  0.00    +0.000 A 
ATOM     17  C   UNL     1       7.660   7.783  17.334  0.00  0.00    +0.000 A 
ATOM     18  O   UNL     1       7.108   6.656  16.813  0.00  0.00    +0.000 OA
ENDBRANCH  13  14
ENDBRANCH  11  13
ENDBRANCH   8   9
ENDBRANCH   1   3
BRANCH   1  19
ATOM     19  C   UNL     1       2.843   7.029  19.094  0.00  0.00    +0.000 C 
BRANCH  19  21
ATOM     20  O   UNL     1       1.427   7.473  20.932  0.00  0.00    +0.000 OA
ATOM     21  C   UNL     1       1.785   7.867  19.818  0.00  0.00    +0.000 C 
ATOM     22  N   UNL     1       1.359   9.046  19.204  0.00  0.00    +0.000 N 
ATOM     23  H   UNL     1       1.931   9.387  18.438  0.00  0.00    +0.000 HD
BRANCH  22  24
ATOM     24  C   UNL     1       0.425   9.952  19.801  0.00  0.00    +0.000 A 
ATOM     25  C   UNL     1       0.663  10.452  21.087  0.00  0.00    +0.000 A 
ATOM     26  C   UNL     1      -0.141  11.438  21.648  0.00  0.00    +0.000 A 
ATOM     27  C   UNL     1      -1.136  12.017  20.881  0.00  0.00    +0.000 A 
ATOM     28  C   UNL     1      -1.429  11.519  19.611  0.00  0.00    +0.000 A 
ATOM     29  C   UNL     1      -2.448  12.138  18.878  0.00  0.00    +0.000 A 
ATOM     30  C   UNL     1      -3.089  11.448  17.861  0.00  0.00    +0.000 A 
ATOM     31  C   UNL     1      -2.566  10.237  17.436  0.00  0.00    +0.000 A 
ATOM     32  C   UNL     1      -1.355   9.769  17.977  0.00  0.00    +0.000 A 
ATOM     33  C   UNL     1      -0.756  10.379  19.107  0.00  0.00    +0.000 A 
ENDBRANCH  22  24
ENDBRANCH  19  21
ENDBRANCH   1  19
TORSDOF 7
ENDMDL
MODEL 7
REMARK VINA RESULT:      -8.7      5.759      8.480
REMARK  Name = 
REMARK  7 active torsions:
REMARK  status: ('A' for Active; 'I' for Inactive)
REMARK    1  A    between atoms: C_2  and  C_3
REMARK    2  A    between atoms: C_3  and  N_4
REMARK    3  A    between atoms: N_4  and  C_5
REMARK    4  A    between atoms: C_10  and  C_11
REMARK    5  A    between atoms: N_13  and  C_14
REMARK    6  A    between atoms: C_14  and  C_15
REMARK    7  A    between atoms: N_20  and  C_21
REMARK                            x       y       z     vdW  Elec       q    Type
REMARK                         _______ _______ _______ _____ _____    ______ ____
ROOT
ATOM      1  N   UNL     1       6.679   7.439  17.674  0.00  0.00    +0.000 N 
ATOM      2  H   UNL     1       6.332   7.157  18.601  0.00  0.00    +0.000 HD
ENDROOT
BRANCH   1   3
ATOM      3  C   UNL     1       6.366   6.377  16.776  0.00  0.00    +0.000 A 
ATOM      4  C   UNL     1       7.316   5.791  15.926  0.00  0.00    +0.000 A 
ATOM      5  C   UNL     1       7.004   4.669  15.134  0.00  0.00    +0.000 A 
ATOM      6  C   UNL     1       5.755   4.075  15.229  0.00  0.00    +0.000 A 
ATOM      7  C   UNL     1       4.804   4.603  16.083  0.00  0.00    +0.000 A 
ATOM      8  C   UNL     1       5.084   5.752  16.846  0.00  0.00    +0.000 A 
BRANCH   8   9
ATOM      9  C   UNL     1       3.967   6.264  17.689  0.00  0.00    +0.000 C 
ATOM     10  O   UNL     1       3.561   7.414  17.563  0.00  0.00    +0.000 OA
ATOM     11  N   UNL     1       3.498   5.389  18.623  0.00  0.00    +0.000 N 
ATOM     12  H   UNL     1       3.870   4.446  18.631  0.00  0.00    +0.000 HD
BRANCH  11  13
ATOM     13  C   UNL     1       2.514   5.756  19.619  0.00  0.00    +0.000 C 
BRANCH  13  14
ATOM     14  C   UNL     1       2.018   4.519  20.266  0.00  0.00    +0.000 A 
ATOM     15  C   UNL     1       2.195   3.987  21.527  0.00  0.00    +0.000 A 
ATOM     16  C   UNL     1       1.460   2.780  21.556  0.00  0.00    +0.000 A 
ATOM     17  C   UNL     1       0.892   2.644  20.312  0.00  0.00    +0.000 A 
ATOM     18  O   UNL     1       1.233   3.692  19.516  0.00  0.00    +0.000 OA
ENDBRANCH  13  14
ENDBRANCH  11  13
ENDBRANCH   8   9
ENDBRANCH   1   3
BRANCH   1  19
ATOM     19  C   UNL     1       8.100   7.801  17.776  0.00  0.00    +0.000 C 
BRANCH  19  21
ATOM     20  O   UNL     1       7.643  10.119  17.719  0.00  0.00    +0.000 OA
ATOM     21  C   UNL     1       8.347   9.243  18.232  0.00  0.00    +0.000 C 
ATOM     22  N   UNL     1       9.290   9.453  19.239  0.00  0.00    +0.000 N 
ATOM     23  H   UNL     1       9.584   8.632  19.759  0.00  0.00    +0.000 HD
BRANCH  22  24
ATOM     24  C   UNL     1       9.569  10.740  19.801  0.00  0.00    +0.000 A 
ATOM     25  C   UNL     1       8.965  11.121  21.005  0.00  0.00    +0.000 A 
ATOM     26  C   UNL     1       9.314  12.299  21.656  0.00  0.00    +0.000 A 
ATOM     27  C   UNL     1      10.356  13.064  21.161  0.00  0.00    +0.000 A 
ATOM     28  C   UNL     1      10.954  12.738  19.943  0.00  0.00    +0.000 A 
ATOM     29  C   UNL     1      12.000  13.545  19.485  0.00  0.00    +0.000 A 
ATOM     30  C   UNL     1      12.316  13.573  18.136  0.00  0.00    +0.000 A 
ATOM     31  C   UNL     1      11.741  12.638  17.291  0.00  0.00    +0.000 A 
ATOM     32  C   UNL     1      10.918  11.627  17.821  0.00  0.00    +0.000 A 
ATOM     33  C   UNL     1      10.470  11.657  19.165  0.00  0.00    +0.000 A 
ENDBRANCH  22  24
ENDBRANCH  19  21
ENDBRANCH   1  19
TORSDOF 7
ENDMDL
MODEL 8
REMARK VINA RESULT:      -8.7      2.317      4.175
REMARK  Name = 
REMARK  7 active torsions:
REMARK  status: ('A' for Active; 'I' for Inactive)
REMARK    1  A    between atoms: C_2  and  C_3
REMARK    2  A    between atoms: C_3  and  N_4
REMARK    3  A    between atoms: N_4  and  C_5
REMARK    4  A    between atoms: C_10  and  C_11
REMARK    5  A    between atoms: N_13  and  C_14
REMARK    6  A    between atoms: C_14  and  C_15
REMARK    7  A    between atoms: N_20  and  C_21
REMARK                            x       y       z     vdW  Elec       q    Type
REMARK                         _______ _______ _______ _____ _____    ______ ____
ROOT
ATOM      1  N   UNL     1       3.847   6.599  17.375  0.00  0.00    +0.000 N 
ATOM      2  H   UNL     1       3.329   6.175  18.156  0.00  0.00    +0.000 HD
ENDROOT
BRANCH   1   3
ATOM      3  C   UNL     1       5.233   6.492  17.693  0.00  0.00    +0.000 A 
ATOM      4  C   UNL     1       6.210   7.337  17.147  0.00  0.00    +0.000 A 
ATOM      5  C   UNL     1       7.553   7.280  17.568  0.00  0.00    +0.000 A 
ATOM      6  C   UNL     1       7.927   6.420  18.588  0.00  0.00    +0.000 A 
ATOM      7  C   UNL     1       6.984   5.597  19.176  0.00  0.00    +0.000 A 
ATOM      8  C   UNL     1       5.648   5.608  18.736  0.00  0.00    +0.000 A 
BRANCH   8   9
ATOM      9  C   UNL     1       4.732   4.640  19.403  0.00  0.00    +0.000 C 
ATOM     10  O   UNL     1       3.803   5.032  20.099  0.00  0.00    +0.000 OA
ATOM     11  N   UNL     1       5.050   3.326  19.227  0.00  0.00    +0.000 N 
ATOM     12  H   UNL     1       5.816   3.094  18.605  0.00  0.00    +0.000 HD
BRANCH  11  13
ATOM     13  C   UNL     1       4.360   2.252  19.910  0.00  0.00    +0.000 C 
BRANCH  13  14
ATOM     14  C   UNL     1       2.925   2.313  19.548  0.00  0.00    +0.000 A 
ATOM     15  C   UNL     1       2.256   2.174  18.349  0.00  0.00    +0.000 A 
ATOM     16  C   UNL     1       0.881   2.326  18.641  0.00  0.00    +0.000 A 
ATOM     17  C   UNL     1       0.798   2.560  19.993  0.00  0.00    +0.000 A 
ATOM     18  O   UNL     1       2.036   2.564  20.552  0.00  0.00    +0.000 OA
ENDBRANCH  13  14
ENDBRANCH  11  13
ENDBRANCH   8   9
ENDBRANCH   1   3
BRANCH   1  19
ATOM     19  C   UNL     1       3.343   7.961  17.139  0.00  0.00    +0.000 C 
BRANCH  19  21
ATOM     20  O   UNL     1       2.053   7.676  19.098  0.00  0.00    +0.000 OA
ATOM     21  C   UNL     1       2.247   8.399  18.116  0.00  0.00    +0.000 C 
ATOM     22  N   UNL     1       1.602   9.611  17.866  0.00  0.00    +0.000 N 
ATOM     23  H   UNL     1       2.047  10.228  17.194  0.00  0.00    +0.000 HD
BRANCH  22  24
ATOM     24  C   UNL     1       0.607  10.167  18.733  0.00  0.00    +0.000 A 
ATOM     25  C   UNL     1       0.954  10.562  20.031  0.00  0.00    +0.000 A 
ATOM     26  C   UNL     1       0.058  11.233  20.854  0.00  0.00    +0.000 A 
ATOM     27  C   UNL     1      -1.173  11.614  20.348  0.00  0.00    +0.000 A 
ATOM     28  C   UNL     1      -1.570  11.203  19.075  0.00  0.00    +0.000 A 
ATOM     29  C   UNL     1      -2.825  11.611  18.612  0.00  0.00    +0.000 A 
ATOM     30  C   UNL     1      -3.461  10.897  17.608  0.00  0.00    +0.000 A 
ATOM     31  C   UNL     1      -2.753   9.922  16.925  0.00  0.00    +0.000 A 
ATOM     32  C   UNL     1      -1.386   9.730  17.195  0.00  0.00    +0.000 A 
ATOM     33  C   UNL     1      -0.750  10.344  18.302  0.00  0.00    +0.000 A 
ENDBRANCH  22  24
ENDBRANCH  19  21
ENDBRANCH   1  19
TORSDOF 7
ENDMDL
MODEL 9
REMARK VINA RESULT:      -8.6      2.200      4.878
REMARK  Name = 
REMARK  7 active torsions:
REMARK  status: ('A' for Active; 'I' for Inactive)
REMARK    1  A    between atoms: C_2  and  C_3
REMARK    2  A    between atoms: C_3  and  N_4
REMARK    3  A    between atoms: N_4  and  C_5
REMARK    4  A    between atoms: C_10  and  C_11
REMARK    5  A    between atoms: N_13  and  C_14
REMARK    6  A    between atoms: C_14  and  C_15
REMARK    7  A    between atoms: N_20  and  C_21
REMARK                            x       y       z     vdW  Elec       q    Type
REMARK                         _______ _______ _______ _____ _____    ______ ____
ROOT
ATOM      1  N   UNL     1       4.281   6.513  16.892  0.00  0.00    +0.000 N 
ATOM      2  H   UNL     1       4.153   5.685  16.294  0.00  0.00    +0.000 HD
ENDROOT
BRANCH   1   3
ATOM      3  C   UNL     1       5.612   6.453  17.399  0.00  0.00    +0.000 A 
ATOM      4  C   UNL     1       6.458   7.570  17.459  0.00  0.00    +0.000 A 
ATOM      5  C   UNL     1       7.725   7.504  18.070  0.00  0.00    +0.000 A 
ATOM      6  C   UNL     1       8.140   6.335  18.687  0.00  0.00    +0.000 A 
ATOM      7  C   UNL     1       7.319   5.222  18.680  0.00  0.00    +0.000 A 
ATOM      8  C   UNL     1       6.069   5.258  18.034  0.00  0.00    +0.000 A 
BRANCH   8   9
ATOM      9  C   UNL     1       5.294   3.986  18.042  0.00  0.00    +0.000 C 
ATOM     10  O   UNL     1       4.729   3.588  17.029  0.00  0.00    +0.000 OA
ATOM     11  N   UNL     1       5.219   3.361  19.251  0.00  0.00    +0.000 N 
ATOM     12  H   UNL     1       5.748   3.744  20.027  0.00  0.00    +0.000 HD
BRANCH  11  13
ATOM     13  C   UNL     1       4.397   2.192  19.482  0.00  0.00    +0.000 C 
BRANCH  13  14
ATOM     14  C   UNL     1       3.107   2.633  20.061  0.00  0.00    +0.000 A 
ATOM     15  C   UNL     1       1.916   3.038  19.491  0.00  0.00    +0.000 A 
ATOM     16  C   UNL     1       1.042   3.328  20.564  0.00  0.00    +0.000 A 
ATOM     17  C   UNL     1       1.753   3.094  21.716  0.00  0.00    +0.000 A 
ATOM     18  O   UNL     1       3.014   2.680  21.421  0.00  0.00    +0.000 OA
ENDBRANCH  13  14
ENDBRANCH  11  13
ENDBRANCH   8   9
ENDBRANCH   1   3
BRANCH   1  19
ATOM     19  C   UNL     1       3.209   6.557  17.897  0.00  0.00    +0.000 C 
BRANCH  19  21
ATOM     20  O   UNL     1       3.008   8.852  17.371  0.00  0.00    +0.000 OA
ATOM     21  C   UNL     1       2.632   7.957  18.134  0.00  0.00    +0.000 C 
ATOM     22  N   UNL     1       1.676   8.103  19.140  0.00  0.00    +0.000 N 
ATOM     23  H   UNL     1       1.261   7.247  19.495  0.00  0.00    +0.000 HD
BRANCH  22  24
ATOM     24  C   UNL     1       1.012   9.340  19.422  0.00  0.00    +0.000 A 
ATOM     25  C   UNL     1       0.858  10.295  18.410  0.00  0.00    +0.000 A 
ATOM     26  C   UNL     1       0.100  11.445  18.600  0.00  0.00    +0.000 A 
ATOM     27  C   UNL     1      -0.607  11.603  19.780  0.00  0.00    +0.000 A 
ATOM     28  C   UNL     1      -0.447  10.693  20.826  0.00  0.00    +0.000 A 
ATOM     29  C   UNL     1      -1.181  10.901  21.998  0.00  0.00    +0.000 A 
ATOM     30  C   UNL     1      -0.751  10.347  23.194  0.00  0.00    +0.000 A 
ATOM     31  C   UNL     1       0.275   9.415  23.173  0.00  0.00    +0.000 A 
ATOM     32  C   UNL     1       0.803   8.983  21.943  0.00  0.00    +0.000 A 
ATOM     33  C   UNL     1       0.481   9.628  20.724  0.00  0.00    +0.000 A 
ENDBRANCH  22  24
ENDBRANCH  19  21
ENDBRANCH   1  19
TORSDOF 7
ENDMDL
