MODEL 1
REMARK VINA RESULT:      -8.7      0.000      0.000
REMARK  Name = 
REMARK  6 active torsions:
REMARK  status: ('A' for Active; 'I' for Inactive)
REMARK    1  A    between atoms: C_1  and  C_2
REMARK    2  A    between atoms: C_5  and  C_6
REMARK    3  A    between atoms: C_6  and  O_8
REMARK    4  A    between atoms: O_8  and  C_9
REMARK    5  A    between atoms: C_9  and  C_10
REMARK    6  A    between atoms: N_14  and  C_15
REMARK                            x       y       z     vdW  Elec       q    Type
REMARK                         _______ _______ _______ _____ _____    ______ ____
ROOT
ATOM      1  C   UNL     1       2.391   7.473  18.987  0.00  0.00    +0.000 A 
ATOM      2  N   UNL     1       1.750   7.337  20.137  0.00  0.00    +0.000 NA
ATOM      3  N   UNL     1       1.883   6.054  20.570  0.00  0.00    +0.000 NA
ATOM      4  C   UNL     1       2.607   5.405  19.691  0.00  0.00    +0.000 A 
ATOM      5  N   UNL     1       2.953   4.068  19.740  0.00  0.00    +0.000 N 
ATOM      6  C   UNL     1       2.557   3.199  20.832  0.00  0.00    +0.000 C 
ATOM      7  C   UNL     1       3.703   3.520  18.709  0.00  0.00    +0.000 A 
ATOM      8  O   UNL     1       4.013   2.331  18.666  0.00  0.00    +0.000 OA
ATOM      9  C   UNL     1       4.174   4.435  17.634  0.00  0.00    +0.000 A 
ATOM     10  C   UNL     1       4.960   3.887  16.608  0.00  0.00    +0.000 A 
ATOM     11  C   UNL     1       5.487   4.708  15.618  0.00  0.00    +0.000 A 
ATOM     12  C   UNL     1       5.254   6.078  15.670  0.00  0.00    +0.000 A 
ATOM     13  C   UNL     1       4.462   6.633  16.685  0.00  0.00    +0.000 A 
ATOM     14  C   UNL     1       3.880   5.813  17.653  0.00  0.00    +0.000 A 
ATOM     15  N   UNL     1       3.016   6.265  18.681  0.00  0.00    +0.000 N 
ENDROOT
BRANCH   1  16
ATOM     16  C   UNL     1       2.386   8.760  18.239  0.00  0.00    +0.000 C 
BRANCH  16  17
ATOM     17  O   UNL     1       1.026   9.106  17.891  0.00  0.00    +0.000 OA
BRANCH  17  18
ATOM     18  C   UNL     1       0.544  10.206  18.516  0.00  0.00    +0.000 C 
ATOM     19  O   UNL     1       1.180  10.894  19.302  0.00  0.00    +0.000 OA
BRANCH  18  24
ATOM     20  C   UNL     1      -5.065  11.296  17.428  0.00  0.00    +0.000 C 
ATOM     21  C   UNL     1      -3.614  11.008  17.693  0.00  0.00    +0.000 A 
ATOM     22  C   UNL     1      -2.920  11.706  18.685  0.00  0.00    +0.000 A 
ATOM     23  C   UNL     1      -1.568  11.437  18.926  0.00  0.00    +0.000 A 
ATOM     24  C   UNL     1      -0.884  10.469  18.175  0.00  0.00    +0.000 A 
ATOM     25  C   UNL     1      -1.575   9.777  17.172  0.00  0.00    +0.000 A 
ATOM     26  C   UNL     1      -2.931  10.048  16.933  0.00  0.00    +0.000 A 
ENDBRANCH  18  24
ENDBRANCH  17  18
ENDBRANCH  16  17
ENDBRANCH   1  16
TORSDOF 4
ENDMDL
MODEL 2
REMARK VINA RESULT:      -8.3      2.810      7.988
REMARK  Name = 
REMARK  6 active torsions:
REMARK  status: ('A' for Active; 'I' for Inactive)
REMARK    1  A    between atoms: C_1  and  C_2
REMARK    2  A    between atoms: C_5  and  C_6
REMARK    3  A    between atoms: C_6  and  O_8
REMARK    4  A    between atoms: O_8  and  C_9
REMARK    5  A    between atoms: C_9  and  C_10
REMARK    6  A    between atoms: N_14  and  C_15
REMARK                            x       y       z     vdW  Elec       q    Type
REMARK                         _______ _______ _______ _____ _____    ______ ____
ROOT
ATOM      1  C   UNL     1       0.482  10.045  19.020  0.00  0.00    +0.000 A 
ATOM      2  N   UNL     1       1.002  10.298  20.211  0.00  0.00    +0.000 NA
ATOM      3  N   UNL     1       0.125  11.055  20.925  0.00  0.00    +0.000 NA
ATOM      4  C   UNL     1      -0.930  11.263  20.177  0.00  0.00    +0.000 A 
ATOM      5  N   UNL     1      -2.043  12.010  20.517  0.00  0.00    +0.000 N 
ATOM      6  C   UNL     1      -2.184  12.656  21.809  0.00  0.00    +0.000 C 
ATOM      7  C   UNL     1      -3.070  12.161  19.597  0.00  0.00    +0.000 A 
ATOM      8  O   UNL     1      -4.069  12.843  19.815  0.00  0.00    +0.000 OA
ATOM      9  C   UNL     1      -2.955  11.430  18.306  0.00  0.00    +0.000 A 
ATOM     10  C   UNL     1      -4.009  11.557  17.386  0.00  0.00    +0.000 A 
ATOM     11  C   UNL     1      -3.988  10.840  16.197  0.00  0.00    +0.000 A 
ATOM     12  C   UNL     1      -2.931   9.973  15.939  0.00  0.00    +0.000 A 
ATOM     13  C   UNL     1      -1.868   9.848  16.846  0.00  0.00    +0.000 A 
ATOM     14  C   UNL     1      -1.850  10.605  18.018  0.00  0.00    +0.000 A 
ATOM     15  N   UNL     1      -0.797  10.598  18.967  0.00  0.00    +0.000 N 
ENDROOT
BRANCH   1  16
ATOM     16  C   UNL     1       1.230   9.273  17.991  0.00  0.00    +0.000 C 
BRANCH  16  17
ATOM     17  O   UNL     1       2.431   8.725  18.583  0.00  0.00    +0.000 OA
BRANCH  17  18
ATOM     18  C   UNL     1       2.895   7.602  17.986  0.00  0.00    +0.000 C 
ATOM     19  O   UNL     1       3.603   7.586  16.990  0.00  0.00    +0.000 OA
BRANCH  18  24
ATOM     20  C   UNL     1       1.103   2.842  20.809  0.00  0.00    +0.000 C 
ATOM     21  C   UNL     1       1.559   4.066  20.065  0.00  0.00    +0.000 A 
ATOM     22  C   UNL     1       1.806   5.261  20.745  0.00  0.00    +0.000 A 
ATOM     23  C   UNL     1       2.228   6.399  20.048  0.00  0.00    +0.000 A 
ATOM     24  C   UNL     1       2.403   6.363  18.657  0.00  0.00    +0.000 A 
ATOM     25  C   UNL     1       2.144   5.170  17.971  0.00  0.00    +0.000 A 
ATOM     26  C   UNL     1       1.722   4.030  18.673  0.00  0.00    +0.000 A 
ENDBRANCH  18  24
ENDBRANCH  17  18
ENDBRANCH  16  17
ENDBRANCH   1  16
TORSDOF 4
ENDMDL
MODEL 3
REMARK VINA RESULT:      -8.1      0.879      1.322
REMARK  Name = 
REMARK  6 active torsions:
REMARK  status: ('A' for Active; 'I' for Inactive)
REMARK    1  A    between atoms: C_1  and  C_2
REMARK    2  A    between atoms: C_5  and  C_6
REMARK    3  A    between atoms: C_6  and  O_8
REMARK    4  A    between atoms: O_8  and  C_9
REMARK    5  A    between atoms: C_9  and  C_10
REMARK    6  A    between atoms: N_14  and  C_15
REMARK                            x       y       z     vdW  Elec       q    Type
REMARK                         _______ _______ _______ _____ _____    ______ ____
ROOT
ATOM      1  C   UNL     1       2.200   6.855  19.710  0.00  0.00    +0.000 A 
ATOM      2  N   UNL     1       1.466   6.386  20.707  0.00  0.00    +0.000 NA
ATOM      3  N   UNL     1       1.479   5.025  20.664  0.00  0.00    +0.000 NA
ATOM      4  C   UNL     1       2.220   4.661  19.646  0.00  0.00    +0.000 A 
ATOM      5  N   UNL     1       2.469   3.365  19.235  0.00  0.00    +0.000 N 
ATOM      6  C   UNL     1       1.933   2.210  19.931  0.00  0.00    +0.000 C 
ATOM      7  C   UNL     1       3.255   3.145  18.114  0.00  0.00    +0.000 A 
ATOM      8  O   UNL     1       3.485   2.023  17.667  0.00  0.00    +0.000 OA
ATOM      9  C   UNL     1       3.866   4.331  17.454  0.00  0.00    +0.000 A 
ATOM     10  C   UNL     1       4.688   4.106  16.337  0.00  0.00    +0.000 A 
ATOM     11  C   UNL     1       5.343   5.169  15.727  0.00  0.00    +0.000 A 
ATOM     12  C   UNL     1       5.201   6.451  16.250  0.00  0.00    +0.000 A 
ATOM     13  C   UNL     1       4.375   6.687  17.358  0.00  0.00    +0.000 A 
ATOM     14  C   UNL     1       3.667   5.636  17.945  0.00  0.00    +0.000 A 
ATOM     15  N   UNL     1       2.761   5.778  19.026  0.00  0.00    +0.000 N 
ENDROOT
BRANCH   1  16
ATOM     16  C   UNL     1       2.339   8.317  19.466  0.00  0.00    +0.000 C 
BRANCH  16  17
ATOM     17  O   UNL     1       1.026   8.920  19.411  0.00  0.00    +0.000 OA
BRANCH  17  18
ATOM     18  C   UNL     1       0.803   9.692  18.322  0.00  0.00    +0.000 C 
ATOM     19  O   UNL     1       1.643   9.956  17.473  0.00  0.00    +0.000 OA
BRANCH  18  24
ATOM     20  C   UNL     1      -4.617  11.769  17.946  0.00  0.00    +0.000 C 
ATOM     21  C   UNL     1      -3.216  11.237  18.060  0.00  0.00    +0.000 A 
ATOM     22  C   UNL     1      -2.756  10.250  17.184  0.00  0.00    +0.000 A 
ATOM     23  C   UNL     1      -1.453   9.755  17.296  0.00  0.00    +0.000 A 
ATOM     24  C   UNL     1      -0.586  10.235  18.289  0.00  0.00    +0.000 A 
ATOM     25  C   UNL     1      -1.048  11.216  19.176  0.00  0.00    +0.000 A 
ATOM     26  C   UNL     1      -2.357  11.711  19.061  0.00  0.00    +0.000 A 
ENDBRANCH  18  24
ENDBRANCH  17  18
ENDBRANCH  16  17
ENDBRANCH   1  16
TORSDOF 4
ENDMDL
MODEL 4
REMARK VINA RESULT:      -8.1      1.210      3.146
REMARK  Name = 
REMARK  6 active torsions:
REMARK  status: ('A' for Active; 'I' for Inactive)
REMARK    1  A    between atoms: C_1  and  C_2
REMARK    2  A    between atoms: C_5  and  C_6
REMARK    3  A    between atoms: C_6  and  O_8
REMARK    4  A    between atoms: O_8  and  C_9
REMARK    5  A    between atoms: C_9  and  C_10
REMARK    6  A    between atoms: N_14  and  C_15
REMARK                            x       y       z     vdW  Elec       q    Type
REMARK                         _______ _______ _______ _____ _____    ______ ____
ROOT
ATOM      1  C   UNL     1       2.796   7.274  18.503  0.00  0.00    +0.000 A 
ATOM      2  N   UNL     1       3.521   7.818  17.538  0.00  0.00    +0.000 NA
ATOM      3  N   UNL     1       4.188   6.834  16.875  0.00  0.00    +0.000 NA
ATOM      4  C   UNL     1       3.871   5.690  17.429  0.00  0.00    +0.000 A 
ATOM      5  N   UNL     1       4.354   4.444  17.071  0.00  0.00    +0.000 N 
ATOM      6  C   UNL     1       5.289   4.255  15.978  0.00  0.00    +0.000 C 
ATOM      7  C   UNL     1       3.943   3.325  17.780  0.00  0.00    +0.000 A 
ATOM      8  O   UNL     1       4.361   2.194  17.545  0.00  0.00    +0.000 OA
ATOM      9  C   UNL     1       2.923   3.518  18.847  0.00  0.00    +0.000 A 
ATOM     10  C   UNL     1       2.483   2.380  19.543  0.00  0.00    +0.000 A 
ATOM     11  C   UNL     1       1.480   2.492  20.499  0.00  0.00    +0.000 A 
ATOM     12  C   UNL     1       0.897   3.732  20.737  0.00  0.00    +0.000 A 
ATOM     13  C   UNL     1       1.337   4.876  20.055  0.00  0.00    +0.000 A 
ATOM     14  C   UNL     1       2.382   4.787  19.133  0.00  0.00    +0.000 A 
ATOM     15  N   UNL     1       2.941   5.889  18.438  0.00  0.00    +0.000 N 
ENDROOT
BRANCH   1  16
ATOM     16  C   UNL     1       1.989   8.106  19.435  0.00  0.00    +0.000 C 
BRANCH  16  17
ATOM     17  O   UNL     1       1.271   9.110  18.681  0.00  0.00    +0.000 OA
BRANCH  17  18
ATOM     18  C   UNL     1       0.581   9.998  19.435  0.00  0.00    +0.000 C 
ATOM     19  O   UNL     1       0.946  10.416  20.525  0.00  0.00    +0.000 OA
BRANCH  18  24
ATOM     20  C   UNL     1      -4.374  11.452  16.758  0.00  0.00    +0.000 C 
ATOM     21  C   UNL     1      -3.101  11.082  17.465  0.00  0.00    +0.000 A 
ATOM     22  C   UNL     1      -2.250  10.107  16.936  0.00  0.00    +0.000 A 
ATOM     23  C   UNL     1      -1.067   9.763  17.599  0.00  0.00    +0.000 A 
ATOM     24  C   UNL     1      -0.715  10.385  18.806  0.00  0.00    +0.000 A 
ATOM     25  C   UNL     1      -1.572  11.353  19.345  0.00  0.00    +0.000 A 
ATOM     26  C   UNL     1      -2.758  11.696  18.678  0.00  0.00    +0.000 A 
ENDBRANCH  18  24
ENDBRANCH  17  18
ENDBRANCH  16  17
ENDBRANCH   1  16
TORSDOF 4
ENDMDL
MODEL 5
REMARK VINA RESULT:      -8.1      2.033      2.665
REMARK  Name = 
REMARK  6 active torsions:
REMARK  status: ('A' for Active; 'I' for Inactive)
REMARK    1  A    between atoms: C_1  and  C_2
REMARK    2  A    between atoms: C_5  and  C_6
REMARK    3  A    between atoms: C_6  and  O_8
REMARK    4  A    between atoms: O_8  and  C_9
REMARK    5  A    between atoms: C_9  and  C_10
REMARK    6  A    between atoms: N_14  and  C_15
REMARK                            x       y       z     vdW  Elec       q    Type
REMARK                         _______ _______ _______ _____ _____    ______ ____
ROOT
ATOM      1  C   UNL     1       2.148   6.538  19.772  0.00  0.00    +0.000 A 
ATOM      2  N   UNL     1       1.463   5.987  20.762  0.00  0.00    +0.000 NA
ATOM      3  N   UNL     1       1.565   4.633  20.673  0.00  0.00    +0.000 NA
ATOM      4  C   UNL     1       2.312   4.353  19.634  0.00  0.00    +0.000 A 
ATOM      5  N   UNL     1       2.641   3.090  19.176  0.00  0.00    +0.000 N 
ATOM      6  C   UNL     1       2.194   1.880  19.839  0.00  0.00    +0.000 C 
ATOM      7  C   UNL     1       3.422   2.961  18.037  0.00  0.00    +0.000 A 
ATOM      8  O   UNL     1       3.719   1.872  17.550  0.00  0.00    +0.000 OA
ATOM      9  C   UNL     1       3.943   4.206  17.409  0.00  0.00    +0.000 A 
ATOM     10  C   UNL     1       4.761   4.074  16.275  0.00  0.00    +0.000 A 
ATOM     11  C   UNL     1       5.333   5.198  15.693  0.00  0.00    +0.000 A 
ATOM     12  C   UNL     1       5.115   6.449  16.260  0.00  0.00    +0.000 A 
ATOM     13  C   UNL     1       4.292   6.592  17.387  0.00  0.00    +0.000 A 
ATOM     14  C   UNL     1       3.665   5.478  17.947  0.00  0.00    +0.000 A 
ATOM     15  N   UNL     1       2.769   5.524  19.045  0.00  0.00    +0.000 N 
ENDROOT
BRANCH   1  16
ATOM     16  C   UNL     1       2.186   8.012  19.576  0.00  0.00    +0.000 C 
BRANCH  16  17
ATOM     17  O   UNL     1       1.163   8.630  20.391  0.00  0.00    +0.000 OA
BRANCH  17  18
ATOM     18  C   UNL     1       0.610   9.744  19.857  0.00  0.00    +0.000 C 
ATOM     19  O   UNL     1       0.830  10.157  18.727  0.00  0.00    +0.000 OA
BRANCH  18  24
ATOM     20  C   UNL     1      -2.828  12.716  23.487  0.00  0.00    +0.000 C 
ATOM     21  C   UNL     1      -1.941  11.935  22.560  0.00  0.00    +0.000 A 
ATOM     22  C   UNL     1      -1.887  12.243  21.198  0.00  0.00    +0.000 A 
ATOM     23  C   UNL     1      -1.061  11.511  20.338  0.00  0.00    +0.000 A 
ATOM     24  C   UNL     1      -0.278  10.453  20.824  0.00  0.00    +0.000 A 
ATOM     25  C   UNL     1      -0.340  10.134  22.186  0.00  0.00    +0.000 A 
ATOM     26  C   UNL     1      -1.168  10.871  23.047  0.00  0.00    +0.000 A 
ENDBRANCH  18  24
ENDBRANCH  17  18
ENDBRANCH  16  17
ENDBRANCH   1  16
TORSDOF 4
ENDMDL
MODEL 6
REMARK VINA RESULT:      -8.0      1.823      2.468
REMARK  Name = 
REMARK  6 active torsions:
REMARK  status: ('A' for Active; 'I' for Inactive)
REMARK    1  A    between atoms: C_1  and  C_2
REMARK    2  A    between atoms: C_5  and  C_6
REMARK    3  A    between atoms: C_6  and  O_8
REMARK    4  A    between atoms: O_8  and  C_9
REMARK    5  A    between atoms: C_9  and  C_10
REMARK    6  A    between atoms: N_14  and  C_15
REMARK                            x       y       z     vdW  Elec       q    Type
REMARK                         _______ _______ _______ _____ _____    ______ ____
ROOT
ATOM      1  C   UNL     1       2.173   7.047  19.481  0.00  0.00    +0.000 A 
ATOM      2  N   UNL     1       1.526   6.636  20.560  0.00  0.00    +0.000 NA
ATOM      3  N   UNL     1       1.689   5.291  20.688  0.00  0.00    +0.000 NA
ATOM      4  C   UNL     1       2.435   4.879  19.694  0.00  0.00    +0.000 A 
ATOM      5  N   UNL     1       2.815   3.573  19.439  0.00  0.00    +0.000 N 
ATOM      6  C   UNL     1       2.432   2.468  20.298  0.00  0.00    +0.000 C 
ATOM      7  C   UNL     1       3.587   3.295  18.321  0.00  0.00    +0.000 A 
ATOM      8  O   UNL     1       3.927   2.155  18.010  0.00  0.00    +0.000 OA
ATOM      9  C   UNL     1       4.043   4.443  17.491  0.00  0.00    +0.000 A 
ATOM     10  C   UNL     1       4.852   4.164  16.377  0.00  0.00    +0.000 A 
ATOM     11  C   UNL     1       5.366   5.202  15.610  0.00  0.00    +0.000 A 
ATOM     12  C   UNL     1       5.098   6.518  15.973  0.00  0.00    +0.000 A 
ATOM     13  C   UNL     1       4.283   6.807  17.077  0.00  0.00    +0.000 A 
ATOM     14  C   UNL     1       3.715   5.772  17.822  0.00  0.00    +0.000 A 
ATOM     15  N   UNL     1       2.831   5.956  18.915  0.00  0.00    +0.000 N 
ENDROOT
BRANCH   1  16
ATOM     16  C   UNL     1       2.142   8.471  19.049  0.00  0.00    +0.000 C 
BRANCH  16  17
ATOM     17  O   UNL     1       1.348   9.238  19.984  0.00  0.00    +0.000 OA
BRANCH  17  18
ATOM     18  C   UNL     1       0.347   9.955  19.422  0.00  0.00    +0.000 C 
ATOM     19  O   UNL     1       0.130  10.022  18.221  0.00  0.00    +0.000 OA
BRANCH  18  24
ATOM     20  C   UNL     1      -2.758  12.673  23.521  0.00  0.00    +0.000 C 
ATOM     21  C   UNL     1      -1.957  11.985  22.452  0.00  0.00    +0.000 A 
ATOM     22  C   UNL     1      -1.067  10.958  22.779  0.00  0.00    +0.000 A 
ATOM     23  C   UNL     1      -0.321  10.322  21.781  0.00  0.00    +0.000 A 
ATOM     24  C   UNL     1      -0.448  10.706  20.437  0.00  0.00    +0.000 A 
ATOM     25  C   UNL     1      -1.330  11.742  20.108  0.00  0.00    +0.000 A 
ATOM     26  C   UNL     1      -2.078  12.378  21.112  0.00  0.00    +0.000 A 
ENDBRANCH  18  24
ENDBRANCH  17  18
ENDBRANCH  16  17
ENDBRANCH   1  16
TORSDOF 4
ENDMDL
MODEL 7
REMARK VINA RESULT:      -7.9      3.475      8.412
REMARK  Name = 
REMARK  6 active torsions:
REMARK  status: ('A' for Active; 'I' for Inactive)
REMARK    1  A    between atoms: C_1  and  C_2
REMARK    2  A    between atoms: C_5  and  C_6
REMARK    3  A    between atoms: C_6  and  O_8
REMARK    4  A    between atoms: O_8  and  C_9
REMARK    5  A    between atoms: C_9  and  C_10
REMARK    6  A    between atoms: N_14  and  C_15
REMARK                            x       y       z     vdW  Elec       q    Type
REMARK                         _______ _______ _______ _____ _____    ______ ____
ROOT
ATOM      1  C   UNL     1       1.776  10.270  18.322  0.00  0.00    +0.000 A 
ATOM      2  N   UNL     1       2.379  11.172  17.563  0.00  0.00    +0.000 NA
ATOM      3  N   UNL     1       2.238  12.398  18.136  0.00  0.00    +0.000 NA
ATOM      4  C   UNL     1       1.554  12.250  19.243  0.00  0.00    +0.000 A 
ATOM      5  N   UNL     1       1.169  13.255  20.111  0.00  0.00    +0.000 N 
ATOM      6  C   UNL     1       1.516  14.647  19.895  0.00  0.00    +0.000 C 
ATOM      7  C   UNL     1       0.417  12.936  21.232  0.00  0.00    +0.000 A 
ATOM      8  O   UNL     1       0.006  13.781  22.024  0.00  0.00    +0.000 OA
ATOM      9  C   UNL     1       0.134  11.498  21.490  0.00  0.00    +0.000 A 
ATOM     10  C   UNL     1      -0.600  11.172  22.642  0.00  0.00    +0.000 A 
ATOM     11  C   UNL     1      -0.831   9.842  22.970  0.00  0.00    +0.000 A 
ATOM     12  C   UNL     1      -0.303   8.837  22.164  0.00  0.00    +0.000 A 
ATOM     13  C   UNL     1       0.422   9.153  21.006  0.00  0.00    +0.000 A 
ATOM     14  C   UNL     1       0.613  10.485  20.636  0.00  0.00    +0.000 A 
ATOM     15  N   UNL     1       1.275  10.907  19.456  0.00  0.00    +0.000 N 
ENDROOT
BRANCH   1  16
ATOM     16  C   UNL     1       1.718   8.836  17.930  0.00  0.00    +0.000 C 
BRANCH  16  17
ATOM     17  O   UNL     1       2.992   8.211  18.210  0.00  0.00    +0.000 OA
BRANCH  17  18
ATOM     18  C   UNL     1       2.923   6.891  18.502  0.00  0.00    +0.000 C 
ATOM     19  O   UNL     1       2.286   6.416  19.431  0.00  0.00    +0.000 OA
BRANCH  18  24
ATOM     20  C   UNL     1       6.179   3.865  14.750  0.00  0.00    +0.000 C 
ATOM     21  C   UNL     1       5.337   4.633  15.729  0.00  0.00    +0.000 A 
ATOM     22  C   UNL     1       5.415   6.027  15.796  0.00  0.00    +0.000 A 
ATOM     23  C   UNL     1       4.631   6.737  16.712  0.00  0.00    +0.000 A 
ATOM     24  C   UNL     1       3.759   6.065  17.581  0.00  0.00    +0.000 A 
ATOM     25  C   UNL     1       3.688   4.668  17.525  0.00  0.00    +0.000 A 
ATOM     26  C   UNL     1       4.474   3.958  16.605  0.00  0.00    +0.000 A 
ENDBRANCH  18  24
ENDBRANCH  17  18
ENDBRANCH  16  17
ENDBRANCH   1  16
TORSDOF 4
ENDMDL
MODEL 8
REMARK VINA RESULT:      -7.8      1.342      3.057
REMARK  Name = 
REMARK  6 active torsions:
REMARK  status: ('A' for Active; 'I' for Inactive)
REMARK    1  A    between atoms: C_1  and  C_2
REMARK    2  A    between atoms: C_5  and  C_6
REMARK    3  A    between atoms: C_6  and  O_8
REMARK    4  A    between atoms: O_8  and  C_9
REMARK    5  A    between atoms: C_9  and  C_10
REMARK    6  A    between atoms: N_14  and  C_15
REMARK                            x       y       z     vdW  Elec       q    Type
REMARK                         _______ _______ _______ _____ _____    ______ ____
ROOT
ATOM      1  C   UNL     1       2.234   7.909  18.977  0.00  0.00    +0.000 A 
ATOM      2  N   UNL     1       2.626   8.648  17.950  0.00  0.00    +0.000 NA
ATOM      3  N   UNL     1       3.468   7.915  17.172  0.00  0.00    +0.000 NA
ATOM      4  C   UNL     1       3.590   6.730  17.715  0.00  0.00    +0.000 A 
ATOM      5  N   UNL     1       4.378   5.692  17.252  0.00  0.00    +0.000 N 
ATOM      6  C   UNL     1       5.174   5.797  16.044  0.00  0.00    +0.000 C 
ATOM      7  C   UNL     1       4.423   4.501  17.962  0.00  0.00    +0.000 A 
ATOM      8  O   UNL     1       5.130   3.552  17.633  0.00  0.00    +0.000 OA
ATOM      9  C   UNL     1       3.542   4.373  19.155  0.00  0.00    +0.000 A 
ATOM     10  C   UNL     1       3.563   3.156  19.856  0.00  0.00    +0.000 A 
ATOM     11  C   UNL     1       2.708   2.956  20.933  0.00  0.00    +0.000 A 
ATOM     12  C   UNL     1       1.812   3.958  21.290  0.00  0.00    +0.000 A 
ATOM     13  C   UNL     1       1.790   5.180  20.604  0.00  0.00    +0.000 A 
ATOM     14  C   UNL     1       2.682   5.415  19.556  0.00  0.00    +0.000 A 
ATOM     15  N   UNL     1       2.783   6.635  18.840  0.00  0.00    +0.000 N 
ENDROOT
BRANCH   1  16
ATOM     16  C   UNL     1       1.341   8.454  20.034  0.00  0.00    +0.000 C 
BRANCH  16  17
ATOM     17  O   UNL     1       1.139   9.869  19.808  0.00  0.00    +0.000 OA
BRANCH  17  18
ATOM     18  C   UNL     1      -0.034  10.355  20.276  0.00  0.00    +0.000 C 
ATOM     19  O   UNL     1      -0.276  10.572  21.455  0.00  0.00    +0.000 OA
BRANCH  18  24
ATOM     20  C   UNL     1      -4.108  11.199  16.212  0.00  0.00    +0.000 C 
ATOM     21  C   UNL     1      -3.045  10.976  17.249  0.00  0.00    +0.000 A 
ATOM     22  C   UNL     1      -3.075  11.671  18.461  0.00  0.00    +0.000 A 
ATOM     23  C   UNL     1      -2.081  11.462  19.423  0.00  0.00    +0.000 A 
ATOM     24  C   UNL     1      -1.035  10.558  19.188  0.00  0.00    +0.000 A 
ATOM     25  C   UNL     1      -0.995   9.868  17.970  0.00  0.00    +0.000 A 
ATOM     26  C   UNL     1      -1.994  10.079  17.007  0.00  0.00    +0.000 A 
ENDBRANCH  18  24
ENDBRANCH  17  18
ENDBRANCH  16  17
ENDBRANCH   1  16
TORSDOF 4
ENDMDL
MODEL 9
REMARK VINA RESULT:      -7.8      2.229      2.432
REMARK  Name = 
REMARK  6 active torsions:
REMARK  status: ('A' for Active; 'I' for Inactive)
REMARK    1  A    between atoms: C_1  and  C_2
REMARK    2  A    between atoms: C_5  and  C_6
REMARK    3  A    between atoms: C_6  and  O_8
REMARK    4  A    between atoms: O_8  and  C_9
REMARK    5  A    between atoms: C_9  and  C_10
REMARK    6  A    between atoms: N_14  and  C_15
REMARK                            x       y       z     vdW  Elec       q    Type
REMARK                         _______ _______ _______ _____ _____    ______ ____
ROOT
ATOM      1  C   UNL     1       2.752   7.140  18.591  0.00  0.00    +0.000 A 
ATOM      2  N   UNL     1       2.056   6.998  19.708  0.00  0.00    +0.000 NA
ATOM      3  N   UNL     1       2.056   5.685  20.066  0.00  0.00    +0.000 NA
ATOM      4  C   UNL     1       2.752   5.024  19.175  0.00  0.00    +0.000 A 
ATOM      5  N   UNL     1       2.974   3.659  19.154  0.00  0.00    +0.000 N 
ATOM      6  C   UNL     1       2.457   2.769  20.177  0.00  0.00    +0.000 C 
ATOM      7  C   UNL     1       3.711   3.105  18.118  0.00  0.00    +0.000 A 
ATOM      8  O   UNL     1       3.914   1.897  18.013  0.00  0.00    +0.000 OA
ATOM      9  C   UNL     1       4.305   4.033  17.117  0.00  0.00    +0.000 A 
ATOM     10  C   UNL     1       5.080   3.474  16.087  0.00  0.00    +0.000 A 
ATOM     11  C   UNL     1       5.717   4.299  15.168  0.00  0.00    +0.000 A 
ATOM     12  C   UNL     1       5.607   5.680  15.296  0.00  0.00    +0.000 A 
ATOM     13  C   UNL     1       4.828   6.246  16.315  0.00  0.00    +0.000 A 
ATOM     14  C   UNL     1       4.137   5.428  17.210  0.00  0.00    +0.000 A 
ATOM     15  N   UNL     1       3.277   5.899  18.234  0.00  0.00    +0.000 N 
ENDROOT
BRANCH   1  16
ATOM     16  C   UNL     1       2.893   8.463  17.924  0.00  0.00    +0.000 C 
BRANCH  16  17
ATOM     17  O   UNL     1       1.636   9.174  18.001  0.00  0.00    +0.000 OA
BRANCH  17  18
ATOM     18  C   UNL     1       1.744  10.478  18.349  0.00  0.00    +0.000 C 
ATOM     19  O   UNL     1       2.464  11.290  17.785  0.00  0.00    +0.000 OA
BRANCH  18  24
ATOM     20  C   UNL     1      -1.321  11.964  23.063  0.00  0.00    +0.000 C 
ATOM     21  C   UNL     1      -0.540  11.567  21.842  0.00  0.00    +0.000 A 
ATOM     22  C   UNL     1       0.263  12.498  21.177  0.00  0.00    +0.000 A 
ATOM     23  C   UNL     1       0.986  12.125  20.039  0.00  0.00    +0.000 A 
ATOM     24  C   UNL     1       0.914  10.815  19.541  0.00  0.00    +0.000 A 
ATOM     25  C   UNL     1       0.100   9.884  20.199  0.00  0.00    +0.000 A 
ATOM     26  C   UNL     1      -0.623  10.260  21.341  0.00  0.00    +0.000 A 
ENDBRANCH  18  24
ENDBRANCH  17  18
ENDBRANCH  16  17
ENDBRANCH   1  16
TORSDOF 4
ENDMDL
