MODEL 1
REMARK VINA RESULT:      -8.8      0.000      0.000
REMARK  Name = 
REMARK  3 active torsions:
REMARK  status: ('A' for Active; 'I' for Inactive)
REMARK    1  A    between atoms: C_2  and  C_13
REMARK    2  A    between atoms: N_3  and  C_4
REMARK    3  A    between atoms: N_17  and  C_18
REMARK                            x       y       z     vdW  Elec       q    Type
REMARK                         _______ _______ _______ _____ _____    ______ ____
ROOT
ATOM      1  O   UNL     1       7.090   7.848  17.041  0.00  0.00    +0.000 OA
ATOM      2  C   UNL     1       7.753   7.380  17.964  0.00  0.00    +0.000 C 
ATOM      3  N   UNL     1       8.586   8.093  18.809  0.00  0.00    +0.000 N 
ATOM      4  H   UNL     1       9.209   7.573  19.414  0.00  0.00    +0.000 HD
ENDROOT
BRANCH   3   5
ATOM      5  C   UNL     1       8.793   9.493  18.779  0.00  0.00    +0.000 A 
ATOM      6  C   UNL     1       8.351  10.305  17.730  0.00  0.00    +0.000 A 
ATOM      7  C   UNL     1       8.620  11.678  17.693  0.00  0.00    +0.000 A 
ATOM      8  C   UNL     1       9.358  12.207  18.751  0.00  0.00    +0.000 A 
ATOM      9  N   UNL     1       9.816  13.474  18.994  0.00  0.00    +0.000 N 
ATOM     10  N   UNL     1      10.504  13.595  20.144  0.00  0.00    +0.000 NA
ATOM     11  C   UNL     1      10.481  12.359  20.650  0.00  0.00    +0.000 A 
ATOM     12  C   UNL     1       9.788  11.443  19.827  0.00  0.00    +0.000 A 
ATOM     13  C   UNL     1       9.483  10.068  19.862  0.00  0.00    +0.000 A 
ATOM     14  H   UNL     1       9.702  14.295  18.411  0.00  0.00    +0.000 HD
ENDBRANCH   3   5
BRANCH   2  15
ATOM     15  C   UNL     1       7.672   5.885  18.234  0.00  0.00    +0.000 C 
ATOM     16  C   UNL     1       7.215   5.115  17.011  0.00  0.00    +0.000 C 
ATOM     17  C   UNL     1       5.758   4.837  17.276  0.00  0.00    +0.000 C 
ATOM     18  O   UNL     1       5.010   4.389  16.422  0.00  0.00    +0.000 OA
ATOM     19  N   UNL     1       5.483   5.144  18.616  0.00  0.00    +0.000 N 
ATOM     20  C   UNL     1       6.684   5.529  19.324  0.00  0.00    +0.000 C 
BRANCH  19  21
ATOM     21  C   UNL     1       4.244   4.906  19.282  0.00  0.00    +0.000 A 
ATOM     22  C   UNL     1       3.334   5.949  19.509  0.00  0.00    +0.000 A 
ATOM     23  C   UNL     1       2.099   5.718  20.128  0.00  0.00    +0.000 A 
ATOM     24  C   UNL     1       1.746   4.437  20.536  0.00  0.00    +0.000 A 
ATOM     25  C   UNL     1       2.640   3.389  20.345  0.00  0.00    +0.000 A 
ATOM     26  C   UNL     1       3.873   3.628  19.734  0.00  0.00    +0.000 A 
ATOM     27  F   UNL     1       4.682   2.569  19.563  0.00  0.00    +0.000 F 
ENDBRANCH  19  21
ENDBRANCH   2  15
TORSDOF 3
ENDMDL
MODEL 2
REMARK VINA RESULT:      -8.5      0.968      1.361
REMARK  Name = 
REMARK  3 active torsions:
REMARK  status: ('A' for Active; 'I' for Inactive)
REMARK    1  A    between atoms: C_2  and  C_13
REMARK    2  A    between atoms: N_3  and  C_4
REMARK    3  A    between atoms: N_17  and  C_18
REMARK                            x       y       z     vdW  Elec       q    Type
REMARK                         _______ _______ _______ _____ _____    ______ ____
ROOT
ATOM      1  O   UNL     1       6.845   7.992  17.142  0.00  0.00    +0.000 OA
ATOM      2  C   UNL     1       7.619   7.461  17.935  0.00  0.00    +0.000 C 
ATOM      3  N   UNL     1       8.565   8.114  18.707  0.00  0.00    +0.000 N 
ATOM      4  H   UNL     1       9.257   7.552  19.188  0.00  0.00    +0.000 HD
ENDROOT
BRANCH   3   5
ATOM      5  C   UNL     1       8.783   9.512  18.743  0.00  0.00    +0.000 A 
ATOM      6  C   UNL     1       8.398  10.368  17.708  0.00  0.00    +0.000 A 
ATOM      7  C   UNL     1       8.677  11.740  17.739  0.00  0.00    +0.000 A 
ATOM      8  C   UNL     1       9.366  12.220  18.851  0.00  0.00    +0.000 A 
ATOM      9  N   UNL     1       9.820  13.473  19.166  0.00  0.00    +0.000 N 
ATOM     10  N   UNL     1      10.451  13.542  20.352  0.00  0.00    +0.000 NA
ATOM     11  C   UNL     1      10.395  12.287  20.807  0.00  0.00    +0.000 A 
ATOM     12  C   UNL     1       9.737  11.411  19.916  0.00  0.00    +0.000 A 
ATOM     13  C   UNL     1       9.422  10.038  19.881  0.00  0.00    +0.000 A 
ATOM     14  H   UNL     1       9.740  14.317  18.611  0.00  0.00    +0.000 HD
ENDBRANCH   3   5
BRANCH   2  15
ATOM     15  C   UNL     1       7.557   5.952  18.114  0.00  0.00    +0.000 C 
ATOM     16  C   UNL     1       7.047   5.258  16.867  0.00  0.00    +0.000 C 
ATOM     17  C   UNL     1       5.605   4.953  17.181  0.00  0.00    +0.000 C 
ATOM     18  O   UNL     1       4.820   4.554  16.336  0.00  0.00    +0.000 OA
ATOM     19  N   UNL     1       5.391   5.173  18.549  0.00  0.00    +0.000 N 
ATOM     20  C   UNL     1       6.623   5.521  19.224  0.00  0.00    +0.000 C 
BRANCH  19  21
ATOM     21  C   UNL     1       4.186   4.885  19.256  0.00  0.00    +0.000 A 
ATOM     22  C   UNL     1       3.954   3.613  19.800  0.00  0.00    +0.000 A 
ATOM     23  C   UNL     1       2.792   3.332  20.528  0.00  0.00    +0.000 A 
ATOM     24  C   UNL     1       1.832   4.317  20.729  0.00  0.00    +0.000 A 
ATOM     25  C   UNL     1       2.026   5.580  20.180  0.00  0.00    +0.000 A 
ATOM     26  C   UNL     1       3.184   5.852  19.449  0.00  0.00    +0.000 A 
ATOM     27  F   UNL     1       3.317   7.096  18.962  0.00  0.00    +0.000 F 
ENDBRANCH  19  21
ENDBRANCH   2  15
TORSDOF 3
ENDMDL
MODEL 3
REMARK VINA RESULT:      -8.5      0.779      1.379
REMARK  Name = 
REMARK  3 active torsions:
REMARK  status: ('A' for Active; 'I' for Inactive)
REMARK    1  A    between atoms: C_2  and  C_13
REMARK    2  A    between atoms: N_3  and  C_4
REMARK    3  A    between atoms: N_17  and  C_18
REMARK                            x       y       z     vdW  Elec       q    Type
REMARK                         _______ _______ _______ _____ _____    ______ ____
ROOT
ATOM      1  O   UNL     1       7.147   8.609  17.298  0.00  0.00    +0.000 OA
ATOM      2  C   UNL     1       7.871   7.932  18.025  0.00  0.00    +0.000 C 
ATOM      3  N   UNL     1       8.824   8.419  18.903  0.00  0.00    +0.000 N 
ATOM      4  H   UNL     1       9.473   7.761  19.315  0.00  0.00    +0.000 HD
ENDROOT
BRANCH   3   5
ATOM      5  C   UNL     1       9.109   9.785  19.141  0.00  0.00    +0.000 A 
ATOM      6  C   UNL     1       9.087  10.356  20.417  0.00  0.00    +0.000 A 
ATOM      7  C   UNL     1       9.314  11.722  20.621  0.00  0.00    +0.000 A 
ATOM      8  C   UNL     1       9.557  12.499  19.490  0.00  0.00    +0.000 A 
ATOM      9  N   UNL     1       9.772  13.843  19.341  0.00  0.00    +0.000 N 
ATOM     10  N   UNL     1       9.974  14.225  18.067  0.00  0.00    +0.000 NA
ATOM     11  C   UNL     1       9.884  13.082  17.382  0.00  0.00    +0.000 A 
ATOM     12  C   UNL     1       9.619  11.968  18.209  0.00  0.00    +0.000 A 
ATOM     13  C   UNL     1       9.418  10.585  18.026  0.00  0.00    +0.000 A 
ATOM     14  H   UNL     1       9.783  14.551  20.066  0.00  0.00    +0.000 HD
ENDBRANCH   3   5
BRANCH   2  15
ATOM     15  C   UNL     1       7.730   6.418  17.987  0.00  0.00    +0.000 C 
ATOM     16  C   UNL     1       7.146   5.939  16.672  0.00  0.00    +0.000 C 
ATOM     17  C   UNL     1       5.699   5.666  16.992  0.00  0.00    +0.000 C 
ATOM     18  O   UNL     1       4.869   5.435  16.128  0.00  0.00    +0.000 OA
ATOM     19  N   UNL     1       5.538   5.695  18.385  0.00  0.00    +0.000 N 
ATOM     20  C   UNL     1       6.805   5.879  19.057  0.00  0.00    +0.000 C 
BRANCH  19  21
ATOM     21  C   UNL     1       4.339   5.369  19.086  0.00  0.00    +0.000 A 
ATOM     22  C   UNL     1       3.351   6.337  19.317  0.00  0.00    +0.000 A 
ATOM     23  C   UNL     1       2.155   6.016  19.971  0.00  0.00    +0.000 A 
ATOM     24  C   UNL     1       1.919   4.719  20.411  0.00  0.00    +0.000 A 
ATOM     25  C   UNL     1       2.893   3.745  20.216  0.00  0.00    +0.000 A 
ATOM     26  C   UNL     1       4.086   4.073  19.570  0.00  0.00    +0.000 A 
ATOM     27  F   UNL     1       4.976   3.082  19.398  0.00  0.00    +0.000 F 
ENDBRANCH  19  21
ENDBRANCH   2  15
TORSDOF 3
ENDMDL
MODEL 4
REMARK VINA RESULT:      -8.4      5.372      8.035
REMARK  Name = 
REMARK  3 active torsions:
REMARK  status: ('A' for Active; 'I' for Inactive)
REMARK    1  A    between atoms: C_2  and  C_13
REMARK    2  A    between atoms: N_3  and  C_4
REMARK    3  A    between atoms: N_17  and  C_18
REMARK                            x       y       z     vdW  Elec       q    Type
REMARK                         _______ _______ _______ _____ _____    ______ ____
ROOT
ATOM      1  O   UNL     1       1.884   8.211  19.662  0.00  0.00    +0.000 OA
ATOM      2  C   UNL     1       1.992   8.586  18.497  0.00  0.00    +0.000 C 
ATOM      3  N   UNL     1       2.810   8.019  17.535  0.00  0.00    +0.000 N 
ATOM      4  H   UNL     1       2.942   8.522  16.666  0.00  0.00    +0.000 HD
ENDROOT
BRANCH   3   5
ATOM      5  C   UNL     1       3.640   6.887  17.716  0.00  0.00    +0.000 A 
ATOM      6  C   UNL     1       3.149   5.638  18.105  0.00  0.00    +0.000 A 
ATOM      7  C   UNL     1       3.997   4.548  18.337  0.00  0.00    +0.000 A 
ATOM      8  C   UNL     1       5.363   4.762  18.168  0.00  0.00    +0.000 A 
ATOM      9  N   UNL     1       6.441   3.937  18.349  0.00  0.00    +0.000 N 
ATOM     10  N   UNL     1       7.624   4.517  18.078  0.00  0.00    +0.000 NA
ATOM     11  C   UNL     1       7.285   5.756  17.711  0.00  0.00    +0.000 A 
ATOM     12  C   UNL     1       5.890   5.977  17.751  0.00  0.00    +0.000 A 
ATOM     13  C   UNL     1       5.019   7.054  17.495  0.00  0.00    +0.000 A 
ATOM     14  H   UNL     1       6.435   2.974  18.664  0.00  0.00    +0.000 HD
ENDBRANCH   3   5
BRANCH   2  15
ATOM     15  C   UNL     1       1.163   9.773  18.033  0.00  0.00    +0.000 C 
ATOM     16  C   UNL     1       1.927  11.077  18.159  0.00  0.00    +0.000 C 
ATOM     17  C   UNL     1       1.384  11.700  19.420  0.00  0.00    +0.000 C 
ATOM     18  O   UNL     1       1.895  12.679  19.939  0.00  0.00    +0.000 OA
ATOM     19  N   UNL     1       0.239  10.990  19.809  0.00  0.00    +0.000 N 
ATOM     20  C   UNL     1      -0.101   9.970  18.842  0.00  0.00    +0.000 C 
BRANCH  19  21
ATOM     21  C   UNL     1      -0.626  11.343  20.887  0.00  0.00    +0.000 A 
ATOM     22  C   UNL     1      -1.657  12.277  20.710  0.00  0.00    +0.000 A 
ATOM     23  C   UNL     1      -2.535  12.601  21.751  0.00  0.00    +0.000 A 
ATOM     24  C   UNL     1      -2.402  11.997  22.996  0.00  0.00    +0.000 A 
ATOM     25  C   UNL     1      -1.374  11.085  23.206  0.00  0.00    +0.000 A 
ATOM     26  C   UNL     1      -0.497  10.772  22.165  0.00  0.00    +0.000 A 
ATOM     27  F   UNL     1       0.462   9.870  22.429  0.00  0.00    +0.000 F 
ENDBRANCH  19  21
ENDBRANCH   2  15
TORSDOF 3
ENDMDL
MODEL 5
REMARK VINA RESULT:      -8.4      5.653      8.290
REMARK  Name = 
REMARK  3 active torsions:
REMARK  status: ('A' for Active; 'I' for Inactive)
REMARK    1  A    between atoms: C_2  and  C_13
REMARK    2  A    between atoms: N_3  and  C_4
REMARK    3  A    between atoms: N_17  and  C_18
REMARK                            x       y       z     vdW  Elec       q    Type
REMARK                         _______ _______ _______ _____ _____    ______ ____
ROOT
ATOM      1  O   UNL     1       1.838   8.234  19.689  0.00  0.00    +0.000 OA
ATOM      2  C   UNL     1       1.945   8.598  18.520  0.00  0.00    +0.000 C 
ATOM      3  N   UNL     1       2.759   8.021  17.561  0.00  0.00    +0.000 N 
ATOM      4  H   UNL     1       2.891   8.516  16.688  0.00  0.00    +0.000 HD
ENDROOT
BRANCH   3   5
ATOM      5  C   UNL     1       3.586   6.888  17.750  0.00  0.00    +0.000 A 
ATOM      6  C   UNL     1       3.093   5.647  18.164  0.00  0.00    +0.000 A 
ATOM      7  C   UNL     1       3.938   4.556  18.402  0.00  0.00    +0.000 A 
ATOM      8  C   UNL     1       5.304   4.761  18.214  0.00  0.00    +0.000 A 
ATOM      9  N   UNL     1       6.380   3.934  18.396  0.00  0.00    +0.000 N 
ATOM     10  N   UNL     1       7.562   4.504  18.103  0.00  0.00    +0.000 NA
ATOM     11  C   UNL     1       7.225   5.739  17.721  0.00  0.00    +0.000 A 
ATOM     12  C   UNL     1       5.832   5.967  17.774  0.00  0.00    +0.000 A 
ATOM     13  C   UNL     1       4.963   7.045  17.510  0.00  0.00    +0.000 A 
ATOM     14  H   UNL     1       6.373   2.976  18.726  0.00  0.00    +0.000 HD
ENDBRANCH   3   5
BRANCH   2  15
ATOM     15  C   UNL     1       1.119   9.785  18.048  0.00  0.00    +0.000 C 
ATOM     16  C   UNL     1       1.874  11.092  18.199  0.00  0.00    +0.000 C 
ATOM     17  C   UNL     1       1.302  11.702  19.453  0.00  0.00    +0.000 C 
ATOM     18  O   UNL     1       1.796  12.681  19.990  0.00  0.00    +0.000 OA
ATOM     19  N   UNL     1       0.153  10.984  19.813  0.00  0.00    +0.000 N 
ATOM     20  C   UNL     1      -0.162   9.969  18.832  0.00  0.00    +0.000 C 
BRANCH  19  21
ATOM     21  C   UNL     1      -0.736  11.324  20.876  0.00  0.00    +0.000 A 
ATOM     22  C   UNL     1      -0.558  10.798  22.164  0.00  0.00    +0.000 A 
ATOM     23  C   UNL     1      -1.402  11.156  23.221  0.00  0.00    +0.000 A 
ATOM     24  C   UNL     1      -2.447  12.049  23.016  0.00  0.00    +0.000 A 
ATOM     25  C   UNL     1      -2.662  12.567  21.743  0.00  0.00    +0.000 A 
ATOM     26  C   UNL     1      -1.820  12.200  20.691  0.00  0.00    +0.000 A 
ATOM     27  F   UNL     1      -2.071  12.750  19.492  0.00  0.00    +0.000 F 
ENDBRANCH  19  21
ENDBRANCH   2  15
TORSDOF 3
ENDMDL
MODEL 6
REMARK VINA RESULT:      -8.2      1.319      1.982
REMARK  Name = 
REMARK  3 active torsions:
REMARK  status: ('A' for Active; 'I' for Inactive)
REMARK    1  A    between atoms: C_2  and  C_13
REMARK    2  A    between atoms: N_3  and  C_4
REMARK    3  A    between atoms: N_17  and  C_18
REMARK                            x       y       z     vdW  Elec       q    Type
REMARK                         _______ _______ _______ _____ _____    ______ ____
ROOT
ATOM      1  O   UNL     1       7.144   8.647  17.291  0.00  0.00    +0.000 OA
ATOM      2  C   UNL     1       7.877   7.970  18.008  0.00  0.00    +0.000 C 
ATOM      3  N   UNL     1       8.835   8.458  18.880  0.00  0.00    +0.000 N 
ATOM      4  H   UNL     1       9.491   7.801  19.283  0.00  0.00    +0.000 HD
ENDROOT
BRANCH   3   5
ATOM      5  C   UNL     1       9.113   9.825  19.124  0.00  0.00    +0.000 A 
ATOM      6  C   UNL     1       9.080  10.392  20.401  0.00  0.00    +0.000 A 
ATOM      7  C   UNL     1       9.299  11.759  20.610  0.00  0.00    +0.000 A 
ATOM      8  C   UNL     1       9.550  12.539  19.483  0.00  0.00    +0.000 A 
ATOM      9  N   UNL     1       9.761  13.884  19.338  0.00  0.00    +0.000 N 
ATOM     10  N   UNL     1       9.971  14.270  18.067  0.00  0.00    +0.000 NA
ATOM     11  C   UNL     1       9.891  13.128  17.379  0.00  0.00    +0.000 A 
ATOM     12  C   UNL     1       9.624  12.011  18.202  0.00  0.00    +0.000 A 
ATOM     13  C   UNL     1       9.428  10.629  18.013  0.00  0.00    +0.000 A 
ATOM     14  H   UNL     1       9.764  14.591  20.065  0.00  0.00    +0.000 HD
ENDBRANCH   3   5
BRANCH   2  15
ATOM     15  C   UNL     1       7.746   6.456  17.963  0.00  0.00    +0.000 C 
ATOM     16  C   UNL     1       7.196   5.978  16.633  0.00  0.00    +0.000 C 
ATOM     17  C   UNL     1       5.743   5.696  16.917  0.00  0.00    +0.000 C 
ATOM     18  O   UNL     1       4.935   5.463  16.032  0.00  0.00    +0.000 OA
ATOM     19  N   UNL     1       5.548   5.720  18.305  0.00  0.00    +0.000 N 
ATOM     20  C   UNL     1       6.798   5.908  19.008  0.00  0.00    +0.000 C 
BRANCH  19  21
ATOM     21  C   UNL     1       4.334   5.386  18.977  0.00  0.00    +0.000 A 
ATOM     22  C   UNL     1       4.175   4.141  19.604  0.00  0.00    +0.000 A 
ATOM     23  C   UNL     1       3.003   3.819  20.298  0.00  0.00    +0.000 A 
ATOM     24  C   UNL     1       1.961   4.734  20.381  0.00  0.00    +0.000 A 
ATOM     25  C   UNL     1       2.083   5.966  19.748  0.00  0.00    +0.000 A 
ATOM     26  C   UNL     1       3.252   6.279  19.051  0.00  0.00    +0.000 A 
ATOM     27  F   UNL     1       3.312   7.492  18.479  0.00  0.00    +0.000 F 
ENDBRANCH  19  21
ENDBRANCH   2  15
TORSDOF 3
ENDMDL
MODEL 7
REMARK VINA RESULT:      -8.1      5.954      9.179
REMARK  Name = 
REMARK  3 active torsions:
REMARK  status: ('A' for Active; 'I' for Inactive)
REMARK    1  A    between atoms: C_2  and  C_13
REMARK    2  A    between atoms: N_3  and  C_4
REMARK    3  A    between atoms: N_17  and  C_18
REMARK                            x       y       z     vdW  Elec       q    Type
REMARK                         _______ _______ _______ _____ _____    ______ ____
ROOT
ATOM      1  O   UNL     1       1.805   8.286  19.910  0.00  0.00    +0.000 OA
ATOM      2  C   UNL     1       1.750   8.462  18.695  0.00  0.00    +0.000 C 
ATOM      3  N   UNL     1       2.262   7.614  17.728  0.00  0.00    +0.000 N 
ATOM      4  H   UNL     1       2.309   7.953  16.775  0.00  0.00    +0.000 HD
ENDROOT
BRANCH   3   5
ATOM      5  C   UNL     1       2.910   6.379  17.968  0.00  0.00    +0.000 A 
ATOM      6  C   UNL     1       4.283   6.274  18.209  0.00  0.00    +0.000 A 
ATOM      7  C   UNL     1       4.912   5.036  18.386  0.00  0.00    +0.000 A 
ATOM      8  C   UNL     1       4.107   3.901  18.305  0.00  0.00    +0.000 A 
ATOM      9  N   UNL     1       4.407   2.567  18.388  0.00  0.00    +0.000 N 
ATOM     10  N   UNL     1       3.340   1.759  18.259  0.00  0.00    +0.000 NA
ATOM     11  C   UNL     1       2.325   2.610  18.088  0.00  0.00    +0.000 A 
ATOM     12  C   UNL     1       2.736   3.962  18.099  0.00  0.00    +0.000 A 
ATOM     13  C   UNL     1       2.116   5.218  17.953  0.00  0.00    +0.000 A 
ATOM     14  H   UNL     1       5.319   2.147  18.521  0.00  0.00    +0.000 HD
ENDBRANCH   3   5
BRANCH   2  15
ATOM     15  C   UNL     1       1.059   9.711  18.170  0.00  0.00    +0.000 C 
ATOM     16  C   UNL     1       1.905  10.952  18.379  0.00  0.00    +0.000 C 
ATOM     17  C   UNL     1       1.298  11.610  19.591  0.00  0.00    +0.000 C 
ATOM     18  O   UNL     1       1.831  12.545  20.166  0.00  0.00    +0.000 OA
ATOM     19  N   UNL     1       0.072  10.988  19.867  0.00  0.00    +0.000 N 
ATOM     20  C   UNL     1      -0.255  10.001  18.863  0.00  0.00    +0.000 C 
BRANCH  19  21
ATOM     21  C   UNL     1      -0.860  11.402  20.866  0.00  0.00    +0.000 A 
ATOM     22  C   UNL     1      -0.742  10.960  22.191  0.00  0.00    +0.000 A 
ATOM     23  C   UNL     1      -1.628  11.391  23.186  0.00  0.00    +0.000 A 
ATOM     24  C   UNL     1      -2.656  12.274  22.877  0.00  0.00    +0.000 A 
ATOM     25  C   UNL     1      -2.810  12.710  21.565  0.00  0.00    +0.000 A 
ATOM     26  C   UNL     1      -1.927  12.270  20.577  0.00  0.00    +0.000 A 
ATOM     27  F   UNL     1      -2.121  12.743  19.335  0.00  0.00    +0.000 F 
ENDBRANCH  19  21
ENDBRANCH   2  15
TORSDOF 3
ENDMDL
MODEL 8
REMARK VINA RESULT:      -8.1      5.532      8.696
REMARK  Name = 
REMARK  3 active torsions:
REMARK  status: ('A' for Active; 'I' for Inactive)
REMARK    1  A    between atoms: C_2  and  C_13
REMARK    2  A    between atoms: N_3  and  C_4
REMARK    3  A    between atoms: N_17  and  C_18
REMARK                            x       y       z     vdW  Elec       q    Type
REMARK                         _______ _______ _______ _____ _____    ______ ____
ROOT
ATOM      1  O   UNL     1       1.758   8.323  20.001  0.00  0.00    +0.000 OA
ATOM      2  C   UNL     1       1.832   8.527  18.792  0.00  0.00    +0.000 C 
ATOM      3  N   UNL     1       2.571   7.784  17.887  0.00  0.00    +0.000 N 
ATOM      4  H   UNL     1       2.690   8.155  16.952  0.00  0.00    +0.000 HD
ENDROOT
BRANCH   3   5
ATOM      5  C   UNL     1       3.343   6.638  18.192  0.00  0.00    +0.000 A 
ATOM      6  C   UNL     1       4.651   6.458  17.731  0.00  0.00    +0.000 A 
ATOM      7  C   UNL     1       5.374   5.289  17.996  0.00  0.00    +0.000 A 
ATOM      8  C   UNL     1       4.731   4.301  18.739  0.00  0.00    +0.000 A 
ATOM      9  N   UNL     1       5.132   3.051  19.129  0.00  0.00    +0.000 N 
ATOM     10  N   UNL     1       4.214   2.383  19.850  0.00  0.00    +0.000 NA
ATOM     11  C   UNL     1       3.192   3.240  19.920  0.00  0.00    +0.000 A 
ATOM     12  C   UNL     1       3.446   4.453  19.243  0.00  0.00    +0.000 A 
ATOM     13  C   UNL     1       2.744   5.648  18.991  0.00  0.00    +0.000 A 
ATOM     14  H   UNL     1       6.015   2.595  18.927  0.00  0.00    +0.000 HD
ENDBRANCH   3   5
BRANCH   2  15
ATOM     15  C   UNL     1       1.051   9.690  18.200  0.00  0.00    +0.000 C 
ATOM     16  C   UNL     1       1.831  10.988  18.274  0.00  0.00    +0.000 C 
ATOM     17  C   UNL     1       1.233  11.708  19.455  0.00  0.00    +0.000 C 
ATOM     18  O   UNL     1       1.733  12.715  19.931  0.00  0.00    +0.000 OA
ATOM     19  N   UNL     1       0.056  11.045  19.831  0.00  0.00    +0.000 N 
ATOM     20  C   UNL     1      -0.251   9.963  18.922  0.00  0.00    +0.000 C 
BRANCH  19  21
ATOM     21  C   UNL     1      -0.859  11.487  20.832  0.00  0.00    +0.000 A 
ATOM     22  C   UNL     1      -1.920  12.347  20.512  0.00  0.00    +0.000 A 
ATOM     23  C   UNL     1      -2.845  12.756  21.480  0.00  0.00    +0.000 A 
ATOM     24  C   UNL     1      -2.731  12.313  22.793  0.00  0.00    +0.000 A 
ATOM     25  C   UNL     1      -1.675  11.479  23.142  0.00  0.00    +0.000 A 
ATOM     26  C   UNL     1      -0.751  11.082  22.174  0.00  0.00    +0.000 A 
ATOM     27  F   UNL     1       0.234  10.261  22.574  0.00  0.00    +0.000 F 
ENDBRANCH  19  21
ENDBRANCH   2  15
TORSDOF 3
ENDMDL
MODEL 9
REMARK VINA RESULT:      -8.0      5.426      6.924
REMARK  Name = 
REMARK  3 active torsions:
REMARK  status: ('A' for Active; 'I' for Inactive)
REMARK    1  A    between atoms: C_2  and  C_13
REMARK    2  A    between atoms: N_3  and  C_4
REMARK    3  A    between atoms: N_17  and  C_18
REMARK                            x       y       z     vdW  Elec       q    Type
REMARK                         _______ _______ _______ _____ _____    ______ ____
ROOT
ATOM      1  O   UNL     1       0.901   4.739  20.516  0.00  0.00    +0.000 OA
ATOM      2  C   UNL     1       1.893   4.893  19.808  0.00  0.00    +0.000 C 
ATOM      3  N   UNL     1       2.388   6.104  19.354  0.00  0.00    +0.000 N 
ATOM      4  H   UNL     1       3.104   6.088  18.639  0.00  0.00    +0.000 HD
ENDROOT
BRANCH   3   5
ATOM      5  C   UNL     1       1.855   7.380  19.655  0.00  0.00    +0.000 A 
ATOM      6  C   UNL     1       1.737   8.399  18.705  0.00  0.00    +0.000 A 
ATOM      7  C   UNL     1       1.263   9.673  19.040  0.00  0.00    +0.000 A 
ATOM      8  C   UNL     1       0.914   9.888  20.372  0.00  0.00    +0.000 A 
ATOM      9  N   UNL     1       0.465  11.005  21.024  0.00  0.00    +0.000 N 
ATOM     10  N   UNL     1       0.233  10.816  22.335  0.00  0.00    +0.000 NA
ATOM     11  C   UNL     1       0.546   9.531  22.523  0.00  0.00    +0.000 A 
ATOM     12  C   UNL     1       0.985   8.895  21.340  0.00  0.00    +0.000 A 
ATOM     13  C   UNL     1       1.437   7.611  20.979  0.00  0.00    +0.000 A 
ATOM     14  H   UNL     1       0.306  11.926  20.632  0.00  0.00    +0.000 HD
ENDBRANCH   3   5
BRANCH   2  15
ATOM     15  C   UNL     1       2.677   3.663  19.376  0.00  0.00    +0.000 C 
ATOM     16  C   UNL     1       4.004   3.557  20.103  0.00  0.00    +0.000 C 
ATOM     17  C   UNL     1       5.012   4.060  19.103  0.00  0.00    +0.000 C 
ATOM     18  O   UNL     1       6.173   4.290  19.402  0.00  0.00    +0.000 OA
ATOM     19  N   UNL     1       4.386   4.161  17.852  0.00  0.00    +0.000 N 
ATOM     20  C   UNL     1       3.028   3.667  17.903  0.00  0.00    +0.000 C 
BRANCH  19  21
ATOM     21  C   UNL     1       5.036   4.490  16.626  0.00  0.00    +0.000 A 
ATOM     22  C   UNL     1       5.695   3.508  15.872  0.00  0.00    +0.000 A 
ATOM     23  C   UNL     1       6.303   3.814  14.648  0.00  0.00    +0.000 A 
ATOM     24  C   UNL     1       6.266   5.111  14.150  0.00  0.00    +0.000 A 
ATOM     25  C   UNL     1       5.640   6.109  14.888  0.00  0.00    +0.000 A 
ATOM     26  C   UNL     1       5.042   5.798  16.112  0.00  0.00    +0.000 A 
ATOM     27  F   UNL     1       4.439   6.804  16.766  0.00  0.00    +0.000 F 
ENDBRANCH  19  21
ENDBRANCH   2  15
TORSDOF 3
ENDMDL
