MODEL 1
REMARK VINA RESULT:      -8.5      0.000      0.000
REMARK  Name = 
REMARK  3 active torsions:
REMARK  status: ('A' for Active; 'I' for Inactive)
REMARK    1  A    between atoms: C_1  and  C_2
REMARK    2  A    between atoms: C_5  and  C_7
REMARK    3  A    between atoms: C_9  and  C_10
REMARK                            x       y       z     vdW  Elec       q    Type
REMARK                         _______ _______ _______ _____ _____    ______ ____
ROOT
ATOM      1  C   UNL     1      -3.959  11.804  17.342  0.00  0.00    +0.000 C 
ATOM      2  C   UNL     1      -2.640  11.708  18.101  0.00  0.00    +0.000 C 
ATOM      3  C   UNL     1      -2.185  10.234  18.278  0.00  0.00    +0.000 C 
ATOM      4  N   UNL     1      -0.822  10.065  18.841  0.00  0.00    +0.000 N 
ATOM      5  C   UNL     1       0.120   9.348  18.076  0.00  0.00    +0.000 C 
ATOM      6  O   UNL     1      -0.174   8.791  17.026  0.00  0.00    +0.000 OA
ATOM      7  C   UNL     1      -0.700  10.284  20.254  0.00  0.00    +0.000 A 
ATOM      8  C   UNL     1      -0.202   9.270  21.085  0.00  0.00    +0.000 A 
ATOM      9  C   UNL     1      -0.255   9.404  22.479  0.00  0.00    +0.000 A 
ATOM     10  C   UNL     1      -0.800  10.545  23.066  0.00  0.00    +0.000 A 
ATOM     11  C   UNL     1      -1.244  11.587  22.264  0.00  0.00    +0.000 A 
ATOM     12  C   UNL     1      -1.180  11.452  20.873  0.00  0.00    +0.000 A 
ATOM     13  C   UNL     1      -1.617  12.585  20.053  0.00  0.00    +0.000 C 
ATOM     14  O   UNL     1      -0.936  13.596  19.943  0.00  0.00    +0.000 OA
ATOM     15  N   UNL     1      -2.805  12.359  19.397  0.00  0.00    +0.000 N 
ATOM     16  H   UNL     1      -3.464  11.841  19.967  0.00  0.00    +0.000 HD
ENDROOT
BRANCH   5  17
ATOM     17  C   UNL     1       1.555   9.413  18.499  0.00  0.00    +0.000 C 
ATOM     18  C   UNL     1       2.624   8.840  17.593  0.00  0.00    +0.000 C 
ATOM     19  C   UNL     1       2.409   8.259  18.973  0.00  0.00    +0.000 C 
BRANCH  19  20
ATOM     20  C   UNL     1       2.086   6.777  19.120  0.00  0.00    +0.000 A 
ATOM     21  C   UNL     1       1.904   6.260  20.420  0.00  0.00    +0.000 A 
ATOM     22  C   UNL     1       1.941   4.888  20.695  0.00  0.00    +0.000 A 
ATOM     23  C   UNL     1       2.275   3.992  19.682  0.00  0.00    +0.000 A 
ATOM     24  C   UNL     1       2.629   2.673  19.989  0.00  0.00    +0.000 A 
ATOM     25  C   UNL     1       3.359   1.934  19.063  0.00  0.00    +0.000 A 
ATOM     26  C   UNL     1       3.473   2.384  17.750  0.00  0.00    +0.000 A 
ATOM     27  C   UNL     1       2.892   3.597  17.375  0.00  0.00    +0.000 A 
ATOM     28  C   UNL     1       2.404   4.465  18.359  0.00  0.00    +0.000 A 
ATOM     29  C   UNL     1       2.201   5.831  18.085  0.00  0.00    +0.000 A 
ENDBRANCH  19  20
ENDBRANCH   5  17
TORSDOF 2
ENDMDL
MODEL 2
REMARK VINA RESULT:      -8.1      3.451      8.467
REMARK  Name = 
REMARK  3 active torsions:
REMARK  status: ('A' for Active; 'I' for Inactive)
REMARK    1  A    between atoms: C_1  and  C_2
REMARK    2  A    between atoms: C_5  and  C_7
REMARK    3  A    between atoms: C_9  and  C_10
REMARK                            x       y       z     vdW  Elec       q    Type
REMARK                         _______ _______ _______ _____ _____    ______ ____
ROOT
ATOM      1  C   UNL     1       3.546   2.300  20.448  0.00  0.00    +0.000 C 
ATOM      2  C   UNL     1       4.093   3.529  19.730  0.00  0.00    +0.000 C 
ATOM      3  C   UNL     1       3.297   3.838  18.433  0.00  0.00    +0.000 C 
ATOM      4  N   UNL     1       3.648   5.123  17.779  0.00  0.00    +0.000 N 
ATOM      5  C   UNL     1       2.618   6.069  17.595  0.00  0.00    +0.000 C 
ATOM      6  O   UNL     1       1.449   5.829  17.868  0.00  0.00    +0.000 OA
ATOM      7  C   UNL     1       4.877   5.130  17.037  0.00  0.00    +0.000 A 
ATOM      8  C   UNL     1       4.878   5.459  15.675  0.00  0.00    +0.000 A 
ATOM      9  C   UNL     1       6.035   5.287  14.903  0.00  0.00    +0.000 A 
ATOM     10  C   UNL     1       7.206   4.789  15.474  0.00  0.00    +0.000 A 
ATOM     11  C   UNL     1       7.246   4.512  16.834  0.00  0.00    +0.000 A 
ATOM     12  C   UNL     1       6.090   4.694  17.601  0.00  0.00    +0.000 A 
ATOM     13  C   UNL     1       6.174   4.435  19.040  0.00  0.00    +0.000 C 
ATOM     14  O   UNL     1       6.747   5.206  19.798  0.00  0.00    +0.000 OA
ATOM     15  N   UNL     1       5.503   3.299  19.430  0.00  0.00    +0.000 N 
ATOM     16  H   UNL     1       5.600   2.548  18.757  0.00  0.00    +0.000 HD
ENDROOT
BRANCH   5  17
ATOM     17  C   UNL     1       3.012   7.458  17.196  0.00  0.00    +0.000 C 
ATOM     18  C   UNL     1       3.719   8.346  18.198  0.00  0.00    +0.000 C 
ATOM     19  C   UNL     1       2.366   8.745  17.654  0.00  0.00    +0.000 C 
BRANCH  19  20
ATOM     20  C   UNL     1       1.214   8.992  18.620  0.00  0.00    +0.000 A 
ATOM     21  C   UNL     1       0.278   9.998  18.298  0.00  0.00    +0.000 A 
ATOM     22  C   UNL     1      -0.604  10.534  19.244  0.00  0.00    +0.000 A 
ATOM     23  C   UNL     1      -0.496  10.152  20.580  0.00  0.00    +0.000 A 
ATOM     24  C   UNL     1      -1.132  10.891  21.583  0.00  0.00    +0.000 A 
ATOM     25  C   UNL     1      -0.685  10.779  22.896  0.00  0.00    +0.000 A 
ATOM     26  C   UNL     1       0.168   9.738  23.251  0.00  0.00    +0.000 A 
ATOM     27  C   UNL     1       0.607   8.833  22.283  0.00  0.00    +0.000 A 
ATOM     28  C   UNL     1       0.385   9.107  20.928  0.00  0.00    +0.000 A 
ATOM     29  C   UNL     1       1.144   8.473  19.925  0.00  0.00    +0.000 A 
ENDBRANCH  19  20
ENDBRANCH   5  17
TORSDOF 2
ENDMDL
MODEL 3
REMARK VINA RESULT:      -8.0      2.104      3.323
REMARK  Name = 
REMARK  3 active torsions:
REMARK  status: ('A' for Active; 'I' for Inactive)
REMARK    1  A    between atoms: C_1  and  C_2
REMARK    2  A    between atoms: C_5  and  C_7
REMARK    3  A    between atoms: C_9  and  C_10
REMARK                            x       y       z     vdW  Elec       q    Type
REMARK                         _______ _______ _______ _____ _____    ______ ____
ROOT
ATOM      1  C   UNL     1      -1.653  11.159  23.282  0.00  0.00    +0.000 C 
ATOM      2  C   UNL     1      -1.218  11.374  21.837  0.00  0.00    +0.000 C 
ATOM      3  C   UNL     1       0.294  11.078  21.642  0.00  0.00    +0.000 C 
ATOM      4  N   UNL     1       0.753  11.084  20.231  0.00  0.00    +0.000 N 
ATOM      5  C   UNL     1       1.352   9.909  19.730  0.00  0.00    +0.000 C 
ATOM      6  O   UNL     1       1.585   8.938  20.438  0.00  0.00    +0.000 OA
ATOM      7  C   UNL     1       0.920  12.379  19.635  0.00  0.00    +0.000 A 
ATOM      8  C   UNL     1       2.162  12.759  19.108  0.00  0.00    +0.000 A 
ATOM      9  C   UNL     1       2.385  14.080  18.697  0.00  0.00    +0.000 A 
ATOM     10  C   UNL     1       1.379  15.040  18.802  0.00  0.00    +0.000 A 
ATOM     11  C   UNL     1       0.123  14.673  19.264  0.00  0.00    +0.000 A 
ATOM     12  C   UNL     1      -0.097  13.350  19.664  0.00  0.00    +0.000 A 
ATOM     13  C   UNL     1      -1.444  12.982  20.108  0.00  0.00    +0.000 C 
ATOM     14  O   UNL     1      -2.366  12.850  19.314  0.00  0.00    +0.000 OA
ATOM     15  N   UNL     1      -1.529  12.750  21.461  0.00  0.00    +0.000 N 
ATOM     16  H   UNL     1      -0.960  13.396  21.996  0.00  0.00    +0.000 HD
ENDROOT
BRANCH   5  17
ATOM     17  C   UNL     1       1.561   9.810  18.251  0.00  0.00    +0.000 C 
ATOM     18  C   UNL     1       0.692   8.873  17.439  0.00  0.00    +0.000 C 
ATOM     19  C   UNL     1       2.188   8.657  17.503  0.00  0.00    +0.000 C 
BRANCH  19  20
ATOM     20  C   UNL     1       2.730   7.323  18.004  0.00  0.00    +0.000 A 
ATOM     21  C   UNL     1       4.066   6.988  17.694  0.00  0.00    +0.000 A 
ATOM     22  C   UNL     1       4.557   5.683  17.802  0.00  0.00    +0.000 A 
ATOM     23  C   UNL     1       3.686   4.643  18.121  0.00  0.00    +0.000 A 
ATOM     24  C   UNL     1       4.067   3.311  17.926  0.00  0.00    +0.000 A 
ATOM     25  C   UNL     1       3.084   2.331  17.830  0.00  0.00    +0.000 A 
ATOM     26  C   UNL     1       1.778   2.618  18.218  0.00  0.00    +0.000 A 
ATOM     27  C   UNL     1       1.447   3.899  18.662  0.00  0.00    +0.000 A 
ATOM     28  C   UNL     1       2.360   4.947  18.497  0.00  0.00    +0.000 A 
ATOM     29  C   UNL     1       1.938   6.291  18.536  0.00  0.00    +0.000 A 
ENDBRANCH  19  20
ENDBRANCH   5  17
TORSDOF 2
ENDMDL
MODEL 4
REMARK VINA RESULT:      -7.9      1.910      3.570
REMARK  Name = 
REMARK  3 active torsions:
REMARK  status: ('A' for Active; 'I' for Inactive)
REMARK    1  A    between atoms: C_1  and  C_2
REMARK    2  A    between atoms: C_5  and  C_7
REMARK    3  A    between atoms: C_9  and  C_10
REMARK                            x       y       z     vdW  Elec       q    Type
REMARK                         _______ _______ _______ _____ _____    ______ ____
ROOT
ATOM      1  C   UNL     1      -0.326  15.555  20.249  0.00  0.00    +0.000 C 
ATOM      2  C   UNL     1      -0.926  14.162  20.406  0.00  0.00    +0.000 C 
ATOM      3  C   UNL     1      -0.059  13.081  19.704  0.00  0.00    +0.000 C 
ATOM      4  N   UNL     1      -0.474  11.681  19.969  0.00  0.00    +0.000 N 
ATOM      5  C   UNL     1       0.473  10.814  20.550  0.00  0.00    +0.000 C 
ATOM      6  O   UNL     1       1.633  11.149  20.751  0.00  0.00    +0.000 OA
ATOM      7  C   UNL     1      -1.635  11.229  19.254  0.00  0.00    +0.000 A 
ATOM      8  C   UNL     1      -1.556  10.108  18.417  0.00  0.00    +0.000 A 
ATOM      9  C   UNL     1      -2.626   9.774  17.575  0.00  0.00    +0.000 A 
ATOM     10  C   UNL     1      -3.787  10.546  17.555  0.00  0.00    +0.000 A 
ATOM     11  C   UNL     1      -3.911  11.625  18.419  0.00  0.00    +0.000 A 
ATOM     12  C   UNL     1      -2.844  11.949  19.263  0.00  0.00    +0.000 A 
ATOM     13  C   UNL     1      -3.019  13.068  20.193  0.00  0.00    +0.000 C 
ATOM     14  O   UNL     1      -3.722  12.968  21.190  0.00  0.00    +0.000 OA
ATOM     15  N   UNL     1      -2.278  14.178  19.859  0.00  0.00    +0.000 N 
ATOM     16  H   UNL     1      -2.249  14.330  18.857  0.00  0.00    +0.000 HD
ENDROOT
BRANCH   5  17
ATOM     17  C   UNL     1      -0.016   9.498  21.071  0.00  0.00    +0.000 C 
ATOM     18  C   UNL     1       0.769   8.791  22.156  0.00  0.00    +0.000 C 
ATOM     19  C   UNL     1       0.590   8.140  20.802  0.00  0.00    +0.000 C 
BRANCH  19  20
ATOM     20  C   UNL     1       1.819   7.740  19.995  0.00  0.00    +0.000 A 
ATOM     21  C   UNL     1       2.039   8.378  18.756  0.00  0.00    +0.000 A 
ATOM     22  C   UNL     1       2.920   7.869  17.795  0.00  0.00    +0.000 A 
ATOM     23  C   UNL     1       3.528   6.633  18.004  0.00  0.00    +0.000 A 
ATOM     24  C   UNL     1       4.147   5.958  16.946  0.00  0.00    +0.000 A 
ATOM     25  C   UNL     1       4.357   4.587  17.047  0.00  0.00    +0.000 A 
ATOM     26  C   UNL     1       4.233   3.954  18.281  0.00  0.00    +0.000 A 
ATOM     27  C   UNL     1       3.856   4.689  19.407  0.00  0.00    +0.000 A 
ATOM     28  C   UNL     1       3.379   5.996  19.253  0.00  0.00    +0.000 A 
ATOM     29  C   UNL     1       2.616   6.613  20.264  0.00  0.00    +0.000 A 
ENDBRANCH  19  20
ENDBRANCH   5  17
TORSDOF 2
ENDMDL
MODEL 5
REMARK VINA RESULT:      -7.8      4.066      8.798
REMARK  Name = 
REMARK  3 active torsions:
REMARK  status: ('A' for Active; 'I' for Inactive)
REMARK    1  A    between atoms: C_1  and  C_2
REMARK    2  A    between atoms: C_5  and  C_7
REMARK    3  A    between atoms: C_9  and  C_10
REMARK                            x       y       z     vdW  Elec       q    Type
REMARK                         _______ _______ _______ _____ _____    ______ ____
ROOT
ATOM      1  C   UNL     1       8.225   5.462  20.566  0.00  0.00    +0.000 C 
ATOM      2  C   UNL     1       7.328   5.892  19.410  0.00  0.00    +0.000 C 
ATOM      3  C   UNL     1       6.048   5.017  19.321  0.00  0.00    +0.000 C 
ATOM      4  N   UNL     1       5.038   5.488  18.341  0.00  0.00    +0.000 N 
ATOM      5  C   UNL     1       3.746   5.786  18.822  0.00  0.00    +0.000 C 
ATOM      6  O   UNL     1       3.414   5.580  19.982  0.00  0.00    +0.000 OA
ATOM      7  C   UNL     1       5.332   5.216  16.963  0.00  0.00    +0.000 A 
ATOM      8  C   UNL     1       4.437   4.471  16.184  0.00  0.00    +0.000 A 
ATOM      9  C   UNL     1       4.799   4.041  14.900  0.00  0.00    +0.000 A 
ATOM     10  C   UNL     1       6.052   4.349  14.372  0.00  0.00    +0.000 A 
ATOM     11  C   UNL     1       6.932   5.137  15.101  0.00  0.00    +0.000 A 
ATOM     12  C   UNL     1       6.562   5.570  16.378  0.00  0.00    +0.000 A 
ATOM     13  C   UNL     1       7.493   6.435  17.107  0.00  0.00    +0.000 C 
ATOM     14  O   UNL     1       7.650   7.609  16.801  0.00  0.00    +0.000 OA
ATOM     15  N   UNL     1       8.098   5.810  18.173  0.00  0.00    +0.000 N 
ATOM     16  H   UNL     1       8.332   4.845  17.969  0.00  0.00    +0.000 HD
ENDROOT
BRANCH   5  17
ATOM     17  C   UNL     1       2.814   6.518  17.906  0.00  0.00    +0.000 C 
ATOM     18  C   UNL     1       3.146   7.935  17.487  0.00  0.00    +0.000 C 
ATOM     19  C   UNL     1       1.889   7.653  18.280  0.00  0.00    +0.000 C 
BRANCH  19  20
ATOM     20  C   UNL     1       1.670   8.362  19.611  0.00  0.00    +0.000 A 
ATOM     21  C   UNL     1       1.448   7.570  20.759  0.00  0.00    +0.000 A 
ATOM     22  C   UNL     1       0.911   8.094  21.940  0.00  0.00    +0.000 A 
ATOM     23  C   UNL     1       0.473   9.417  21.970  0.00  0.00    +0.000 A 
ATOM     24  C   UNL     1      -0.347   9.870  23.009  0.00  0.00    +0.000 A 
ATOM     25  C   UNL     1      -1.114  11.015  22.819  0.00  0.00    +0.000 A 
ATOM     26  C   UNL     1      -0.849  11.856  21.741  0.00  0.00    +0.000 A 
ATOM     27  C   UNL     1       0.157  11.529  20.831  0.00  0.00    +0.000 A 
ATOM     28  C   UNL     1       0.733  10.253  20.865  0.00  0.00    +0.000 A 
ATOM     29  C   UNL     1       1.423   9.739  19.749  0.00  0.00    +0.000 A 
ENDBRANCH  19  20
ENDBRANCH   5  17
TORSDOF 2
ENDMDL
MODEL 6
REMARK VINA RESULT:      -7.7      4.994      7.460
REMARK  Name = 
REMARK  3 active torsions:
REMARK  status: ('A' for Active; 'I' for Inactive)
REMARK    1  A    between atoms: C_1  and  C_2
REMARK    2  A    between atoms: C_5  and  C_7
REMARK    3  A    between atoms: C_9  and  C_10
REMARK                            x       y       z     vdW  Elec       q    Type
REMARK                         _______ _______ _______ _____ _____    ______ ____
ROOT
ATOM      1  C   UNL     1      -6.737  12.397  24.319  0.00  0.00    +0.000 C 
ATOM      2  C   UNL     1      -5.569  13.239  23.817  0.00  0.00    +0.000 C 
ATOM      3  C   UNL     1      -4.215  12.742  24.393  0.00  0.00    +0.000 C 
ATOM      4  N   UNL     1      -3.014  13.390  23.808  0.00  0.00    +0.000 N 
ATOM      5  C   UNL     1      -2.057  12.560  23.187  0.00  0.00    +0.000 C 
ATOM      6  O   UNL     1      -2.140  11.339  23.201  0.00  0.00    +0.000 OA
ATOM      7  C   UNL     1      -2.735  14.719  24.271  0.00  0.00    +0.000 A 
ATOM      8  C   UNL     1      -1.504  15.013  24.873  0.00  0.00    +0.000 A 
ATOM      9  C   UNL     1      -1.295  16.252  25.494  0.00  0.00    +0.000 A 
ATOM     10  C   UNL     1      -2.303  17.215  25.523  0.00  0.00    +0.000 A 
ATOM     11  C   UNL     1      -3.509  16.969  24.882  0.00  0.00    +0.000 A 
ATOM     12  C   UNL     1      -3.709  15.735  24.256  0.00  0.00    +0.000 A 
ATOM     13  C   UNL     1      -4.975  15.519  23.551  0.00  0.00    +0.000 C 
ATOM     14  O   UNL     1      -5.209  16.054  22.475  0.00  0.00    +0.000 OA
ATOM     15  N   UNL     1      -5.810  14.630  24.187  0.00  0.00    +0.000 N 
ATOM     16  H   UNL     1      -5.784  14.734  25.194  0.00  0.00    +0.000 HD
ENDROOT
BRANCH   5  17
ATOM     17  C   UNL     1      -0.997  13.219  22.360  0.00  0.00    +0.000 C 
ATOM     18  C   UNL     1      -1.403  14.135  21.226  0.00  0.00    +0.000 C 
ATOM     19  C   UNL     1      -0.618  12.874  20.938  0.00  0.00    +0.000 C 
BRANCH  19  20
ATOM     20  C   UNL     1      -1.191  11.838  19.979  0.00  0.00    +0.000 A 
ATOM     21  C   UNL     1      -0.291  10.993  19.295  0.00  0.00    +0.000 A 
ATOM     22  C   UNL     1      -0.664  10.255  18.167  0.00  0.00    +0.000 A 
ATOM     23  C   UNL     1      -1.932  10.430  17.617  0.00  0.00    +0.000 A 
ATOM     24  C   UNL     1      -2.220   9.962  16.331  0.00  0.00    +0.000 A 
ATOM     25  C   UNL     1      -3.300  10.500  15.638  0.00  0.00    +0.000 A 
ATOM     26  C   UNL     1      -4.248  11.263  16.315  0.00  0.00    +0.000 A 
ATOM     27  C   UNL     1      -4.092  11.521  17.678  0.00  0.00    +0.000 A 
ATOM     28  C   UNL     1      -2.878  11.219  18.306  0.00  0.00    +0.000 A 
ATOM     29  C   UNL     1      -2.524  11.821  19.529  0.00  0.00    +0.000 A 
ENDBRANCH  19  20
ENDBRANCH   5  17
TORSDOF 2
ENDMDL
MODEL 7
REMARK VINA RESULT:      -7.6      3.870      6.143
REMARK  Name = 
REMARK  3 active torsions:
REMARK  status: ('A' for Active; 'I' for Inactive)
REMARK    1  A    between atoms: C_1  and  C_2
REMARK    2  A    between atoms: C_5  and  C_7
REMARK    3  A    between atoms: C_9  and  C_10
REMARK                            x       y       z     vdW  Elec       q    Type
REMARK                         _______ _______ _______ _____ _____    ______ ____
ROOT
ATOM      1  C   UNL     1      -6.782  12.382  24.102  0.00  0.00    +0.000 C 
ATOM      2  C   UNL     1      -5.594  13.241  23.683  0.00  0.00    +0.000 C 
ATOM      3  C   UNL     1      -4.275  12.759  24.346  0.00  0.00    +0.000 C 
ATOM      4  N   UNL     1      -3.047  13.426  23.845  0.00  0.00    +0.000 N 
ATOM      5  C   UNL     1      -2.039  12.612  23.287  0.00  0.00    +0.000 C 
ATOM      6  O   UNL     1      -2.106  11.390  23.289  0.00  0.00    +0.000 OA
ATOM      7  C   UNL     1      -2.817  14.757  24.332  0.00  0.00    +0.000 A 
ATOM      8  C   UNL     1      -1.633  15.064  25.016  0.00  0.00    +0.000 A 
ATOM      9  C   UNL     1      -1.483  16.302  25.656  0.00  0.00    +0.000 A 
ATOM     10  C   UNL     1      -2.504  17.251  25.622  0.00  0.00    +0.000 A 
ATOM     11  C   UNL     1      -3.661  16.993  24.899  0.00  0.00    +0.000 A 
ATOM     12  C   UNL     1      -3.802  15.759  24.256  0.00  0.00    +0.000 A 
ATOM     13  C   UNL     1      -5.015  15.531  23.467  0.00  0.00    +0.000 C 
ATOM     14  O   UNL     1      -5.183  16.068  22.380  0.00  0.00    +0.000 OA
ATOM     15  N   UNL     1      -5.878  14.627  24.041  0.00  0.00    +0.000 N 
ATOM     16  H   UNL     1      -5.921  14.726  25.049  0.00  0.00    +0.000 HD
ENDROOT
BRANCH   5  17
ATOM     17  C   UNL     1      -0.935  13.289  22.535  0.00  0.00    +0.000 C 
ATOM     18  C   UNL     1      -1.072  13.498  21.042  0.00  0.00    +0.000 C 
ATOM     19  C   UNL     1       0.045  12.636  21.589  0.00  0.00    +0.000 C 
BRANCH  19  20
ATOM     20  C   UNL     1       0.169  11.189  21.126  0.00  0.00    +0.000 A 
ATOM     21  C   UNL     1       0.532  10.214  22.079  0.00  0.00    +0.000 A 
ATOM     22  C   UNL     1       0.996   8.944  21.716  0.00  0.00    +0.000 A 
ATOM     23  C   UNL     1       1.217   8.651  20.372  0.00  0.00    +0.000 A 
ATOM     24  C   UNL     1       1.969   7.531  20.003  0.00  0.00    +0.000 A 
ATOM     25  C   UNL     1       2.541   7.483  18.736  0.00  0.00    +0.000 A 
ATOM     26  C   UNL     1       2.128   8.381  17.755  0.00  0.00    +0.000 A 
ATOM     27  C   UNL     1       1.173   9.354  18.056  0.00  0.00    +0.000 A 
ATOM     28  C   UNL     1       0.809   9.577  19.389  0.00  0.00    +0.000 A 
ATOM     29  C   UNL     1       0.193  10.782  19.780  0.00  0.00    +0.000 A 
ENDBRANCH  19  20
ENDBRANCH   5  17
TORSDOF 2
ENDMDL
MODEL 8
REMARK VINA RESULT:      -7.5      2.851      4.647
REMARK  Name = 
REMARK  3 active torsions:
REMARK  status: ('A' for Active; 'I' for Inactive)
REMARK    1  A    between atoms: C_1  and  C_2
REMARK    2  A    between atoms: C_5  and  C_7
REMARK    3  A    between atoms: C_9  and  C_10
REMARK                            x       y       z     vdW  Elec       q    Type
REMARK                         _______ _______ _______ _____ _____    ______ ____
ROOT
ATOM      1  C   UNL     1      -0.793  15.380  23.605  0.00  0.00    +0.000 C 
ATOM      2  C   UNL     1      -0.683  14.998  22.133  0.00  0.00    +0.000 C 
ATOM      3  C   UNL     1       0.100  13.670  21.942  0.00  0.00    +0.000 C 
ATOM      4  N   UNL     1       0.090  13.135  20.558  0.00  0.00    +0.000 N 
ATOM      5  C   UNL     1      -0.431  11.840  20.358  0.00  0.00    +0.000 C 
ATOM      6  O   UNL     1      -0.780  11.123  21.287  0.00  0.00    +0.000 OA
ATOM      7  C   UNL     1       0.962  13.795  19.628  0.00  0.00    +0.000 A 
ATOM      8  C   UNL     1       1.951  13.069  18.951  0.00  0.00    +0.000 A 
ATOM      9  C   UNL     1       2.923  13.732  18.189  0.00  0.00    +0.000 A 
ATOM     10  C   UNL     1       2.924  15.122  18.088  0.00  0.00    +0.000 A 
ATOM     11  C   UNL     1       1.919  15.858  18.700  0.00  0.00    +0.000 A 
ATOM     12  C   UNL     1       0.947  15.191  19.452  0.00  0.00    +0.000 A 
ATOM     13  C   UNL     1      -0.125  15.989  20.052  0.00  0.00    +0.000 C 
ATOM     14  O   UNL     1      -1.031  16.457  19.375  0.00  0.00    +0.000 OA
ATOM     15  N   UNL     1      -0.030  16.092  21.420  0.00  0.00    +0.000 N 
ATOM     16  H   UNL     1       0.930  16.188  21.730  0.00  0.00    +0.000 HD
ENDROOT
BRANCH   5  17
ATOM     17  C   UNL     1      -0.700  11.407  18.950  0.00  0.00    +0.000 C 
ATOM     18  C   UNL     1      -1.384  10.080  18.699  0.00  0.00    +0.000 C 
ATOM     19  C   UNL     1       0.019  10.320  18.187  0.00  0.00    +0.000 C 
BRANCH  19  20
ATOM     20  C   UNL     1       1.142   9.381  18.612  0.00  0.00    +0.000 A 
ATOM     21  C   UNL     1       2.132   9.053  17.662  0.00  0.00    +0.000 A 
ATOM     22  C   UNL     1       2.998   7.965  17.824  0.00  0.00    +0.000 A 
ATOM     23  C   UNL     1       2.822   7.100  18.902  0.00  0.00    +0.000 A 
ATOM     24  C   UNL     1       3.448   5.849  18.919  0.00  0.00    +0.000 A 
ATOM     25  C   UNL     1       2.945   4.848  19.744  0.00  0.00    +0.000 A 
ATOM     26  C   UNL     1       2.035   5.170  20.748  0.00  0.00    +0.000 A 
ATOM     27  C   UNL     1       1.596   6.486  20.897  0.00  0.00    +0.000 A 
ATOM     28  C   UNL     1       1.884   7.429  19.903  0.00  0.00    +0.000 A 
ATOM     29  C   UNL     1       1.138   8.619  19.794  0.00  0.00    +0.000 A 
ENDBRANCH  19  20
ENDBRANCH   5  17
TORSDOF 2
ENDMDL
MODEL 9
REMARK VINA RESULT:      -7.5      4.296      9.126
REMARK  Name = 
REMARK  3 active torsions:
REMARK  status: ('A' for Active; 'I' for Inactive)
REMARK    1  A    between atoms: C_1  and  C_2
REMARK    2  A    between atoms: C_5  and  C_7
REMARK    3  A    between atoms: C_9  and  C_10
REMARK                            x       y       z     vdW  Elec       q    Type
REMARK                         _______ _______ _______ _____ _____    ______ ____
ROOT
ATOM      1  C   UNL     1      -2.985   9.980  17.163  0.00  0.00    +0.000 C 
ATOM      2  C   UNL     1      -1.937  10.461  18.161  0.00  0.00    +0.000 C 
ATOM      3  C   UNL     1      -2.076  11.980  18.451  0.00  0.00    +0.000 C 
ATOM      4  N   UNL     1      -1.216  12.486  19.550  0.00  0.00    +0.000 N 
ATOM      5  C   UNL     1      -1.848  13.108  20.646  0.00  0.00    +0.000 C 
ATOM      6  O   UNL     1      -3.053  13.323  20.674  0.00  0.00    +0.000 OA
ATOM      7  C   UNL     1       0.171  12.664  19.225  0.00  0.00    +0.000 A 
ATOM      8  C   UNL     1       0.775  13.920  19.371  0.00  0.00    +0.000 A 
ATOM      9  C   UNL     1       2.068  14.149  18.881  0.00  0.00    +0.000 A 
ATOM     10  C   UNL     1       2.779  13.134  18.242  0.00  0.00    +0.000 A 
ATOM     11  C   UNL     1       2.225  11.865  18.138  0.00  0.00    +0.000 A 
ATOM     12  C   UNL     1       0.937  11.641  18.637  0.00  0.00    +0.000 A 
ATOM     13  C   UNL     1       0.395  10.282  18.551  0.00  0.00    +0.000 C 
ATOM     14  O   UNL     1       0.790   9.388  19.287  0.00  0.00    +0.000 OA
ATOM     15  N   UNL     1      -0.615  10.154  17.626  0.00  0.00    +0.000 N 
ATOM     16  H   UNL     1      -0.439  10.701  16.791  0.00  0.00    +0.000 HD
ENDROOT
BRANCH   5  17
ATOM     17  C   UNL     1      -1.025  13.365  21.870  0.00  0.00    +0.000 C 
ATOM     18  C   UNL     1      -0.922  12.295  22.936  0.00  0.00    +0.000 C 
ATOM     19  C   UNL     1      -1.541  13.636  23.265  0.00  0.00    +0.000 C 
BRANCH  19  20
ATOM     20  C   UNL     1      -2.965  13.691  23.806  0.00  0.00    +0.000 A 
ATOM     21  C   UNL     1      -3.571  12.483  24.212  0.00  0.00    +0.000 A 
ATOM     22  C   UNL     1      -4.952  12.361  24.401  0.00  0.00    +0.000 A 
ATOM     23  C   UNL     1      -5.787  13.428  24.076  0.00  0.00    +0.000 A 
ATOM     24  C   UNL     1      -7.167  13.236  23.948  0.00  0.00    +0.000 A 
ATOM     25  C   UNL     1      -7.917  14.158  23.223  0.00  0.00    +0.000 A 
ATOM     26  C   UNL     1      -7.365  15.393  22.891  0.00  0.00    +0.000 A 
ATOM     27  C   UNL     1      -6.048  15.688  23.248  0.00  0.00    +0.000 A 
ATOM     28  C   UNL     1      -5.215  14.669  23.725  0.00  0.00    +0.000 A 
ATOM     29  C   UNL     1      -3.813  14.808  23.701  0.00  0.00    +0.000 A 
ENDBRANCH  19  20
ENDBRANCH   5  17
TORSDOF 2
ENDMDL
