MODEL 1
REMARK VINA RESULT:      -9.1      0.000      0.000
REMARK  Name = 
REMARK  7 active torsions:
REMARK  status: ('A' for Active; 'I' for Inactive)
REMARK    1  A    between atoms: C_1  and  C_2
REMARK    2  A    between atoms: C_2  and  C_3
REMARK    3  A    between atoms: C_9  and  C_10
REMARK    4  A    between atoms: N_12  and  C_13
REMARK    5  A    between atoms: C_13  and  C_14
REMARK    6  A    between atoms: C_14  and  C_15
REMARK    7  A    between atoms: C_14  and  N_22
REMARK                            x       y       z     vdW  Elec       q    Type
REMARK                         _______ _______ _______ _____ _____    ______ ____
ROOT
ATOM      1  C   UNL     1       2.070   6.680  20.331  0.00  0.00    +0.000 C 
ATOM      2  O   UNL     1       1.503   5.756  20.906  0.00  0.00    +0.000 OA
ATOM      3  N   UNL     1       3.261   6.509  19.653  0.00  0.00    +0.000 N 
ATOM      4  H   UNL     1       3.749   7.275  19.219  0.00  0.00    +0.000 HD
ENDROOT
BRANCH   1  13
ATOM      5  C   UNL     1       0.607  13.076  20.842  0.00  0.00    +0.000 C 
ATOM      6  C   UNL     1      -0.356  11.892  20.908  0.00  0.00    +0.000 C 
ATOM      7  C   UNL     1      -1.615  12.150  20.081  0.00  0.00    +0.000 C 
ATOM      8  C   UNL     1      -0.741  11.616  22.384  0.00  0.00    +0.000 C 
ATOM      9  O   UNL     1      -1.326  12.369  23.146  0.00  0.00    +0.000 OA
ATOM     10  N   UNL     1      -0.292  10.340  22.703  0.00  0.00    +0.000 N 
ATOM     11  C   UNL     1       0.328   9.735  21.623  0.00  0.00    +0.000 A 
ATOM     12  C   UNL     1       0.887   8.472  21.576  0.00  0.00    +0.000 A 
ATOM     13  C   UNL     1       1.465   8.051  20.367  0.00  0.00    +0.000 A 
ATOM     14  C   UNL     1       1.457   8.918  19.250  0.00  0.00    +0.000 A 
ATOM     15  C   UNL     1       0.884  10.197  19.327  0.00  0.00    +0.000 A 
ATOM     16  C   UNL     1       0.322  10.594  20.527  0.00  0.00    +0.000 A 
ATOM     17  H   UNL     1      -0.424   9.931  23.616  0.00  0.00    +0.000 HD
ENDBRANCH   1  13
BRANCH   3  18
ATOM     18  C   UNL     1       3.901   5.196  19.629  0.00  0.00    +0.000 C 
BRANCH  18  19
ATOM     19  C   UNL     1       3.726   4.377  18.300  0.00  0.00    +0.000 C 
BRANCH  19  20
ATOM     20  C   UNL     1       4.901   4.511  17.319  0.00  0.00    +0.000 A 
ATOM     21  C   UNL     1       4.760   4.119  15.971  0.00  0.00    +0.000 A 
ATOM     22  C   UNL     1       5.793   4.290  15.041  0.00  0.00    +0.000 A 
ATOM     23  C   UNL     1       6.982   4.897  15.419  0.00  0.00    +0.000 A 
ATOM     24  C   UNL     1       7.166   5.263  16.748  0.00  0.00    +0.000 A 
ATOM     25  C   UNL     1       6.160   5.029  17.697  0.00  0.00    +0.000 A 
ATOM     26 CL   UNL     1       6.612   5.317  19.343  0.00  0.00    +0.000 Cl
ENDBRANCH  19  20
BRANCH  19  27
ATOM     27  N   UNL     1       3.325   2.992  18.657  0.00  0.00    +0.000 NA
ATOM     28  C   UNL     1       2.236   2.374  17.904  0.00  0.00    +0.000 C 
ATOM     29  C   UNL     1       1.013   2.528  18.784  0.00  0.00    +0.000 C 
ATOM     30  C   UNL     1       1.564   2.441  20.195  0.00  0.00    +0.000 C 
ATOM     31  C   UNL     1       3.062   2.697  20.063  0.00  0.00    +0.000 C 
ENDBRANCH  19  27
ENDBRANCH  18  19
ENDBRANCH   3  18
TORSDOF 5
ENDMDL
MODEL 2
REMARK VINA RESULT:      -9.0      1.667      2.106
REMARK  Name = 
REMARK  7 active torsions:
REMARK  status: ('A' for Active; 'I' for Inactive)
REMARK    1  A    between atoms: C_1  and  C_2
REMARK    2  A    between atoms: C_2  and  C_3
REMARK    3  A    between atoms: C_9  and  C_10
REMARK    4  A    between atoms: N_12  and  C_13
REMARK    5  A    between atoms: C_13  and  C_14
REMARK    6  A    between atoms: C_14  and  C_15
REMARK    7  A    between atoms: C_14  and  N_22
REMARK                            x       y       z     vdW  Elec       q    Type
REMARK                         _______ _______ _______ _____ _____    ______ ____
ROOT
ATOM      1  C   UNL     1       1.880   6.917  20.447  0.00  0.00    +0.000 C 
ATOM      2  O   UNL     1       1.284   5.972  20.955  0.00  0.00    +0.000 OA
ATOM      3  N   UNL     1       3.075   6.762  19.771  0.00  0.00    +0.000 N 
ATOM      4  H   UNL     1       3.585   7.541  19.393  0.00  0.00    +0.000 HD
ENDROOT
BRANCH   1  13
ATOM      5  C   UNL     1      -1.769  12.387  20.726  0.00  0.00    +0.000 C 
ATOM      6  C   UNL     1      -0.269  12.281  20.454  0.00  0.00    +0.000 C 
ATOM      7  C   UNL     1       0.517  13.325  21.245  0.00  0.00    +0.000 C 
ATOM      8  C   UNL     1      -0.001  12.454  18.937  0.00  0.00    +0.000 C 
ATOM      9  O   UNL     1      -0.240  13.439  18.255  0.00  0.00    +0.000 OA
ATOM     10  N   UNL     1       0.563  11.273  18.473  0.00  0.00    +0.000 N 
ATOM     11  C   UNL     1       0.715  10.347  19.491  0.00  0.00    +0.000 A 
ATOM     12  C   UNL     1       1.243   9.075  19.396  0.00  0.00    +0.000 A 
ATOM     13  C   UNL     1       1.308   8.298  20.565  0.00  0.00    +0.000 A 
ATOM     14  C   UNL     1       0.839   8.834  21.786  0.00  0.00    +0.000 A 
ATOM     15  C   UNL     1       0.304  10.130  21.853  0.00  0.00    +0.000 A 
ATOM     16  C   UNL     1       0.247  10.878  20.691  0.00  0.00    +0.000 A 
ATOM     17  H   UNL     1       0.828  11.140  17.508  0.00  0.00    +0.000 HD
ENDBRANCH   1  13
BRANCH   3  18
ATOM     18  C   UNL     1       3.684   5.438  19.669  0.00  0.00    +0.000 C 
BRANCH  18  19
ATOM     19  C   UNL     1       3.320   4.619  18.378  0.00  0.00    +0.000 C 
BRANCH  19  20
ATOM     20  C   UNL     1       4.330   4.775  17.229  0.00  0.00    +0.000 A 
ATOM     21  C   UNL     1       5.074   3.667  16.771  0.00  0.00    +0.000 A 
ATOM     22  C   UNL     1       5.953   3.766  15.686  0.00  0.00    +0.000 A 
ATOM     23  C   UNL     1       6.083   4.965  14.998  0.00  0.00    +0.000 A 
ATOM     24  C   UNL     1       5.391   6.085  15.446  0.00  0.00    +0.000 A 
ATOM     25  C   UNL     1       4.563   6.006  16.576  0.00  0.00    +0.000 A 
ATOM     26 CL   UNL     1       3.953   7.519  17.156  0.00  0.00    +0.000 Cl
ENDBRANCH  19  20
BRANCH  19  27
ATOM     27  N   UNL     1       3.001   3.227  18.784  0.00  0.00    +0.000 NA
ATOM     28  C   UNL     1       1.808   2.601  18.218  0.00  0.00    +0.000 C 
ATOM     29  C   UNL     1       0.748   2.733  19.291  0.00  0.00    +0.000 C 
ATOM     30  C   UNL     1       1.527   2.644  20.590  0.00  0.00    +0.000 C 
ATOM     31  C   UNL     1       2.979   2.919  20.212  0.00  0.00    +0.000 C 
ENDBRANCH  19  27
ENDBRANCH  18  19
ENDBRANCH   3  18
TORSDOF 5
ENDMDL
MODEL 3
REMARK VINA RESULT:      -9.0      1.392      1.867
REMARK  Name = 
REMARK  7 active torsions:
REMARK  status: ('A' for Active; 'I' for Inactive)
REMARK    1  A    between atoms: C_1  and  C_2
REMARK    2  A    between atoms: C_2  and  C_3
REMARK    3  A    between atoms: C_9  and  C_10
REMARK    4  A    between atoms: N_12  and  C_13
REMARK    5  A    between atoms: C_13  and  C_14
REMARK    6  A    between atoms: C_14  and  C_15
REMARK    7  A    between atoms: C_14  and  N_22
REMARK                            x       y       z     vdW  Elec       q    Type
REMARK                         _______ _______ _______ _____ _____    ______ ____
ROOT
ATOM      1  C   UNL     1       1.983   6.683  20.371  0.00  0.00    +0.000 C 
ATOM      2  O   UNL     1       1.483   5.746  20.987  0.00  0.00    +0.000 OA
ATOM      3  N   UNL     1       3.150   6.552  19.644  0.00  0.00    +0.000 N 
ATOM      4  H   UNL     1       3.583   7.329  19.176  0.00  0.00    +0.000 HD
ENDROOT
BRANCH   1  13
ATOM      5  C   UNL     1      -1.899  11.977  19.907  0.00  0.00    +0.000 C 
ATOM      6  C   UNL     1      -0.385  11.947  20.113  0.00  0.00    +0.000 C 
ATOM      7  C   UNL     1       0.052  12.941  21.188  0.00  0.00    +0.000 C 
ATOM      8  C   UNL     1       0.329  12.268  18.775  0.00  0.00    +0.000 C 
ATOM      9  O   UNL     1       0.253  13.302  18.130  0.00  0.00    +0.000 OA
ATOM     10  N   UNL     1       1.080  11.154  18.423  0.00  0.00    +0.000 N 
ATOM     11  C   UNL     1       0.964  10.145  19.363  0.00  0.00    +0.000 A 
ATOM     12  C   UNL     1       1.573   8.905  19.341  0.00  0.00    +0.000 A 
ATOM     13  C   UNL     1       1.319   8.026  20.409  0.00  0.00    +0.000 A 
ATOM     14  C   UNL     1       0.463   8.432  21.458  0.00  0.00    +0.000 A 
ATOM     15  C   UNL     1      -0.144   9.698  21.452  0.00  0.00    +0.000 A 
ATOM     16  C   UNL     1       0.117  10.547  20.392  0.00  0.00    +0.000 A 
ATOM     17  H   UNL     1       1.638  11.120  17.582  0.00  0.00    +0.000 HD
ENDBRANCH   1  13
BRANCH   3  18
ATOM     18  C   UNL     1       3.847   5.268  19.616  0.00  0.00    +0.000 C 
BRANCH  18  19
ATOM     19  C   UNL     1       3.696   4.441  18.288  0.00  0.00    +0.000 C 
BRANCH  19  20
ATOM     20  C   UNL     1       4.879   4.588  17.318  0.00  0.00    +0.000 A 
ATOM     21  C   UNL     1       4.746   4.218  15.962  0.00  0.00    +0.000 A 
ATOM     22  C   UNL     1       5.786   4.402  15.043  0.00  0.00    +0.000 A 
ATOM     23  C   UNL     1       6.974   4.999  15.440  0.00  0.00    +0.000 A 
ATOM     24  C   UNL     1       7.150   5.343  16.776  0.00  0.00    +0.000 A 
ATOM     25  C   UNL     1       6.136   5.096  17.714  0.00  0.00    +0.000 A 
ATOM     26 CL   UNL     1       6.576   5.356  19.367  0.00  0.00    +0.000 Cl
ENDBRANCH  19  20
BRANCH  19  27
ATOM     27  N   UNL     1       3.312   3.051  18.647  0.00  0.00    +0.000 NA
ATOM     28  C   UNL     1       2.212   2.429  17.914  0.00  0.00    +0.000 C 
ATOM     29  C   UNL     1       1.007   2.570  18.819  0.00  0.00    +0.000 C 
ATOM     30  C   UNL     1       1.586   2.482  20.218  0.00  0.00    +0.000 C 
ATOM     31  C   UNL     1       3.080   2.748  20.058  0.00  0.00    +0.000 C 
ENDBRANCH  19  27
ENDBRANCH  18  19
ENDBRANCH   3  18
TORSDOF 5
ENDMDL
MODEL 4
REMARK VINA RESULT:      -9.0      1.061      1.102
REMARK  Name = 
REMARK  7 active torsions:
REMARK  status: ('A' for Active; 'I' for Inactive)
REMARK    1  A    between atoms: C_1  and  C_2
REMARK    2  A    between atoms: C_2  and  C_3
REMARK    3  A    between atoms: C_9  and  C_10
REMARK    4  A    between atoms: N_12  and  C_13
REMARK    5  A    between atoms: C_13  and  C_14
REMARK    6  A    between atoms: C_14  and  C_15
REMARK    7  A    between atoms: C_14  and  N_22
REMARK                            x       y       z     vdW  Elec       q    Type
REMARK                         _______ _______ _______ _____ _____    ______ ____
ROOT
ATOM      1  C   UNL     1       1.795   6.883  20.466  0.00  0.00    +0.000 C 
ATOM      2  O   UNL     1       1.213   5.931  20.979  0.00  0.00    +0.000 OA
ATOM      3  N   UNL     1       2.993   6.743  19.794  0.00  0.00    +0.000 N 
ATOM      4  H   UNL     1       3.492   7.528  19.413  0.00  0.00    +0.000 HD
ENDROOT
BRANCH   1  13
ATOM      5  C   UNL     1       0.345  13.229  21.431  0.00  0.00    +0.000 C 
ATOM      6  C   UNL     1      -0.630  12.059  21.311  0.00  0.00    +0.000 C 
ATOM      7  C   UNL     1      -1.813  12.409  20.410  0.00  0.00    +0.000 C 
ATOM      8  C   UNL     1      -1.139  11.657  22.719  0.00  0.00    +0.000 C 
ATOM      9  O   UNL     1      -1.780  12.349  23.495  0.00  0.00    +0.000 OA
ATOM     10  N   UNL     1      -0.728  10.352  22.957  0.00  0.00    +0.000 N 
ATOM     11  C   UNL     1      -0.025   9.836  21.881  0.00  0.00    +0.000 A 
ATOM     12  C   UNL     1       0.526   8.574  21.767  0.00  0.00    +0.000 A 
ATOM     13  C   UNL     1       1.199   8.254  20.576  0.00  0.00    +0.000 A 
ATOM     14  C   UNL     1       1.291   9.217  19.545  0.00  0.00    +0.000 A 
ATOM     15  C   UNL     1       0.724  10.493  19.691  0.00  0.00    +0.000 A 
ATOM     16  C   UNL     1       0.067  10.790  20.871  0.00  0.00    +0.000 A 
ATOM     17  H   UNL     1      -0.939   9.864  23.815  0.00  0.00    +0.000 HD
ENDBRANCH   1  13
BRANCH   3  18
ATOM     18  C   UNL     1       3.623   5.428  19.701  0.00  0.00    +0.000 C 
BRANCH  18  19
ATOM     19  C   UNL     1       3.279   4.599  18.412  0.00  0.00    +0.000 C 
BRANCH  19  20
ATOM     20  C   UNL     1       4.288   4.771  17.264  0.00  0.00    +0.000 A 
ATOM     21  C   UNL     1       5.034   3.671  16.792  0.00  0.00    +0.000 A 
ATOM     22  C   UNL     1       5.911   3.786  15.707  0.00  0.00    +0.000 A 
ATOM     23  C   UNL     1       6.038   4.994  15.034  0.00  0.00    +0.000 A 
ATOM     24  C   UNL     1       5.343   6.106  15.496  0.00  0.00    +0.000 A 
ATOM     25  C   UNL     1       4.516   6.011  16.626  0.00  0.00    +0.000 A 
ATOM     26 CL   UNL     1       3.902   7.514  17.224  0.00  0.00    +0.000 Cl
ENDBRANCH  19  20
BRANCH  19  27
ATOM     27  N   UNL     1       2.987   3.201  18.822  0.00  0.00    +0.000 NA
ATOM     28  C   UNL     1       1.813   2.546  18.250  0.00  0.00    +0.000 C 
ATOM     29  C   UNL     1       0.742   2.659  19.314  0.00  0.00    +0.000 C 
ATOM     30  C   UNL     1       1.514   2.593  20.619  0.00  0.00    +0.000 C 
ATOM     31  C   UNL     1       2.962   2.899  20.251  0.00  0.00    +0.000 C 
ENDBRANCH  19  27
ENDBRANCH  18  19
ENDBRANCH   3  18
TORSDOF 5
ENDMDL
MODEL 5
REMARK VINA RESULT:      -8.9      2.353      4.408
REMARK  Name = 
REMARK  7 active torsions:
REMARK  status: ('A' for Active; 'I' for Inactive)
REMARK    1  A    between atoms: C_1  and  C_2
REMARK    2  A    between atoms: C_2  and  C_3
REMARK    3  A    between atoms: C_9  and  C_10
REMARK    4  A    between atoms: N_12  and  C_13
REMARK    5  A    between atoms: C_13  and  C_14
REMARK    6  A    between atoms: C_14  and  C_15
REMARK    7  A    between atoms: C_14  and  N_22
REMARK                            x       y       z     vdW  Elec       q    Type
REMARK                         _______ _______ _______ _____ _____    ______ ____
ROOT
ATOM      1  C   UNL     1       1.815   9.035  18.407  0.00  0.00    +0.000 C 
ATOM      2  O   UNL     1       2.090   9.379  17.261  0.00  0.00    +0.000 OA
ATOM      3  N   UNL     1       2.244   7.837  18.944  0.00  0.00    +0.000 N 
ATOM      4  H   UNL     1       1.982   7.535  19.867  0.00  0.00    +0.000 HD
ENDROOT
BRANCH   1  13
ATOM      5  C   UNL     1      -2.873  12.482  21.481  0.00  0.00    +0.000 C 
ATOM      6  C   UNL     1      -1.386  12.817  21.380  0.00  0.00    +0.000 C 
ATOM      7  C   UNL     1      -0.824  13.271  22.726  0.00  0.00    +0.000 C 
ATOM      8  C   UNL     1      -1.172  13.925  20.317  0.00  0.00    +0.000 C 
ATOM      9  O   UNL     1      -1.613  15.063  20.341  0.00  0.00    +0.000 OA
ATOM     10  N   UNL     1      -0.382  13.390  19.308  0.00  0.00    +0.000 N 
ATOM     11  C   UNL     1      -0.036  12.076  19.574  0.00  0.00    +0.000 A 
ATOM     12  C   UNL     1       0.741  11.240  18.797  0.00  0.00    +0.000 A 
ATOM     13  C   UNL     1       0.973   9.933  19.262  0.00  0.00    +0.000 A 
ATOM     14  C   UNL     1       0.414   9.522  20.494  0.00  0.00    +0.000 A 
ATOM     15  C   UNL     1      -0.374  10.394  21.261  0.00  0.00    +0.000 A 
ATOM     16  C   UNL     1      -0.592  11.674  20.786  0.00  0.00    +0.000 A 
ATOM     17  H   UNL     1      -0.104  13.923  18.496  0.00  0.00    +0.000 HD
ENDBRANCH   1  13
BRANCH   3  18
ATOM     18  C   UNL     1       3.033   6.918  18.128  0.00  0.00    +0.000 C 
BRANCH  18  19
ATOM     19  C   UNL     1       3.787   5.785  18.914  0.00  0.00    +0.000 C 
BRANCH  19  20
ATOM     20  C   UNL     1       2.869   4.681  19.461  0.00  0.00    +0.000 A 
ATOM     21  C   UNL     1       2.617   4.577  20.846  0.00  0.00    +0.000 A 
ATOM     22  C   UNL     1       1.735   3.622  21.365  0.00  0.00    +0.000 A 
ATOM     23  C   UNL     1       1.045   2.770  20.514  0.00  0.00    +0.000 A 
ATOM     24  C   UNL     1       1.296   2.824  19.147  0.00  0.00    +0.000 A 
ATOM     25  C   UNL     1       2.232   3.733  18.630  0.00  0.00    +0.000 A 
ATOM     26 CL   UNL     1       2.615   3.530  16.955  0.00  0.00    +0.000 Cl
ENDBRANCH  19  20
BRANCH  19  27
ATOM     27  N   UNL     1       4.937   5.332  18.089  0.00  0.00    +0.000 NA
ATOM     28  C   UNL     1       6.054   4.677  18.765  0.00  0.00    +0.000 C 
ATOM     29  C   UNL     1       7.106   5.755  18.922  0.00  0.00    +0.000 C 
ATOM     30  C   UNL     1       6.920   6.629  17.695  0.00  0.00    +0.000 C 
ATOM     31  C   UNL     1       5.532   6.290  17.161  0.00  0.00    +0.000 C 
ENDBRANCH  19  27
ENDBRANCH  18  19
ENDBRANCH   3  18
TORSDOF 5
ENDMDL
MODEL 6
REMARK VINA RESULT:      -8.9      2.072      4.101
REMARK  Name = 
REMARK  7 active torsions:
REMARK  status: ('A' for Active; 'I' for Inactive)
REMARK    1  A    between atoms: C_1  and  C_2
REMARK    2  A    between atoms: C_2  and  C_3
REMARK    3  A    between atoms: C_9  and  C_10
REMARK    4  A    between atoms: N_12  and  C_13
REMARK    5  A    between atoms: C_13  and  C_14
REMARK    6  A    between atoms: C_14  and  C_15
REMARK    7  A    between atoms: C_14  and  N_22
REMARK                            x       y       z     vdW  Elec       q    Type
REMARK                         _______ _______ _______ _____ _____    ______ ____
ROOT
ATOM      1  C   UNL     1       2.002   8.982  18.228  0.00  0.00    +0.000 C 
ATOM      2  O   UNL     1       2.364   9.258  17.088  0.00  0.00    +0.000 OA
ATOM      3  N   UNL     1       2.286   7.767  18.821  0.00  0.00    +0.000 N 
ATOM      4  H   UNL     1       1.952   7.524  19.738  0.00  0.00    +0.000 HD
ENDROOT
BRANCH   1  13
ATOM      5  C   UNL     1      -0.325  13.643  22.250  0.00  0.00    +0.000 C 
ATOM      6  C   UNL     1      -1.111  12.528  21.563  0.00  0.00    +0.000 C 
ATOM      7  C   UNL     1      -2.415  13.053  20.963  0.00  0.00    +0.000 C 
ATOM      8  C   UNL     1      -1.415  11.400  22.582  0.00  0.00    +0.000 C 
ATOM      9  O   UNL     1      -2.080  11.489  23.602  0.00  0.00    +0.000 OA
ATOM     10  N   UNL     1      -0.785  10.247  22.132  0.00  0.00    +0.000 N 
ATOM     11  C   UNL     1      -0.115  10.466  20.940  0.00  0.00    +0.000 A 
ATOM     12  C   UNL     1       0.613   9.549  20.207  0.00  0.00    +0.000 A 
ATOM     13  C   UNL     1       1.213   9.986  19.013  0.00  0.00    +0.000 A 
ATOM     14  C   UNL     1       1.054  11.330  18.604  0.00  0.00    +0.000 A 
ATOM     15  C   UNL     1       0.311  12.241  19.371  0.00  0.00    +0.000 A 
ATOM     16  C   UNL     1      -0.270  11.792  20.543  0.00  0.00    +0.000 A 
ATOM     17  H   UNL     1      -0.835   9.371  22.630  0.00  0.00    +0.000 HD
ENDBRANCH   1  13
BRANCH   3  18
ATOM     18  C   UNL     1       3.019   6.749  18.073  0.00  0.00    +0.000 C 
BRANCH  18  19
ATOM     19  C   UNL     1       3.800   5.698  18.941  0.00  0.00    +0.000 C 
BRANCH  19  20
ATOM     20  C   UNL     1       2.912   4.600  19.549  0.00  0.00    +0.000 A 
ATOM     21  C   UNL     1       2.704   4.534  20.943  0.00  0.00    +0.000 A 
ATOM     22  C   UNL     1       1.849   3.585  21.517  0.00  0.00    +0.000 A 
ATOM     23  C   UNL     1       1.145   2.700  20.713  0.00  0.00    +0.000 A 
ATOM     24  C   UNL     1       1.355   2.716  19.338  0.00  0.00    +0.000 A 
ATOM     25  C   UNL     1       2.263   3.619  18.766  0.00  0.00    +0.000 A 
ATOM     26 CL   UNL     1       2.598   3.371  17.087  0.00  0.00    +0.000 Cl
ENDBRANCH  19  20
BRANCH  19  27
ATOM     27  N   UNL     1       4.976   5.232  18.162  0.00  0.00    +0.000 NA
ATOM     28  C   UNL     1       6.077   4.601  18.886  0.00  0.00    +0.000 C 
ATOM     29  C   UNL     1       7.117   5.688  19.048  0.00  0.00    +0.000 C 
ATOM     30  C   UNL     1       6.964   6.532  17.796  0.00  0.00    +0.000 C 
ATOM     31  C   UNL     1       5.594   6.172  17.229  0.00  0.00    +0.000 C 
ENDBRANCH  19  27
ENDBRANCH  18  19
ENDBRANCH   3  18
TORSDOF 5
ENDMDL
MODEL 7
REMARK VINA RESULT:      -8.7      2.373      4.244
REMARK  Name = 
REMARK  7 active torsions:
REMARK  status: ('A' for Active; 'I' for Inactive)
REMARK    1  A    between atoms: C_1  and  C_2
REMARK    2  A    between atoms: C_2  and  C_3
REMARK    3  A    between atoms: C_9  and  C_10
REMARK    4  A    between atoms: N_12  and  C_13
REMARK    5  A    between atoms: C_13  and  C_14
REMARK    6  A    between atoms: C_14  and  C_15
REMARK    7  A    between atoms: C_14  and  N_22
REMARK                            x       y       z     vdW  Elec       q    Type
REMARK                         _______ _______ _______ _____ _____    ______ ____
ROOT
ATOM      1  C   UNL     1       1.935   9.118  18.258  0.00  0.00    +0.000 C 
ATOM      2  O   UNL     1       2.216   9.523  17.134  0.00  0.00    +0.000 OA
ATOM      3  N   UNL     1       2.388   7.906  18.742  0.00  0.00    +0.000 N 
ATOM      4  H   UNL     1       2.121   7.554  19.646  0.00  0.00    +0.000 HD
ENDROOT
BRANCH   1  13
ATOM      5  C   UNL     1      -2.868  12.356  21.381  0.00  0.00    +0.000 C 
ATOM      6  C   UNL     1      -1.375  12.680  21.378  0.00  0.00    +0.000 C 
ATOM      7  C   UNL     1      -0.875  13.016  22.782  0.00  0.00    +0.000 C 
ATOM      8  C   UNL     1      -1.102  13.869  20.421  0.00  0.00    +0.000 C 
ATOM      9  O   UNL     1      -1.535  15.007  20.519  0.00  0.00    +0.000 OA
ATOM     10  N   UNL     1      -0.268  13.410  19.410  0.00  0.00    +0.000 N 
ATOM     11  C   UNL     1       0.054  12.075  19.583  0.00  0.00    +0.000 A 
ATOM     12  C   UNL     1       0.861  11.295  18.777  0.00  0.00    +0.000 A 
ATOM     13  C   UNL     1       1.060   9.953  19.143  0.00  0.00    +0.000 A 
ATOM     14  C   UNL     1       0.440   9.449  20.309  0.00  0.00    +0.000 A 
ATOM     15  C   UNL     1      -0.377  10.264  21.108  0.00  0.00    +0.000 A 
ATOM     16  C   UNL     1      -0.562  11.581  20.730  0.00  0.00    +0.000 A 
ATOM     17  H   UNL     1       0.053  14.004  18.659  0.00  0.00    +0.000 HD
ENDBRANCH   1  13
BRANCH   3  18
ATOM     18  C   UNL     1       3.210   7.047  17.894  0.00  0.00    +0.000 C 
BRANCH  18  19
ATOM     19  C   UNL     1       3.761   5.744  18.577  0.00  0.00    +0.000 C 
BRANCH  19  20
ATOM     20  C   UNL     1       2.707   4.642  18.772  0.00  0.00    +0.000 A 
ATOM     21  C   UNL     1       2.595   3.583  17.847  0.00  0.00    +0.000 A 
ATOM     22  C   UNL     1       1.688   2.533  18.034  0.00  0.00    +0.000 A 
ATOM     23  C   UNL     1       0.896   2.487  19.173  0.00  0.00    +0.000 A 
ATOM     24  C   UNL     1       0.958   3.532  20.087  0.00  0.00    +0.000 A 
ATOM     25  C   UNL     1       1.816   4.621  19.867  0.00  0.00    +0.000 A 
ATOM     26 CL   UNL     1       1.619   5.952  20.957  0.00  0.00    +0.000 Cl
ENDBRANCH  19  20
BRANCH  19  27
ATOM     27  N   UNL     1       5.006   5.342  17.873  0.00  0.00    +0.000 NA
ATOM     28  C   UNL     1       6.045   4.662  18.644  0.00  0.00    +0.000 C 
ATOM     29  C   UNL     1       7.056   5.737  18.978  0.00  0.00    +0.000 C 
ATOM     30  C   UNL     1       7.005   6.671  17.783  0.00  0.00    +0.000 C 
ATOM     31  C   UNL     1       5.695   6.350  17.071  0.00  0.00    +0.000 C 
ENDBRANCH  19  27
ENDBRANCH  18  19
ENDBRANCH   3  18
TORSDOF 5
ENDMDL
MODEL 8
REMARK VINA RESULT:      -8.7      1.169      1.304
REMARK  Name = 
REMARK  7 active torsions:
REMARK  status: ('A' for Active; 'I' for Inactive)
REMARK    1  A    between atoms: C_1  and  C_2
REMARK    2  A    between atoms: C_2  and  C_3
REMARK    3  A    between atoms: C_9  and  C_10
REMARK    4  A    between atoms: N_12  and  C_13
REMARK    5  A    between atoms: C_13  and  C_14
REMARK    6  A    between atoms: C_14  and  C_15
REMARK    7  A    between atoms: C_14  and  N_22
REMARK                            x       y       z     vdW  Elec       q    Type
REMARK                         _______ _______ _______ _____ _____    ______ ____
ROOT
ATOM      1  C   UNL     1       2.827   7.421  18.784  0.00  0.00    +0.000 C 
ATOM      2  O   UNL     1       3.629   7.419  17.855  0.00  0.00    +0.000 OA
ATOM      3  N   UNL     1       2.815   6.437  19.754  0.00  0.00    +0.000 N 
ATOM      4  H   UNL     1       2.130   6.415  20.489  0.00  0.00    +0.000 HD
ENDROOT
BRANCH   1  13
ATOM      5  C   UNL     1      -0.597  13.016  19.323  0.00  0.00    +0.000 C 
ATOM      6  C   UNL     1      -1.089  11.593  19.588  0.00  0.00    +0.000 C 
ATOM      7  C   UNL     1      -2.468  11.356  18.975  0.00  0.00    +0.000 C 
ATOM      8  C   UNL     1      -1.138  11.336  21.116  0.00  0.00    +0.000 C 
ATOM      9  O   UNL     1      -1.823  11.921  21.940  0.00  0.00    +0.000 OA
ATOM     10  N   UNL     1      -0.247  10.308  21.396  0.00  0.00    +0.000 N 
ATOM     11  C   UNL     1       0.374   9.845  20.249  0.00  0.00    +0.000 A 
ATOM     12  C   UNL     1       1.309   8.833  20.151  0.00  0.00    +0.000 A 
ATOM     13  C   UNL     1       1.811   8.519  18.876  0.00  0.00    +0.000 A 
ATOM     14  C   UNL     1       1.349   9.237  17.748  0.00  0.00    +0.000 A 
ATOM     15  C   UNL     1       0.400  10.262  17.879  0.00  0.00    +0.000 A 
ATOM     16  C   UNL     1      -0.080  10.557  19.142  0.00  0.00    +0.000 A 
ATOM     17  H   UNL     1      -0.099   9.958  22.332  0.00  0.00    +0.000 HD
ENDBRANCH   1  13
BRANCH   3  18
ATOM     18  C   UNL     1       3.764   5.330  19.676  0.00  0.00    +0.000 C 
BRANCH  18  19
ATOM     19  C   UNL     1       3.609   4.387  18.429  0.00  0.00    +0.000 C 
BRANCH  19  20
ATOM     20  C   UNL     1       4.808   4.412  17.468  0.00  0.00    +0.000 A 
ATOM     21  C   UNL     1       4.680   3.934  16.146  0.00  0.00    +0.000 A 
ATOM     22  C   UNL     1       5.737   4.005  15.231  0.00  0.00    +0.000 A 
ATOM     23  C   UNL     1       6.940   4.593  15.595  0.00  0.00    +0.000 A 
ATOM     24  C   UNL     1       7.111   5.041  16.900  0.00  0.00    +0.000 A 
ATOM     25  C   UNL     1       6.077   4.909  17.840  0.00  0.00    +0.000 A 
ATOM     26 CL   UNL     1       6.506   5.291  19.472  0.00  0.00    +0.000 Cl
ENDBRANCH  19  20
BRANCH  19  27
ATOM     27  N   UNL     1       3.183   3.047  18.910  0.00  0.00    +0.000 NA
ATOM     28  C   UNL     1       2.081   2.385  18.216  0.00  0.00    +0.000 C 
ATOM     29  C   UNL     1       0.863   2.640  19.078  0.00  0.00    +0.000 C 
ATOM     30  C   UNL     1       1.414   2.671  20.491  0.00  0.00    +0.000 C 
ATOM     31  C   UNL     1       2.917   2.885  20.337  0.00  0.00    +0.000 C 
ENDBRANCH  19  27
ENDBRANCH  18  19
ENDBRANCH   3  18
TORSDOF 5
ENDMDL
MODEL 9
REMARK VINA RESULT:      -8.7      3.245      8.956
REMARK  Name = 
REMARK  7 active torsions:
REMARK  status: ('A' for Active; 'I' for Inactive)
REMARK    1  A    between atoms: C_1  and  C_2
REMARK    2  A    between atoms: C_2  and  C_3
REMARK    3  A    between atoms: C_9  and  C_10
REMARK    4  A    between atoms: N_12  and  C_13
REMARK    5  A    between atoms: C_13  and  C_14
REMARK    6  A    between atoms: C_14  and  C_15
REMARK    7  A    between atoms: C_14  and  N_22
REMARK                            x       y       z     vdW  Elec       q    Type
REMARK                         _______ _______ _______ _____ _____    ______ ____
ROOT
ATOM      1  C   UNL     1       1.930   8.547  18.514  0.00  0.00    +0.000 C 
ATOM      2  O   UNL     1       2.231   9.084  17.452  0.00  0.00    +0.000 OA
ATOM      3  N   UNL     1       1.303   9.230  19.537  0.00  0.00    +0.000 N 
ATOM      4  H   UNL     1       1.097   8.802  20.424  0.00  0.00    +0.000 HD
ENDROOT
BRANCH   1  13
ATOM      5  C   UNL     1       2.144   1.994  19.086  0.00  0.00    +0.000 C 
ATOM      6  C   UNL     1       3.057   3.018  19.759  0.00  0.00    +0.000 C 
ATOM      7  C   UNL     1       4.522   2.592  19.687  0.00  0.00    +0.000 C 
ATOM      8  C   UNL     1       2.631   3.202  21.238  0.00  0.00    +0.000 C 
ATOM      9  O   UNL     1       2.633   2.352  22.116  0.00  0.00    +0.000 OA
ATOM     10  N   UNL     1       2.234   4.523  21.399  0.00  0.00    +0.000 N 
ATOM     11  C   UNL     1       2.355   5.238  20.219  0.00  0.00    +0.000 A 
ATOM     12  C   UNL     1       2.057   6.570  20.012  0.00  0.00    +0.000 A 
ATOM     13  C   UNL     1       2.260   7.100  18.726  0.00  0.00    +0.000 A 
ATOM     14  C   UNL     1       2.757   6.265  17.698  0.00  0.00    +0.000 A 
ATOM     15  C   UNL     1       3.048   4.913  17.938  0.00  0.00    +0.000 A 
ATOM     16  C   UNL     1       2.840   4.411  19.209  0.00  0.00    +0.000 A 
ATOM     17  H   UNL     1       1.910   4.889  22.282  0.00  0.00    +0.000 HD
ENDBRANCH   1  13
BRANCH   3  18
ATOM     18  C   UNL     1       1.001  10.651  19.383  0.00  0.00    +0.000 C 
BRANCH  18  19
ATOM     19  C   UNL     1      -0.473  11.074  19.725  0.00  0.00    +0.000 C 
BRANCH  19  20
ATOM     20  C   UNL     1      -0.580  12.181  20.786  0.00  0.00    +0.000 A 
ATOM     21  C   UNL     1      -0.353  13.531  20.442  0.00  0.00    +0.000 A 
ATOM     22  C   UNL     1      -0.506  14.565  21.373  0.00  0.00    +0.000 A 
ATOM     23  C   UNL     1      -0.931  14.286  22.665  0.00  0.00    +0.000 A 
ATOM     24  C   UNL     1      -1.129  12.964  23.045  0.00  0.00    +0.000 A 
ATOM     25  C   UNL     1      -0.909  11.920  22.134  0.00  0.00    +0.000 A 
ATOM     26 CL   UNL     1      -0.966  10.325  22.806  0.00  0.00    +0.000 Cl
ENDBRANCH  19  20
BRANCH  19  27
ATOM     27  N   UNL     1      -1.195  11.318  18.449  0.00  0.00    +0.000 NA
ATOM     28  C   UNL     1      -2.511  11.950  18.512  0.00  0.00    +0.000 C 
ATOM     29  C   UNL     1      -3.500  10.811  18.390  0.00  0.00    +0.000 C 
ATOM     30  C   UNL     1      -2.801   9.812  17.488  0.00  0.00    +0.000 C 
ATOM     31  C   UNL     1      -1.326  10.204  17.514  0.00  0.00    +0.000 C 
ENDBRANCH  19  27
ENDBRANCH  18  19
ENDBRANCH   3  18
TORSDOF 5
ENDMDL
