MODEL 1
REMARK VINA RESULT:      -7.9      0.000      0.000
REMARK  Name = 
REMARK  6 active torsions:
REMARK  status: ('A' for Active; 'I' for Inactive)
REMARK    1  A    between atoms: C_1  and  C_2
REMARK    2  A    between atoms: C_4  and  C_5
REMARK    3  A    between atoms: C_5  and  N_6
REMARK    4  A    between atoms: C_7  and  C_9
REMARK    5  A    between atoms: N_11  and  C_12
REMARK    6  A    between atoms: C_19  and  C_20
REMARK                            x       y       z     vdW  Elec       q    Type
REMARK                         _______ _______ _______ _____ _____    ______ ____
ROOT
ATOM      1  N   UNL     1       2.836   6.429  19.312  0.00  0.00    +0.000 N 
ATOM      2  C   UNL     1       2.222   7.553  18.786  0.00  0.00    +0.000 C 
ATOM      3  O   UNL     1       2.116   7.783  17.585  0.00  0.00    +0.000 OA
ATOM      4  H   UNL     1       2.797   6.293  20.318  0.00  0.00    +0.000 HD
ENDROOT
BRANCH   2   5
ATOM      5  C   UNL     1       1.588   8.522  19.786  0.00  0.00    +0.000 A 
ATOM      6  N   UNL     1       1.461   9.772  19.441  0.00  0.00    +0.000 NA
ATOM      7  N   UNL     1       0.776  10.651  20.267  0.00  0.00    +0.000 N 
ATOM      8  C   UNL     1       0.049  10.199  21.388  0.00  0.00    +0.000 A 
ATOM      9  C   UNL     1      -0.954  11.052  22.121  0.00  0.00    +0.000 C 
ATOM     10  C   UNL     1       0.162   8.934  21.834  0.00  0.00    +0.000 A 
ATOM     11  C   UNL     1       1.076   8.048  21.115  0.00  0.00    +0.000 A 
ATOM     12  O   UNL     1       1.423   6.967  21.569  0.00  0.00    +0.000 OA
BRANCH   7  13
ATOM     13  C   UNL     1       0.826  12.016  19.802  0.00  0.00    +0.000 A 
ATOM     14  C   UNL     1       1.849  12.904  20.193  0.00  0.00    +0.000 A 
ATOM     15  C   UNL     1       1.881  14.236  19.755  0.00  0.00    +0.000 A 
ATOM     16  C   UNL     1       0.921  14.708  18.868  0.00  0.00    +0.000 A 
ATOM     17  C   UNL     1      -0.079  13.847  18.429  0.00  0.00    +0.000 A 
ATOM     18  C   UNL     1      -0.128  12.530  18.898  0.00  0.00    +0.000 A 
ATOM     19  F   UNL     1      -1.160  11.781  18.474  0.00  0.00    +0.000 F 
ENDBRANCH   7  13
ENDBRANCH   2   5
BRANCH   1  20
ATOM     20  C   UNL     1       3.493   5.384  18.487  0.00  0.00    +0.000 C 
ATOM     21  C   UNL     1       4.063   4.269  19.408  0.00  0.00    +0.000 C 
ATOM     22  C   UNL     1       2.996   3.428  20.107  0.00  0.00    +0.000 C 
ATOM     23  C   UNL     1       1.967   2.852  19.143  0.00  0.00    +0.000 C 
ATOM     24  C   UNL     1       1.406   3.883  18.172  0.00  0.00    +0.000 C 
ATOM     25  C   UNL     1       2.487   4.728  17.500  0.00  0.00    +0.000 C 
BRANCH  20  29
ATOM     26  C   UNL     1       7.788   7.675  17.388  0.00  0.00    +0.000 C 
ATOM     27  C   UNL     1       6.500   6.963  17.388  0.00  0.00    +0.000 A 
ATOM     28  N   UNL     1       5.788   6.501  18.391  0.00  0.00    +0.000 NA
ATOM     29  C   UNL     1       4.667   6.017  17.746  0.00  0.00    +0.000 A 
ATOM     30  N   UNL     1       4.734   6.078  16.406  0.00  0.00    +0.000 NA
ATOM     31  O   UNL     1       5.940   6.731  16.169  0.00  0.00    +0.000 OA
ENDBRANCH  20  29
ENDBRANCH   1  20
TORSDOF 4
ENDMDL
MODEL 2
REMARK VINA RESULT:      -7.7      0.853      1.220
REMARK  Name = 
REMARK  6 active torsions:
REMARK  status: ('A' for Active; 'I' for Inactive)
REMARK    1  A    between atoms: C_1  and  C_2
REMARK    2  A    between atoms: C_4  and  C_5
REMARK    3  A    between atoms: C_5  and  N_6
REMARK    4  A    between atoms: C_7  and  C_9
REMARK    5  A    between atoms: N_11  and  C_12
REMARK    6  A    between atoms: C_19  and  C_20
REMARK                            x       y       z     vdW  Elec       q    Type
REMARK                         _______ _______ _______ _____ _____    ______ ____
ROOT
ATOM      1  N   UNL     1       2.830   6.469  19.308  0.00  0.00    +0.000 N 
ATOM      2  C   UNL     1       2.218   7.591  18.777  0.00  0.00    +0.000 C 
ATOM      3  O   UNL     1       2.115   7.818  17.575  0.00  0.00    +0.000 OA
ATOM      4  H   UNL     1       2.788   6.335  20.315  0.00  0.00    +0.000 HD
ENDROOT
BRANCH   2   5
ATOM      5  C   UNL     1       1.582   8.564  19.773  0.00  0.00    +0.000 A 
ATOM      6  N   UNL     1       1.390   9.796  19.397  0.00  0.00    +0.000 NA
ATOM      7  N   UNL     1       0.701  10.672  20.224  0.00  0.00    +0.000 N 
ATOM      8  C   UNL     1       0.036  10.224  21.384  0.00  0.00    +0.000 A 
ATOM      9  C   UNL     1      -0.974  11.058  22.131  0.00  0.00    +0.000 C 
ATOM     10  C   UNL     1       0.218   8.979  21.862  0.00  0.00    +0.000 A 
ATOM     11  C   UNL     1       1.140   8.109  21.134  0.00  0.00    +0.000 A 
ATOM     12  O   UNL     1       1.548   7.057  21.604  0.00  0.00    +0.000 OA
BRANCH   7  13
ATOM     13  C   UNL     1       0.676  12.023  19.719  0.00  0.00    +0.000 A 
ATOM     14  C   UNL     1      -0.273  12.450  18.768  0.00  0.00    +0.000 A 
ATOM     15  C   UNL     1      -0.279  13.759  18.264  0.00  0.00    +0.000 A 
ATOM     16  C   UNL     1       0.630  14.699  18.737  0.00  0.00    +0.000 A 
ATOM     17  C   UNL     1       1.553  14.322  19.707  0.00  0.00    +0.000 A 
ATOM     18  C   UNL     1       1.579  13.006  20.179  0.00  0.00    +0.000 A 
ATOM     19  F   UNL     1       2.540  12.707  21.069  0.00  0.00    +0.000 F 
ENDBRANCH   7  13
ENDBRANCH   2   5
BRANCH   1  20
ATOM     20  C   UNL     1       3.488   5.420  18.488  0.00  0.00    +0.000 C 
ATOM     21  C   UNL     1       4.059   4.310  19.414  0.00  0.00    +0.000 C 
ATOM     22  C   UNL     1       2.992   3.471  20.116  0.00  0.00    +0.000 C 
ATOM     23  C   UNL     1       1.965   2.889  19.153  0.00  0.00    +0.000 C 
ATOM     24  C   UNL     1       1.403   3.916  18.179  0.00  0.00    +0.000 C 
ATOM     25  C   UNL     1       2.483   4.759  17.503  0.00  0.00    +0.000 C 
BRANCH  20  29
ATOM     26  C   UNL     1       7.782   7.708  17.380  0.00  0.00    +0.000 C 
ATOM     27  C   UNL     1       6.494   6.996  17.383  0.00  0.00    +0.000 A 
ATOM     28  N   UNL     1       5.783   6.537  18.387  0.00  0.00    +0.000 NA
ATOM     29  C   UNL     1       4.662   6.052  17.744  0.00  0.00    +0.000 A 
ATOM     30  N   UNL     1       4.728   6.110  16.403  0.00  0.00    +0.000 NA
ATOM     31  O   UNL     1       5.933   6.763  16.164  0.00  0.00    +0.000 OA
ENDBRANCH  20  29
ENDBRANCH   1  20
TORSDOF 4
ENDMDL
MODEL 3
REMARK VINA RESULT:      -7.7      1.768      3.119
REMARK  Name = 
REMARK  6 active torsions:
REMARK  status: ('A' for Active; 'I' for Inactive)
REMARK    1  A    between atoms: C_1  and  C_2
REMARK    2  A    between atoms: C_4  and  C_5
REMARK    3  A    between atoms: C_5  and  N_6
REMARK    4  A    between atoms: C_7  and  C_9
REMARK    5  A    between atoms: N_11  and  C_12
REMARK    6  A    between atoms: C_19  and  C_20
REMARK                            x       y       z     vdW  Elec       q    Type
REMARK                         _______ _______ _______ _____ _____    ______ ____
ROOT
ATOM      1  N   UNL     1       2.504   6.278  18.661  0.00  0.00    +0.000 N 
ATOM      2  C   UNL     1       2.240   7.150  19.703  0.00  0.00    +0.000 C 
ATOM      3  O   UNL     1       2.463   6.903  20.884  0.00  0.00    +0.000 OA
ATOM      4  H   UNL     1       2.360   6.613  17.712  0.00  0.00    +0.000 HD
ENDROOT
BRANCH   2   5
ATOM      5  C   UNL     1       1.691   8.528  19.324  0.00  0.00    +0.000 A 
ATOM      6  N   UNL     1       0.925   9.146  20.179  0.00  0.00    +0.000 NA
ATOM      7  N   UNL     1       0.516  10.447  19.926  0.00  0.00    +0.000 N 
ATOM      8  C   UNL     1       1.052  11.196  18.858  0.00  0.00    +0.000 A 
ATOM      9  C   UNL     1       0.884  12.689  18.731  0.00  0.00    +0.000 C 
ATOM     10  C   UNL     1       1.814  10.621  17.910  0.00  0.00    +0.000 A 
ATOM     11  C   UNL     1       2.060   9.185  18.025  0.00  0.00    +0.000 A 
ATOM     12  O   UNL     1       2.537   8.532  17.108  0.00  0.00    +0.000 OA
BRANCH   7  13
ATOM     13  C   UNL     1      -0.419  10.944  20.905  0.00  0.00    +0.000 A 
ATOM     14  C   UNL     1      -1.474  11.813  20.560  0.00  0.00    +0.000 A 
ATOM     15  C   UNL     1      -2.368  12.311  21.520  0.00  0.00    +0.000 A 
ATOM     16  C   UNL     1      -2.269  11.910  22.847  0.00  0.00    +0.000 A 
ATOM     17  C   UNL     1      -1.266  11.020  23.215  0.00  0.00    +0.000 A 
ATOM     18  C   UNL     1      -0.354  10.556  22.261  0.00  0.00    +0.000 A 
ATOM     19  F   UNL     1       0.622   9.748  22.708  0.00  0.00    +0.000 F 
ENDBRANCH   7  13
ENDBRANCH   2   5
BRANCH   1  20
ATOM     20  C   UNL     1       3.046   4.909  18.847  0.00  0.00    +0.000 C 
ATOM     21  C   UNL     1       2.579   4.340  20.217  0.00  0.00    +0.000 C 
ATOM     22  C   UNL     1       1.082   4.049  20.295  0.00  0.00    +0.000 C 
ATOM     23  C   UNL     1       0.587   3.170  19.154  0.00  0.00    +0.000 C 
ATOM     24  C   UNL     1       1.056   3.641  17.783  0.00  0.00    +0.000 C 
ATOM     25  C   UNL     1       2.551   3.947  17.731  0.00  0.00    +0.000 C 
BRANCH  20  29
ATOM     26  C   UNL     1       7.771   6.439  18.352  0.00  0.00    +0.000 C 
ATOM     27  C   UNL     1       6.514   5.733  18.649  0.00  0.00    +0.000 A 
ATOM     28  N   UNL     1       5.269   6.117  18.488  0.00  0.00    +0.000 NA
ATOM     29  C   UNL     1       4.571   4.990  18.875  0.00  0.00    +0.000 A 
ATOM     30  N   UNL     1       5.344   4.001  19.354  0.00  0.00    +0.000 NA
ATOM     31  O   UNL     1       6.636   4.484  19.178  0.00  0.00    +0.000 OA
ENDBRANCH  20  29
ENDBRANCH   1  20
TORSDOF 4
ENDMDL
MODEL 4
REMARK VINA RESULT:      -7.7      1.556      2.859
REMARK  Name = 
REMARK  6 active torsions:
REMARK  status: ('A' for Active; 'I' for Inactive)
REMARK    1  A    between atoms: C_1  and  C_2
REMARK    2  A    between atoms: C_4  and  C_5
REMARK    3  A    between atoms: C_5  and  N_6
REMARK    4  A    between atoms: C_7  and  C_9
REMARK    5  A    between atoms: N_11  and  C_12
REMARK    6  A    between atoms: C_19  and  C_20
REMARK                            x       y       z     vdW  Elec       q    Type
REMARK                         _______ _______ _______ _____ _____    ______ ____
ROOT
ATOM      1  N   UNL     1       2.529   6.348  18.692  0.00  0.00    +0.000 N 
ATOM      2  C   UNL     1       2.228   7.233  19.713  0.00  0.00    +0.000 C 
ATOM      3  O   UNL     1       2.401   6.997  20.905  0.00  0.00    +0.000 OA
ATOM      4  H   UNL     1       2.425   6.673  17.735  0.00  0.00    +0.000 HD
ENDROOT
BRANCH   2   5
ATOM      5  C   UNL     1       1.705   8.610  19.297  0.00  0.00    +0.000 A 
ATOM      6  N   UNL     1       0.910   9.243  20.113  0.00  0.00    +0.000 NA
ATOM      7  N   UNL     1       0.521  10.543  19.829  0.00  0.00    +0.000 N 
ATOM      8  C   UNL     1       1.105  11.277  18.776  0.00  0.00    +0.000 A 
ATOM      9  C   UNL     1       0.953  12.769  18.625  0.00  0.00    +0.000 C 
ATOM     10  C   UNL     1       1.900  10.686  17.866  0.00  0.00    +0.000 A 
ATOM     11  C   UNL     1       2.131   9.250  18.007  0.00  0.00    +0.000 A 
ATOM     12  O   UNL     1       2.640   8.583  17.117  0.00  0.00    +0.000 OA
BRANCH   7  13
ATOM     13  C   UNL     1      -0.450  11.058  20.765  0.00  0.00    +0.000 A 
ATOM     14  C   UNL     1      -0.240  11.021  22.158  0.00  0.00    +0.000 A 
ATOM     15  C   UNL     1      -1.195  11.503  23.065  0.00  0.00    +0.000 A 
ATOM     16  C   UNL     1      -2.369  12.089  22.603  0.00  0.00    +0.000 A 
ATOM     17  C   UNL     1      -2.589  12.179  21.233  0.00  0.00    +0.000 A 
ATOM     18  C   UNL     1      -1.650  11.664  20.335  0.00  0.00    +0.000 A 
ATOM     19  F   UNL     1      -1.966  11.735  19.031  0.00  0.00    +0.000 F 
ENDBRANCH   7  13
ENDBRANCH   2   5
BRANCH   1  20
ATOM     20  C   UNL     1       3.053   4.977  18.915  0.00  0.00    +0.000 C 
ATOM     21  C   UNL     1       2.603   4.463  20.312  0.00  0.00    +0.000 C 
ATOM     22  C   UNL     1       1.103   4.198  20.427  0.00  0.00    +0.000 C 
ATOM     23  C   UNL     1       0.574   3.289  19.325  0.00  0.00    +0.000 C 
ATOM     24  C   UNL     1       1.024   3.705  17.931  0.00  0.00    +0.000 C 
ATOM     25  C   UNL     1       2.523   3.986  17.842  0.00  0.00    +0.000 C 
BRANCH  20  29
ATOM     26  C   UNL     1       7.789   6.447  18.355  0.00  0.00    +0.000 C 
ATOM     27  C   UNL     1       6.529   5.753  18.663  0.00  0.00    +0.000 A 
ATOM     28  N   UNL     1       5.286   6.159  18.536  0.00  0.00    +0.000 NA
ATOM     29  C   UNL     1       4.579   5.035  18.913  0.00  0.00    +0.000 A 
ATOM     30  N   UNL     1       5.346   4.024  19.354  0.00  0.00    +0.000 NA
ATOM     31  O   UNL     1       6.642   4.491  19.162  0.00  0.00    +0.000 OA
ENDBRANCH  20  29
ENDBRANCH   1  20
TORSDOF 4
ENDMDL
MODEL 5
REMARK VINA RESULT:      -7.6      0.854      1.025
REMARK  Name = 
REMARK  6 active torsions:
REMARK  status: ('A' for Active; 'I' for Inactive)
REMARK    1  A    between atoms: C_1  and  C_2
REMARK    2  A    between atoms: C_4  and  C_5
REMARK    3  A    between atoms: C_5  and  N_6
REMARK    4  A    between atoms: C_7  and  C_9
REMARK    5  A    between atoms: N_11  and  C_12
REMARK    6  A    between atoms: C_19  and  C_20
REMARK                            x       y       z     vdW  Elec       q    Type
REMARK                         _______ _______ _______ _____ _____    ______ ____
ROOT
ATOM      1  N   UNL     1       2.748   6.311  19.693  0.00  0.00    +0.000 N 
ATOM      2  C   UNL     1       2.292   7.457  19.063  0.00  0.00    +0.000 C 
ATOM      3  O   UNL     1       2.377   7.661  17.856  0.00  0.00    +0.000 OA
ATOM      4  H   UNL     1       2.554   6.205  20.685  0.00  0.00    +0.000 HD
ENDROOT
BRANCH   2   5
ATOM      5  C   UNL     1       1.587   8.491  19.943  0.00  0.00    +0.000 A 
ATOM      6  N   UNL     1       1.583   9.735  19.555  0.00  0.00    +0.000 NA
ATOM      7  N   UNL     1       0.845  10.676  20.258  0.00  0.00    +0.000 N 
ATOM      8  C   UNL     1      -0.055  10.300  21.277  0.00  0.00    +0.000 A 
ATOM      9  C   UNL     1      -1.096  11.231  21.844  0.00  0.00    +0.000 C 
ATOM     10  C   UNL     1      -0.080   9.046  21.763  0.00  0.00    +0.000 A 
ATOM     11  C   UNL     1       0.868   8.087  21.199  0.00  0.00    +0.000 A 
ATOM     12  O   UNL     1       1.084   7.003  21.721  0.00  0.00    +0.000 OA
BRANCH   7  13
ATOM     13  C   UNL     1       1.041  12.021  19.774  0.00  0.00    +0.000 A 
ATOM     14  C   UNL     1       2.072  12.850  20.260  0.00  0.00    +0.000 A 
ATOM     15  C   UNL     1       2.245  14.165  19.802  0.00  0.00    +0.000 A 
ATOM     16  C   UNL     1       1.424  14.673  18.802  0.00  0.00    +0.000 A 
ATOM     17  C   UNL     1       0.423  13.868  18.270  0.00  0.00    +0.000 A 
ATOM     18  C   UNL     1       0.232  12.571  18.756  0.00  0.00    +0.000 A 
ATOM     19  F   UNL     1      -0.795  11.880  18.233  0.00  0.00    +0.000 F 
ENDBRANCH   7  13
ENDBRANCH   2   5
BRANCH   1  20
ATOM     20  C   UNL     1       3.445   5.204  18.991  0.00  0.00    +0.000 C 
ATOM     21  C   UNL     1       3.401   3.918  19.863  0.00  0.00    +0.000 C 
ATOM     22  C   UNL     1       2.007   3.308  20.007  0.00  0.00    +0.000 C 
ATOM     23  C   UNL     1       1.321   3.072  18.667  0.00  0.00    +0.000 C 
ATOM     24  C   UNL     1       1.377   4.278  17.740  0.00  0.00    +0.000 C 
ATOM     25  C   UNL     1       2.773   4.887  17.626  0.00  0.00    +0.000 C 
BRANCH  20  29
ATOM     26  C   UNL     1       7.708   7.167  17.291  0.00  0.00    +0.000 C 
ATOM     27  C   UNL     1       6.640   6.481  18.036  0.00  0.00    +0.000 A 
ATOM     28  N   UNL     1       5.342   6.469  17.836  0.00  0.00    +0.000 NA
ATOM     29  C   UNL     1       4.911   5.591  18.812  0.00  0.00    +0.000 A 
ATOM     30  N   UNL     1       5.882   5.170  19.640  0.00  0.00    +0.000 NA
ATOM     31  O   UNL     1       7.034   5.739  19.108  0.00  0.00    +0.000 OA
ENDBRANCH  20  29
ENDBRANCH   1  20
TORSDOF 4
ENDMDL
MODEL 6
REMARK VINA RESULT:      -7.4      1.975      4.422
REMARK  Name = 
REMARK  6 active torsions:
REMARK  status: ('A' for Active; 'I' for Inactive)
REMARK    1  A    between atoms: C_1  and  C_2
REMARK    2  A    between atoms: C_4  and  C_5
REMARK    3  A    between atoms: C_5  and  N_6
REMARK    4  A    between atoms: C_7  and  C_9
REMARK    5  A    between atoms: N_11  and  C_12
REMARK    6  A    between atoms: C_19  and  C_20
REMARK                            x       y       z     vdW  Elec       q    Type
REMARK                         _______ _______ _______ _____ _____    ______ ____
ROOT
ATOM      1  N   UNL     1       2.956   6.451  18.501  0.00  0.00    +0.000 N 
ATOM      2  C   UNL     1       2.283   7.110  19.516  0.00  0.00    +0.000 C 
ATOM      3  O   UNL     1       2.112   6.652  20.642  0.00  0.00    +0.000 OA
ATOM      4  H   UNL     1       3.114   6.952  17.631  0.00  0.00    +0.000 HD
ENDROOT
BRANCH   2   5
ATOM      5  C   UNL     1       1.784   8.523  19.205  0.00  0.00    +0.000 A 
ATOM      6  N   UNL     1       1.022   9.116  20.080  0.00  0.00    +0.000 NA
ATOM      7  N   UNL     1       0.658  10.442  19.893  0.00  0.00    +0.000 N 
ATOM      8  C   UNL     1       1.237  11.231  18.878  0.00  0.00    +0.000 A 
ATOM      9  C   UNL     1       1.117  12.733  18.832  0.00  0.00    +0.000 C 
ATOM     10  C   UNL     1       1.999  10.686  17.913  0.00  0.00    +0.000 A 
ATOM     11  C   UNL     1       2.198   9.239  17.952  0.00  0.00    +0.000 A 
ATOM     12  O   UNL     1       2.672   8.623  17.008  0.00  0.00    +0.000 OA
BRANCH   7  13
ATOM     13  C   UNL     1      -0.280  10.913  20.883  0.00  0.00    +0.000 A 
ATOM     14  C   UNL     1      -1.346  11.775  20.554  0.00  0.00    +0.000 A 
ATOM     15  C   UNL     1      -2.243  12.248  21.523  0.00  0.00    +0.000 A 
ATOM     16  C   UNL     1      -2.135  11.829  22.844  0.00  0.00    +0.000 A 
ATOM     17  C   UNL     1      -1.120  10.945  23.195  0.00  0.00    +0.000 A 
ATOM     18  C   UNL     1      -0.206  10.506  22.232  0.00  0.00    +0.000 A 
ATOM     19  F   UNL     1       0.780   9.702  22.664  0.00  0.00    +0.000 F 
ENDBRANCH   7  13
ENDBRANCH   2   5
BRANCH   1  20
ATOM     20  C   UNL     1       3.513   5.081  18.633  0.00  0.00    +0.000 C 
ATOM     21  C   UNL     1       3.711   4.456  17.223  0.00  0.00    +0.000 C 
ATOM     22  C   UNL     1       4.814   5.115  16.397  0.00  0.00    +0.000 C 
ATOM     23  C   UNL     1       6.143   5.198  17.138  0.00  0.00    +0.000 C 
ATOM     24  C   UNL     1       6.012   5.753  18.550  0.00  0.00    +0.000 C 
ATOM     25  C   UNL     1       4.890   5.096  19.353  0.00  0.00    +0.000 C 
BRANCH  20  29
ATOM     26  C   UNL     1       1.232   2.271  22.070  0.00  0.00    +0.000 C 
ATOM     27  C   UNL     1       1.620   3.072  20.897  0.00  0.00    +0.000 A 
ATOM     28  N   UNL     1       2.703   3.783  20.679  0.00  0.00    +0.000 NA
ATOM     29  C   UNL     1       2.502   4.217  19.384  0.00  0.00    +0.000 A 
ATOM     30  N   UNL     1       1.308   3.881  18.869  0.00  0.00    +0.000 NA
ATOM     31  O   UNL     1       0.733   3.097  19.865  0.00  0.00    +0.000 OA
ENDBRANCH  20  29
ENDBRANCH   1  20
TORSDOF 4
ENDMDL
MODEL 7
REMARK VINA RESULT:      -7.4      2.135      4.565
REMARK  Name = 
REMARK  6 active torsions:
REMARK  status: ('A' for Active; 'I' for Inactive)
REMARK    1  A    between atoms: C_1  and  C_2
REMARK    2  A    between atoms: C_4  and  C_5
REMARK    3  A    between atoms: C_5  and  N_6
REMARK    4  A    between atoms: C_7  and  C_9
REMARK    5  A    between atoms: N_11  and  C_12
REMARK    6  A    between atoms: C_19  and  C_20
REMARK                            x       y       z     vdW  Elec       q    Type
REMARK                         _______ _______ _______ _____ _____    ______ ____
ROOT
ATOM      1  N   UNL     1       3.704   6.203  18.194  0.00  0.00    +0.000 N 
ATOM      2  C   UNL     1       2.900   6.667  19.220  0.00  0.00    +0.000 C 
ATOM      3  O   UNL     1       2.733   6.080  20.286  0.00  0.00    +0.000 OA
ATOM      4  H   UNL     1       3.840   6.806  17.386  0.00  0.00    +0.000 HD
ENDROOT
BRANCH   2   5
ATOM      5  C   UNL     1       2.236   8.031  19.012  0.00  0.00    +0.000 A 
ATOM      6  N   UNL     1       1.554   8.543  19.996  0.00  0.00    +0.000 NA
ATOM      7  N   UNL     1       1.048   9.831  19.890  0.00  0.00    +0.000 N 
ATOM      8  C   UNL     1       1.405  10.679  18.822  0.00  0.00    +0.000 A 
ATOM      9  C   UNL     1       1.145  12.164  18.824  0.00  0.00    +0.000 C 
ATOM     10  C   UNL     1       2.071  10.215  17.748  0.00  0.00    +0.000 A 
ATOM     11  C   UNL     1       2.404   8.792  17.729  0.00  0.00    +0.000 A 
ATOM     12  O   UNL     1       2.795   8.231  16.716  0.00  0.00    +0.000 OA
BRANCH   7  13
ATOM     13  C   UNL     1       0.219  10.205  21.010  0.00  0.00    +0.000 A 
ATOM     14  C   UNL     1      -0.820  11.150  20.890  0.00  0.00    +0.000 A 
ATOM     15  C   UNL     1      -1.609  11.527  21.987  0.00  0.00    +0.000 A 
ATOM     16  C   UNL     1      -1.420  10.928  23.227  0.00  0.00    +0.000 A 
ATOM     17  C   UNL     1      -0.432   9.961  23.370  0.00  0.00    +0.000 A 
ATOM     18  C   UNL     1       0.377   9.616  22.283  0.00  0.00    +0.000 A 
ATOM     19  F   UNL     1       1.349   8.719  22.519  0.00  0.00    +0.000 F 
ENDBRANCH   7  13
ENDBRANCH   2   5
BRANCH   1  20
ATOM     20  C   UNL     1       4.429   4.908  18.232  0.00  0.00    +0.000 C 
ATOM     21  C   UNL     1       4.895   4.524  16.800  0.00  0.00    +0.000 C 
ATOM     22  C   UNL     1       5.991   5.427  16.236  0.00  0.00    +0.000 C 
ATOM     23  C   UNL     1       7.187   5.564  17.170  0.00  0.00    +0.000 C 
ATOM     24  C   UNL     1       6.796   5.887  18.606  0.00  0.00    +0.000 C 
ATOM     25  C   UNL     1       5.684   4.989  19.144  0.00  0.00    +0.000 C 
BRANCH  20  29
ATOM     26  C   UNL     1       0.450   1.947  18.790  0.00  0.00    +0.000 C 
ATOM     27  C   UNL     1       1.757   2.622  18.848  0.00  0.00    +0.000 A 
ATOM     28  N   UNL     1       2.240   3.596  18.111  0.00  0.00    +0.000 NA
ATOM     29  C   UNL     1       3.463   3.826  18.710  0.00  0.00    +0.000 A 
ATOM     30  N   UNL     1       3.763   2.966  19.696  0.00  0.00    +0.000 NA
ATOM     31  O   UNL     1       2.619   2.183  19.807  0.00  0.00    +0.000 OA
ENDBRANCH  20  29
ENDBRANCH   1  20
TORSDOF 4
ENDMDL
MODEL 8
REMARK VINA RESULT:      -7.4      1.767      4.251
REMARK  Name = 
REMARK  6 active torsions:
REMARK  status: ('A' for Active; 'I' for Inactive)
REMARK    1  A    between atoms: C_1  and  C_2
REMARK    2  A    between atoms: C_4  and  C_5
REMARK    3  A    between atoms: C_5  and  N_6
REMARK    4  A    between atoms: C_7  and  C_9
REMARK    5  A    between atoms: N_11  and  C_12
REMARK    6  A    between atoms: C_19  and  C_20
REMARK                            x       y       z     vdW  Elec       q    Type
REMARK                         _______ _______ _______ _____ _____    ______ ____
ROOT
ATOM      1  N   UNL     1       2.975   6.452  18.506  0.00  0.00    +0.000 N 
ATOM      2  C   UNL     1       2.300   7.129  19.507  0.00  0.00    +0.000 C 
ATOM      3  O   UNL     1       2.120   6.688  20.639  0.00  0.00    +0.000 OA
ATOM      4  H   UNL     1       3.142   6.940  17.631  0.00  0.00    +0.000 HD
ENDROOT
BRANCH   2   5
ATOM      5  C   UNL     1       1.810   8.540  19.174  0.00  0.00    +0.000 A 
ATOM      6  N   UNL     1       1.031   9.142  20.026  0.00  0.00    +0.000 NA
ATOM      7  N   UNL     1       0.673  10.467  19.820  0.00  0.00    +0.000 N 
ATOM      8  C   UNL     1       1.275  11.246  18.811  0.00  0.00    +0.000 A 
ATOM      9  C   UNL     1       1.159  12.748  18.748  0.00  0.00    +0.000 C 
ATOM     10  C   UNL     1       2.056  10.691  17.867  0.00  0.00    +0.000 A 
ATOM     11  C   UNL     1       2.252   9.244  17.923  0.00  0.00    +0.000 A 
ATOM     12  O   UNL     1       2.745   8.619  16.995  0.00  0.00    +0.000 OA
BRANCH   7  13
ATOM     13  C   UNL     1      -0.285  10.949  20.785  0.00  0.00    +0.000 A 
ATOM     14  C   UNL     1      -0.089  10.802  22.173  0.00  0.00    +0.000 A 
ATOM     15  C   UNL     1      -1.033  11.253  23.107  0.00  0.00    +0.000 A 
ATOM     16  C   UNL     1      -2.179  11.916  22.683  0.00  0.00    +0.000 A 
ATOM     17  C   UNL     1      -2.384  12.115  21.322  0.00  0.00    +0.000 A 
ATOM     18  C   UNL     1      -1.457  11.630  20.394  0.00  0.00    +0.000 A 
ATOM     19  F   UNL     1      -1.759  11.809  19.097  0.00  0.00    +0.000 F 
ENDBRANCH   7  13
ENDBRANCH   2   5
BRANCH   1  20
ATOM     20  C   UNL     1       3.524   5.081  18.661  0.00  0.00    +0.000 C 
ATOM     21  C   UNL     1       3.744   4.441  17.261  0.00  0.00    +0.000 C 
ATOM     22  C   UNL     1       4.863   5.088  16.447  0.00  0.00    +0.000 C 
ATOM     23  C   UNL     1       6.179   5.173  17.210  0.00  0.00    +0.000 C 
ATOM     24  C   UNL     1       6.027   5.742  18.614  0.00  0.00    +0.000 C 
ATOM     25  C   UNL     1       4.889   5.099  19.404  0.00  0.00    +0.000 C 
BRANCH  20  29
ATOM     26  C   UNL     1       1.192   2.279  22.070  0.00  0.00    +0.000 C 
ATOM     27  C   UNL     1       1.595   3.085  20.906  0.00  0.00    +0.000 A 
ATOM     28  N   UNL     1       2.691   3.777  20.694  0.00  0.00    +0.000 NA
ATOM     29  C   UNL     1       2.498   4.229  19.404  0.00  0.00    +0.000 A 
ATOM     30  N   UNL     1       1.296   3.922  18.887  0.00  0.00    +0.000 NA
ATOM     31  O   UNL     1       0.707   3.139  19.874  0.00  0.00    +0.000 OA
ENDBRANCH  20  29
ENDBRANCH   1  20
TORSDOF 4
ENDMDL
MODEL 9
REMARK VINA RESULT:      -7.4      1.117      1.212
REMARK  Name = 
REMARK  6 active torsions:
REMARK  status: ('A' for Active; 'I' for Inactive)
REMARK    1  A    between atoms: C_1  and  C_2
REMARK    2  A    between atoms: C_4  and  C_5
REMARK    3  A    between atoms: C_5  and  N_6
REMARK    4  A    between atoms: C_7  and  C_9
REMARK    5  A    between atoms: N_11  and  C_12
REMARK    6  A    between atoms: C_19  and  C_20
REMARK                            x       y       z     vdW  Elec       q    Type
REMARK                         _______ _______ _______ _____ _____    ______ ____
ROOT
ATOM      1  N   UNL     1       3.635   5.746  18.929  0.00  0.00    +0.000 N 
ATOM      2  C   UNL     1       2.935   6.836  18.440  0.00  0.00    +0.000 C 
ATOM      3  O   UNL     1       2.885   7.149  17.254  0.00  0.00    +0.000 OA
ATOM      4  H   UNL     1       3.544   5.526  19.917  0.00  0.00    +0.000 HD
ENDROOT
BRANCH   2   5
ATOM      5  C   UNL     1       2.133   7.650  19.458  0.00  0.00    +0.000 A 
ATOM      6  N   UNL     1       1.793   8.869  19.146  0.00  0.00    +0.000 NA
ATOM      7  N   UNL     1       0.958   9.590  19.986  0.00  0.00    +0.000 N 
ATOM      8  C   UNL     1       0.310   8.984  21.083  0.00  0.00    +0.000 A 
ATOM      9  C   UNL     1      -0.834   9.628  21.825  0.00  0.00    +0.000 C 
ATOM     10  C   UNL     1       0.637   7.746  21.495  0.00  0.00    +0.000 A 
ATOM     11  C   UNL     1       1.697   7.054  20.765  0.00  0.00    +0.000 A 
ATOM     12  O   UNL     1       2.223   6.037  21.194  0.00  0.00    +0.000 OA
BRANCH   7  13
ATOM     13  C   UNL     1       0.774  10.956  19.561  0.00  0.00    +0.000 A 
ATOM     14  C   UNL     1       1.655  11.987  19.948  0.00  0.00    +0.000 A 
ATOM     15  C   UNL     1       1.460  13.317  19.549  0.00  0.00    +0.000 A 
ATOM     16  C   UNL     1       0.407  13.650  18.704  0.00  0.00    +0.000 A 
ATOM     17  C   UNL     1      -0.457  12.651  18.270  0.00  0.00    +0.000 A 
ATOM     18  C   UNL     1      -0.280  11.333  18.700  0.00  0.00    +0.000 A 
ATOM     19  F   UNL     1      -1.193  10.439  18.285  0.00  0.00    +0.000 F 
ENDBRANCH   7  13
ENDBRANCH   2   5
BRANCH   1  20
ATOM     20  C   UNL     1       4.456   4.845  18.082  0.00  0.00    +0.000 C 
ATOM     21  C   UNL     1       4.983   3.657  18.935  0.00  0.00    +0.000 C 
ATOM     22  C   UNL     1       3.897   2.682  19.388  0.00  0.00    +0.000 C 
ATOM     23  C   UNL     1       3.036   2.175  18.238  0.00  0.00    +0.000 C 
ATOM     24  C   UNL     1       2.531   3.287  17.328  0.00  0.00    +0.000 C 
ATOM     25  C   UNL     1       3.627   4.263  16.903  0.00  0.00    +0.000 C 
BRANCH  20  29
ATOM     26  C   UNL     1       8.171   8.145  17.610  0.00  0.00    +0.000 C 
ATOM     27  C   UNL     1       7.210   7.037  17.484  0.00  0.00    +0.000 A 
ATOM     28  N   UNL     1       6.245   6.658  18.290  0.00  0.00    +0.000 NA
ATOM     29  C   UNL     1       5.668   5.625  17.577  0.00  0.00    +0.000 A 
ATOM     30  N   UNL     1       6.313   5.313  16.441  0.00  0.00    +0.000 NA
ATOM     31  O   UNL     1       7.321   6.269  16.365  0.00  0.00    +0.000 OA
ENDBRANCH  20  29
ENDBRANCH   1  20
TORSDOF 4
ENDMDL
