MODEL 1
REMARK VINA RESULT:      -8.3      0.000      0.000
REMARK  Name = 
REMARK  1 active torsions:
REMARK  status: ('A' for Active; 'I' for Inactive)
REMARK    1  A    between atoms: C_2  and  C_13
REMARK                            x       y       z     vdW  Elec       q    Type
REMARK                         _______ _______ _______ _____ _____    ______ ____
ROOT
ATOM      1  O   UNL     1       1.882   5.686  20.604  0.00  0.00    +0.000 OA
ATOM      2  C   UNL     1       2.388   6.292  19.664  0.00  0.00    +0.000 C 
ATOM      3  N   UNL     1       2.181   7.607  19.301  0.00  0.00    +0.000 N 
ATOM      4  C   UNL     1       1.393   8.479  20.022  0.00  0.00    +0.000 A 
ATOM      5  C   UNL     1       0.922   9.736  19.563  0.00  0.00    +0.000 A 
ATOM      6  C   UNL     1       0.146  10.237  20.591  0.00  0.00    +0.000 A 
ATOM      7  N   UNL     1       0.265   9.332  21.595  0.00  0.00    +0.000 N 
ATOM      8  N   UNL     1       0.977   8.253  21.266  0.00  0.00    +0.000 NA
ATOM      9  C   UNL     1      -0.237   9.453  22.937  0.00  0.00    +0.000 C 
ATOM     10  C   UNL     1      -1.040  10.714  23.225  0.00  0.00    +0.000 C 
ATOM     11  C   UNL     1      -1.282  11.713  22.092  0.00  0.00    +0.000 C 
ATOM     12  C   UNL     1      -0.683  11.453  20.709  0.00  0.00    +0.000 C 
ATOM     13  H   UNL     1       2.581   7.920  18.426  0.00  0.00    +0.000 HD
ENDROOT
BRANCH   2  14
ATOM     14  C   UNL     1       3.293   5.533  18.747  0.00  0.00    +0.000 A 
ATOM     15  C   UNL     1       3.483   4.178  18.977  0.00  0.00    +0.000 A 
ATOM     16  C   UNL     1       4.284   3.464  18.097  0.00  0.00    +0.000 A 
ATOM     17  C   UNL     1       4.875   4.129  17.017  0.00  0.00    +0.000 A 
ATOM     18  C   UNL     1       5.675   3.433  16.098  0.00  0.00    +0.000 A 
ATOM     19  C   UNL     1       6.252   4.102  15.024  0.00  0.00    +0.000 A 
ATOM     20  C   UNL     1       6.036   5.469  14.874  0.00  0.00    +0.000 A 
ATOM     21  C   UNL     1       5.238   6.158  15.792  0.00  0.00    +0.000 A 
ATOM     22  C   UNL     1       4.638   5.516  16.867  0.00  0.00    +0.000 A 
ATOM     23  N   UNL     1       3.856   6.218  17.713  0.00  0.00    +0.000 NA
ENDBRANCH   2  14
TORSDOF 1
ENDMDL
MODEL 2
REMARK VINA RESULT:      -8.2      1.396      8.542
REMARK  Name = 
REMARK  1 active torsions:
REMARK  status: ('A' for Active; 'I' for Inactive)
REMARK    1  A    between atoms: C_2  and  C_13
REMARK                            x       y       z     vdW  Elec       q    Type
REMARK                         _______ _______ _______ _____ _____    ______ ____
ROOT
ATOM      1  O   UNL     1       1.992   9.276  18.077  0.00  0.00    +0.000 OA
ATOM      2  C   UNL     1       1.818   8.607  19.092  0.00  0.00    +0.000 C 
ATOM      3  N   UNL     1       2.266   7.327  19.343  0.00  0.00    +0.000 N 
ATOM      4  C   UNL     1       3.070   6.620  18.473  0.00  0.00    +0.000 A 
ATOM      5  C   UNL     1       3.330   5.226  18.540  0.00  0.00    +0.000 A 
ATOM      6  C   UNL     1       4.143   4.950  17.457  0.00  0.00    +0.000 A 
ATOM      7  N   UNL     1       4.383   6.155  16.882  0.00  0.00    +0.000 N 
ATOM      8  N   UNL     1       3.723   7.165  17.450  0.00  0.00    +0.000 NA
ATOM      9  C   UNL     1       5.288   6.435  15.800  0.00  0.00    +0.000 C 
ATOM     10  C   UNL     1       5.998   5.224  15.209  0.00  0.00    +0.000 C 
ATOM     11  C   UNL     1       5.678   3.835  15.764  0.00  0.00    +0.000 C 
ATOM     12  C   UNL     1       4.691   3.688  16.922  0.00  0.00    +0.000 C 
ATOM     13  H   UNL     1       1.932   6.870  20.181  0.00  0.00    +0.000 HD
ENDROOT
BRANCH   2  14
ATOM     14  C   UNL     1       0.975   9.191  20.180  0.00  0.00    +0.000 A 
ATOM     15  C   UNL     1       1.077   8.658  21.456  0.00  0.00    +0.000 A 
ATOM     16  C   UNL     1       0.332   9.231  22.476  0.00  0.00    +0.000 A 
ATOM     17  C   UNL     1      -0.499  10.320  22.185  0.00  0.00    +0.000 A 
ATOM     18  C   UNL     1      -1.252  10.937  23.197  0.00  0.00    +0.000 A 
ATOM     19  C   UNL     1      -2.069  12.021  22.898  0.00  0.00    +0.000 A 
ATOM     20  C   UNL     1      -2.139  12.486  21.588  0.00  0.00    +0.000 A 
ATOM     21  C   UNL     1      -1.387  11.868  20.584  0.00  0.00    +0.000 A 
ATOM     22  C   UNL     1      -0.552  10.791  20.852  0.00  0.00    +0.000 A 
ATOM     23  N   UNL     1       0.174  10.244  19.855  0.00  0.00    +0.000 NA
ENDBRANCH   2  14
TORSDOF 1
ENDMDL
MODEL 3
REMARK VINA RESULT:      -8.2      1.476      1.956
REMARK  Name = 
REMARK  1 active torsions:
REMARK  status: ('A' for Active; 'I' for Inactive)
REMARK    1  A    between atoms: C_2  and  C_13
REMARK                            x       y       z     vdW  Elec       q    Type
REMARK                         _______ _______ _______ _____ _____    ______ ____
ROOT
ATOM      1  O   UNL     1       2.184   9.143  17.843  0.00  0.00    +0.000 OA
ATOM      2  C   UNL     1       2.203   8.126  18.531  0.00  0.00    +0.000 C 
ATOM      3  N   UNL     1       1.630   7.938  19.772  0.00  0.00    +0.000 N 
ATOM      4  C   UNL     1       0.861   8.892  20.405  0.00  0.00    +0.000 A 
ATOM      5  C   UNL     1       0.483   8.871  21.772  0.00  0.00    +0.000 A 
ATOM      6  C   UNL     1      -0.239  10.032  21.974  0.00  0.00    +0.000 A 
ATOM      7  N   UNL     1      -0.323  10.611  20.750  0.00  0.00    +0.000 N 
ATOM      8  N   UNL     1       0.357   9.966  19.801  0.00  0.00    +0.000 NA
ATOM      9  C   UNL     1      -1.091  11.771  20.389  0.00  0.00    +0.000 C 
ATOM     10  C   UNL     1      -1.836  12.446  21.533  0.00  0.00    +0.000 C 
ATOM     11  C   UNL     1      -1.686  11.883  22.948  0.00  0.00    +0.000 C 
ATOM     12  C   UNL     1      -0.833  10.636  23.183  0.00  0.00    +0.000 C 
ATOM     13  H   UNL     1       1.842   7.078  20.260  0.00  0.00    +0.000 HD
ENDROOT
BRANCH   2  14
ATOM     14  C   UNL     1       2.980   6.953  18.025  0.00  0.00    +0.000 A 
ATOM     15  C   UNL     1       2.426   5.687  18.153  0.00  0.00    +0.000 A 
ATOM     16  C   UNL     1       3.125   4.604  17.639  0.00  0.00    +0.000 A 
ATOM     17  C   UNL     1       4.361   4.821  17.018  0.00  0.00    +0.000 A 
ATOM     18  C   UNL     1       5.085   3.750  16.471  0.00  0.00    +0.000 A 
ATOM     19  C   UNL     1       6.308   3.977  15.850  0.00  0.00    +0.000 A 
ATOM     20  C   UNL     1       6.811   5.273  15.782  0.00  0.00    +0.000 A 
ATOM     21  C   UNL     1       6.086   6.336  16.329  0.00  0.00    +0.000 A 
ATOM     22  C   UNL     1       4.856   6.144  16.944  0.00  0.00    +0.000 A 
ATOM     23  N   UNL     1       4.181   7.204  17.435  0.00  0.00    +0.000 NA
ENDBRANCH   2  14
TORSDOF 1
ENDMDL
MODEL 4
REMARK VINA RESULT:      -7.7      1.551      8.641
REMARK  Name = 
REMARK  1 active torsions:
REMARK  status: ('A' for Active; 'I' for Inactive)
REMARK    1  A    between atoms: C_2  and  C_13
REMARK                            x       y       z     vdW  Elec       q    Type
REMARK                         _______ _______ _______ _____ _____    ______ ____
ROOT
ATOM      1  O   UNL     1       2.225   9.850  17.388  0.00  0.00    +0.000 OA
ATOM      2  C   UNL     1       1.706   9.335  18.375  0.00  0.00    +0.000 C 
ATOM      3  N   UNL     1       1.849   8.037  18.820  0.00  0.00    +0.000 N 
ATOM      4  C   UNL     1       2.689   7.119  18.226  0.00  0.00    +0.000 A 
ATOM      5  C   UNL     1       2.674   5.718  18.454  0.00  0.00    +0.000 A 
ATOM      6  C   UNL     1       3.649   5.198  17.625  0.00  0.00    +0.000 A 
ATOM      7  N   UNL     1       4.226   6.277  17.040  0.00  0.00    +0.000 N 
ATOM      8  N   UNL     1       3.646   7.437  17.357  0.00  0.00    +0.000 NA
ATOM      9  C   UNL     1       5.389   6.289  16.195  0.00  0.00    +0.000 C 
ATOM     10  C   UNL     1       5.987   4.923  15.885  0.00  0.00    +0.000 C 
ATOM     11  C   UNL     1       5.305   3.672  16.443  0.00  0.00    +0.000 C 
ATOM     12  C   UNL     1       4.070   3.813  17.333  0.00  0.00    +0.000 C 
ATOM     13  H   UNL     1       1.256   7.735  19.582  0.00  0.00    +0.000 HD
ENDROOT
BRANCH   2  14
ATOM     14  C   UNL     1       0.756  10.163  19.179  0.00  0.00    +0.000 A 
ATOM     15  C   UNL     1       0.060  11.180  18.542  0.00  0.00    +0.000 A 
ATOM     16  C   UNL     1      -0.858  11.916  19.277  0.00  0.00    +0.000 A 
ATOM     17  C   UNL     1      -1.048  11.614  20.630  0.00  0.00    +0.000 A 
ATOM     18  C   UNL     1      -1.983  12.326  21.398  0.00  0.00    +0.000 A 
ATOM     19  C   UNL     1      -2.168  12.015  22.741  0.00  0.00    +0.000 A 
ATOM     20  C   UNL     1      -1.415  10.996  23.317  0.00  0.00    +0.000 A 
ATOM     21  C   UNL     1      -0.485  10.290  22.548  0.00  0.00    +0.000 A 
ATOM     22  C   UNL     1      -0.285  10.569  21.203  0.00  0.00    +0.000 A 
ATOM     23  N   UNL     1       0.605   9.843  20.495  0.00  0.00    +0.000 NA
ENDBRANCH   2  14
TORSDOF 1
ENDMDL
MODEL 5
REMARK VINA RESULT:      -7.6      0.856      1.029
REMARK  Name = 
REMARK  1 active torsions:
REMARK  status: ('A' for Active; 'I' for Inactive)
REMARK    1  A    between atoms: C_2  and  C_13
REMARK                            x       y       z     vdW  Elec       q    Type
REMARK                         _______ _______ _______ _____ _____    ______ ____
ROOT
ATOM      1  O   UNL     1       1.488   6.707  20.935  0.00  0.00    +0.000 OA
ATOM      2  C   UNL     1       1.943   7.176  19.895  0.00  0.00    +0.000 C 
ATOM      3  N   UNL     1       1.694   8.419  19.353  0.00  0.00    +0.000 N 
ATOM      4  C   UNL     1       0.918   9.377  19.973  0.00  0.00    +0.000 A 
ATOM      5  C   UNL     1       0.403  10.546  19.356  0.00  0.00    +0.000 A 
ATOM      6  C   UNL     1      -0.341  11.181  20.332  0.00  0.00    +0.000 A 
ATOM      7  N   UNL     1      -0.163  10.435  21.451  0.00  0.00    +0.000 N 
ATOM      8  N   UNL     1       0.558   9.330  21.253  0.00  0.00    +0.000 NA
ATOM      9  C   UNL     1      -0.613  10.744  22.781  0.00  0.00    +0.000 C 
ATOM     10  C   UNL     1      -1.429  12.023  22.916  0.00  0.00    +0.000 C 
ATOM     11  C   UNL     1      -1.738  12.840  21.661  0.00  0.00    +0.000 C 
ATOM     12  C   UNL     1      -1.190  12.389  20.306  0.00  0.00    +0.000 C 
ATOM     13  H   UNL     1       2.052   8.606  18.425  0.00  0.00    +0.000 HD
ENDROOT
BRANCH   2  14
ATOM     14  C   UNL     1       2.826   6.303  19.061  0.00  0.00    +0.000 A 
ATOM     15  C   UNL     1       2.925   4.958  19.386  0.00  0.00    +0.000 A 
ATOM     16  C   UNL     1       3.706   4.139  18.583  0.00  0.00    +0.000 A 
ATOM     17  C   UNL     1       4.367   4.694  17.481  0.00  0.00    +0.000 A 
ATOM     18  C   UNL     1       5.149   3.890  16.636  0.00  0.00    +0.000 A 
ATOM     19  C   UNL     1       5.798   4.449  15.541  0.00  0.00    +0.000 A 
ATOM     20  C   UNL     1       5.670   5.813  15.293  0.00  0.00    +0.000 A 
ATOM     21  C   UNL     1       4.890   6.609  16.137  0.00  0.00    +0.000 A 
ATOM     22  C   UNL     1       4.220   6.079  17.232  0.00  0.00    +0.000 A 
ATOM     23  N   UNL     1       3.459   6.882  18.003  0.00  0.00    +0.000 NA
ENDBRANCH   2  14
TORSDOF 1
ENDMDL
MODEL 6
REMARK VINA RESULT:      -7.6      1.280      8.383
REMARK  Name = 
REMARK  1 active torsions:
REMARK  status: ('A' for Active; 'I' for Inactive)
REMARK    1  A    between atoms: C_2  and  C_13
REMARK                            x       y       z     vdW  Elec       q    Type
REMARK                         _______ _______ _______ _____ _____    ______ ____
ROOT
ATOM      1  O   UNL     1       1.326   6.942  21.166  0.00  0.00    +0.000 OA
ATOM      2  C   UNL     1       1.224   8.012  20.572  0.00  0.00    +0.000 C 
ATOM      3  N   UNL     1       1.823   8.376  19.384  0.00  0.00    +0.000 N 
ATOM      4  C   UNL     1       2.599   7.519  18.631  0.00  0.00    +0.000 A 
ATOM      5  C   UNL     1       3.456   7.903  17.568  0.00  0.00    +0.000 A 
ATOM      6  C   UNL     1       4.057   6.736  17.138  0.00  0.00    +0.000 A 
ATOM      7  N   UNL     1       3.484   5.753  17.877  0.00  0.00    +0.000 N 
ATOM      8  N   UNL     1       2.634   6.200  18.803  0.00  0.00    +0.000 NA
ATOM      9  C   UNL     1       3.660   4.334  17.720  0.00  0.00    +0.000 C 
ATOM     10  C   UNL     1       4.649   3.912  16.642  0.00  0.00    +0.000 C 
ATOM     11  C   UNL     1       5.391   4.992  15.854  0.00  0.00    +0.000 C 
ATOM     12  C   UNL     1       5.101   6.468  16.128  0.00  0.00    +0.000 C 
ATOM     13  H   UNL     1       1.735   9.340  19.091  0.00  0.00    +0.000 HD
ENDROOT
BRANCH   2  14
ATOM     14  C   UNL     1       0.412   9.093  21.211  0.00  0.00    +0.000 A 
ATOM     15  C   UNL     1       0.162   9.016  22.574  0.00  0.00    +0.000 A 
ATOM     16  C   UNL     1      -0.549  10.044  23.175  0.00  0.00    +0.000 A 
ATOM     17  C   UNL     1      -0.993  11.116  22.393  0.00  0.00    +0.000 A 
ATOM     18  C   UNL     1      -1.699  12.183  22.973  0.00  0.00    +0.000 A 
ATOM     19  C   UNL     1      -2.130  13.246  22.188  0.00  0.00    +0.000 A 
ATOM     20  C   UNL     1      -1.862  13.241  20.822  0.00  0.00    +0.000 A 
ATOM     21  C   UNL     1      -1.159  12.177  20.249  0.00  0.00    +0.000 A 
ATOM     22  C   UNL     1      -0.705  11.107  21.008  0.00  0.00    +0.000 A 
ATOM     23  N   UNL     1      -0.008  10.115  20.415  0.00  0.00    +0.000 NA
ENDBRANCH   2  14
TORSDOF 1
ENDMDL
MODEL 7
REMARK VINA RESULT:      -7.6      1.961      3.140
REMARK  Name = 
REMARK  1 active torsions:
REMARK  status: ('A' for Active; 'I' for Inactive)
REMARK    1  A    between atoms: C_2  and  C_13
REMARK                            x       y       z     vdW  Elec       q    Type
REMARK                         _______ _______ _______ _____ _____    ______ ____
ROOT
ATOM      1  O   UNL     1       2.244   9.299  17.434  0.00  0.00    +0.000 OA
ATOM      2  C   UNL     1       2.085   8.419  18.277  0.00  0.00    +0.000 C 
ATOM      3  N   UNL     1       1.462   8.530  19.502  0.00  0.00    +0.000 N 
ATOM      4  C   UNL     1       0.840   9.682  19.937  0.00  0.00    +0.000 A 
ATOM      5  C   UNL     1       0.433   9.947  21.270  0.00  0.00    +0.000 A 
ATOM      6  C   UNL     1      -0.099  11.222  21.248  0.00  0.00    +0.000 A 
ATOM      7  N   UNL     1      -0.062  11.595  19.944  0.00  0.00    +0.000 N 
ATOM      8  N   UNL     1       0.528  10.705  19.144  0.00  0.00    +0.000 NA
ATOM      9  C   UNL     1      -0.628  12.784  19.365  0.00  0.00    +0.000 C 
ATOM     10  C   UNL     1      -1.282  13.745  20.349  0.00  0.00    +0.000 C 
ATOM     11  C   UNL     1      -1.255  13.408  21.841  0.00  0.00    +0.000 C 
ATOM     12  C   UNL     1      -0.617  12.102  22.314  0.00  0.00    +0.000 C 
ATOM     13  H   UNL     1       1.523   7.741  20.132  0.00  0.00    +0.000 HD
ENDROOT
BRANCH   2  14
ATOM     14  C   UNL     1       2.676   7.073  18.004  0.00  0.00    +0.000 A 
ATOM     15  C   UNL     1       3.984   7.005  17.546  0.00  0.00    +0.000 A 
ATOM     16  C   UNL     1       4.549   5.754  17.339  0.00  0.00    +0.000 A 
ATOM     17  C   UNL     1       3.784   4.610  17.593  0.00  0.00    +0.000 A 
ATOM     18  C   UNL     1       4.331   3.329  17.413  0.00  0.00    +0.000 A 
ATOM     19  C   UNL     1       3.565   2.198  17.675  0.00  0.00    +0.000 A 
ATOM     20  C   UNL     1       2.251   2.347  18.109  0.00  0.00    +0.000 A 
ATOM     21  C   UNL     1       1.711   3.625  18.286  0.00  0.00    +0.000 A 
ATOM     22  C   UNL     1       2.454   4.773  18.046  0.00  0.00    +0.000 A 
ATOM     23  N   UNL     1       1.898   5.984  18.256  0.00  0.00    +0.000 NA
ENDBRANCH   2  14
TORSDOF 1
ENDMDL
MODEL 8
REMARK VINA RESULT:      -7.4      2.823      7.897
REMARK  Name = 
REMARK  1 active torsions:
REMARK  status: ('A' for Active; 'I' for Inactive)
REMARK    1  A    between atoms: C_2  and  C_13
REMARK                            x       y       z     vdW  Elec       q    Type
REMARK                         _______ _______ _______ _____ _____    ______ ____
ROOT
ATOM      1  O   UNL     1       2.408   8.718  17.351  0.00  0.00    +0.000 OA
ATOM      2  C   UNL     1       1.876   9.071  18.400  0.00  0.00    +0.000 C 
ATOM      3  N   UNL     1       1.678   8.317  19.538  0.00  0.00    +0.000 N 
ATOM      4  C   UNL     1       2.135   7.024  19.682  0.00  0.00    +0.000 A 
ATOM      5  C   UNL     1       1.731   6.115  20.693  0.00  0.00    +0.000 A 
ATOM      6  C   UNL     1       2.407   4.939  20.425  0.00  0.00    +0.000 A 
ATOM      7  N   UNL     1       3.207   5.228  19.368  0.00  0.00    +0.000 N 
ATOM      8  N   UNL     1       3.037   6.459  18.883  0.00  0.00    +0.000 NA
ATOM      9  C   UNL     1       4.217   4.384  18.788  0.00  0.00    +0.000 C 
ATOM     10  C   UNL     1       4.344   2.997  19.402  0.00  0.00    +0.000 C 
ATOM     11  C   UNL     1       3.391   2.597  20.530  0.00  0.00    +0.000 C 
ATOM     12  C   UNL     1       2.363   3.602  21.049  0.00  0.00    +0.000 C 
ATOM     13  H   UNL     1       1.113   8.720  20.274  0.00  0.00    +0.000 HD
ENDROOT
BRANCH   2  14
ATOM     14  C   UNL     1       1.312  10.454  18.469  0.00  0.00    +0.000 A 
ATOM     15  C   UNL     1      -0.059  10.604  18.617  0.00  0.00    +0.000 A 
ATOM     16  C   UNL     1      -0.577  11.886  18.730  0.00  0.00    +0.000 A 
ATOM     17  C   UNL     1       0.294  12.981  18.686  0.00  0.00    +0.000 A 
ATOM     18  C   UNL     1      -0.194  14.290  18.816  0.00  0.00    +0.000 A 
ATOM     19  C   UNL     1       0.680  15.370  18.778  0.00  0.00    +0.000 A 
ATOM     20  C   UNL     1       2.042  15.142  18.602  0.00  0.00    +0.000 A 
ATOM     21  C   UNL     1       2.524  13.836  18.472  0.00  0.00    +0.000 A 
ATOM     22  C   UNL     1       1.678  12.736  18.519  0.00  0.00    +0.000 A 
ATOM     23  N   UNL     1       2.191  11.493  18.414  0.00  0.00    +0.000 NA
ENDBRANCH   2  14
TORSDOF 1
ENDMDL
MODEL 9
REMARK VINA RESULT:      -7.3      1.795      8.638
REMARK  Name = 
REMARK  1 active torsions:
REMARK  status: ('A' for Active; 'I' for Inactive)
REMARK    1  A    between atoms: C_2  and  C_13
REMARK                            x       y       z     vdW  Elec       q    Type
REMARK                         _______ _______ _______ _____ _____    ______ ____
ROOT
ATOM      1  O   UNL     1       1.460   9.075  19.158  0.00  0.00    +0.000 OA
ATOM      2  C   UNL     1       1.138   8.784  20.307  0.00  0.00    +0.000 C 
ATOM      3  N   UNL     1       1.316   7.578  20.951  0.00  0.00    +0.000 N 
ATOM      4  C   UNL     1       1.976   6.506  20.387  0.00  0.00    +0.000 A 
ATOM      5  C   UNL     1       1.950   5.174  20.874  0.00  0.00    +0.000 A 
ATOM      6  C   UNL     1       2.709   4.440  19.982  0.00  0.00    +0.000 A 
ATOM      7  N   UNL     1       3.195   5.350  19.102  0.00  0.00    +0.000 N 
ATOM      8  N   UNL     1       2.743   6.589  19.302  0.00  0.00    +0.000 NA
ATOM      9  C   UNL     1       4.156   5.121  18.057  0.00  0.00    +0.000 C 
ATOM     10  C   UNL     1       4.619   3.679  17.898  0.00  0.00    +0.000 C 
ATOM     11  C   UNL     1       4.018   2.604  18.806  0.00  0.00    +0.000 C 
ATOM     12  C   UNL     1       3.003   2.996  19.879  0.00  0.00    +0.000 C 
ATOM     13  H   UNL     1       0.883   7.463  21.858  0.00  0.00    +0.000 HD
ENDROOT
BRANCH   2  14
ATOM     14  C   UNL     1       0.411   9.814  21.112  0.00  0.00    +0.000 A 
ATOM     15  C   UNL     1      -0.210   9.418  22.287  0.00  0.00    +0.000 A 
ATOM     16  C   UNL     1      -0.843  10.382  23.059  0.00  0.00    +0.000 A 
ATOM     17  C   UNL     1      -0.839  11.713  22.627  0.00  0.00    +0.000 A 
ATOM     18  C   UNL     1      -1.453  12.716  23.394  0.00  0.00    +0.000 A 
ATOM     19  C   UNL     1      -1.438  14.037  22.959  0.00  0.00    +0.000 A 
ATOM     20  C   UNL     1      -0.815  14.354  21.754  0.00  0.00    +0.000 A 
ATOM     21  C   UNL     1      -0.206  13.351  20.995  0.00  0.00    +0.000 A 
ATOM     22  C   UNL     1      -0.193  12.025  21.408  0.00  0.00    +0.000 A 
ATOM     23  N   UNL     1       0.430  11.096  20.654  0.00  0.00    +0.000 NA
ENDBRANCH   2  14
TORSDOF 1
ENDMDL
