MODEL 1
REMARK VINA RESULT:      -8.9      0.000      0.000
REMARK  Name = 
REMARK  4 active torsions:
REMARK  status: ('A' for Active; 'I' for Inactive)
REMARK    1  A    between atoms: C_1  and  C_2
REMARK    2  A    between atoms: C_6  and  C_8
REMARK    3  A    between atoms: C_12  and  N_13
REMARK    4  A    between atoms: C_22  and  C_23
REMARK                            x       y       z     vdW  Elec       q    Type
REMARK                         _______ _______ _______ _____ _____    ______ ____
ROOT
ATOM      1  C   UNL     1       3.224   3.469  19.943  0.00  0.00    +0.000 C 
ATOM      2  C   UNL     1       3.131   4.894  19.523  0.00  0.00    +0.000 A 
ATOM      3  S   UNL     1       2.007   5.942  20.311  0.00  0.00    +0.000 S 
ATOM      4  C   UNL     1       2.397   7.176  19.209  0.00  0.00    +0.000 A 
ATOM      5  N   UNL     1       1.651   8.317  19.332  0.00  0.00    +0.000 N 
ATOM      6  C   UNL     1       1.744   9.329  18.401  0.00  0.00    +0.000 C 
ATOM      7  O   UNL     1       2.486   9.364  17.426  0.00  0.00    +0.000 OA
ATOM      8  N   UNL     1       3.338   6.899  18.350  0.00  0.00    +0.000 NA
ATOM      9  C   UNL     1       3.795   5.604  18.526  0.00  0.00    +0.000 A 
ATOM     10  H   UNL     1       1.018   8.358  20.115  0.00  0.00    +0.000 HD
ENDROOT
BRANCH   6  11
ATOM     11  C   UNL     1       0.824  10.487  18.591  0.00  0.00    +0.000 A 
ATOM     12  C   UNL     1       1.384  11.709  18.980  0.00  0.00    +0.000 A 
ATOM     13  C   UNL     1       0.590  12.847  19.056  0.00  0.00    +0.000 A 
ATOM     14  C   UNL     1      -0.764  12.777  18.715  0.00  0.00    +0.000 A 
ATOM     15  C   UNL     1      -1.354  11.569  18.309  0.00  0.00    +0.000 A 
ATOM     16  C   UNL     1      -0.540  10.421  18.275  0.00  0.00    +0.000 A 
BRANCH  15  17
ATOM     17  N   UNL     1      -2.713  11.515  17.876  0.00  0.00    +0.000 N 
ATOM     18  C   UNL     1      -3.115  11.118  16.620  0.00  0.00    +0.000 C 
ATOM     19  O   UNL     1      -2.434  10.786  15.658  0.00  0.00    +0.000 OA
ATOM     20  C   UNL     1      -4.611  11.053  16.577  0.00  0.00    +0.000 C 
ATOM     21  C   UNL     1      -5.061  11.568  17.922  0.00  0.00    +0.000 C 
ATOM     22  C   UNL     1      -3.793  11.804  18.681  0.00  0.00    +0.000 C 
ATOM     23  O   UNL     1      -3.798  12.233  19.830  0.00  0.00    +0.000 OA
ENDBRANCH  15  17
ENDBRANCH   6  11
BRANCH   9  24
ATOM     24  C   UNL     1       4.833   5.087  17.634  0.00  0.00    +0.000 A 
ATOM     25  C   UNL     1       4.545   4.447  16.422  0.00  0.00    +0.000 A 
ATOM     26  C   UNL     1       5.572   3.998  15.585  0.00  0.00    +0.000 A 
ATOM     27  C   UNL     1       6.902   4.151  15.967  0.00  0.00    +0.000 A 
ATOM     28  C   UNL     1       7.206   4.741  17.191  0.00  0.00    +0.000 A 
ATOM     29  C   UNL     1       6.179   5.203  18.018  0.00  0.00    +0.000 A 
ENDBRANCH   9  24
TORSDOF 3
ENDMDL
MODEL 2
REMARK VINA RESULT:      -8.9      2.456      3.426
REMARK  Name = 
REMARK  4 active torsions:
REMARK  status: ('A' for Active; 'I' for Inactive)
REMARK    1  A    between atoms: C_1  and  C_2
REMARK    2  A    between atoms: C_6  and  C_8
REMARK    3  A    between atoms: C_12  and  N_13
REMARK    4  A    between atoms: C_22  and  C_23
REMARK                            x       y       z     vdW  Elec       q    Type
REMARK                         _______ _______ _______ _____ _____    ______ ____
ROOT
ATOM      1  C   UNL     1       3.455   2.115  19.456  0.00  0.00    +0.000 C 
ATOM      2  C   UNL     1       3.298   3.590  19.573  0.00  0.00    +0.000 A 
ATOM      3  S   UNL     1       2.235   4.242  20.768  0.00  0.00    +0.000 S 
ATOM      4  C   UNL     1       2.498   5.800  20.141  0.00  0.00    +0.000 A 
ATOM      5  N   UNL     1       1.747   6.788  20.718  0.00  0.00    +0.000 N 
ATOM      6  C   UNL     1       1.734   8.065  20.198  0.00  0.00    +0.000 C 
ATOM      7  O   UNL     1       2.380   8.474  19.240  0.00  0.00    +0.000 OA
ATOM      8  N   UNL     1       3.358   5.887  19.166  0.00  0.00    +0.000 NA
ATOM      9  C   UNL     1       3.852   4.635  18.838  0.00  0.00    +0.000 A 
ATOM     10  H   UNL     1       1.190   6.523  21.515  0.00  0.00    +0.000 HD
ENDROOT
BRANCH   6  11
ATOM     11  C   UNL     1       0.816   9.037  20.858  0.00  0.00    +0.000 A 
ATOM     12  C   UNL     1       0.186   8.640  22.042  0.00  0.00    +0.000 A 
ATOM     13  C   UNL     1      -0.584   9.548  22.760  0.00  0.00    +0.000 A 
ATOM     14  C   UNL     1      -0.705  10.867  22.313  0.00  0.00    +0.000 A 
ATOM     15  C   UNL     1      -0.075  11.301  21.136  0.00  0.00    +0.000 A 
ATOM     16  C   UNL     1       0.670  10.356  20.405  0.00  0.00    +0.000 A 
BRANCH  15  17
ATOM     17  N   UNL     1      -0.125  12.667  20.726  0.00  0.00    +0.000 N 
ATOM     18  C   UNL     1       0.878  13.584  20.952  0.00  0.00    +0.000 C 
ATOM     19  O   UNL     1       1.938  13.442  21.547  0.00  0.00    +0.000 OA
ATOM     20  C   UNL     1       0.537  14.870  20.262  0.00  0.00    +0.000 C 
ATOM     21  C   UNL     1      -0.842  14.650  19.690  0.00  0.00    +0.000 C 
ATOM     22  C   UNL     1      -1.161  13.222  20.008  0.00  0.00    +0.000 C 
ATOM     23  O   UNL     1      -2.227  12.709  19.683  0.00  0.00    +0.000 OA
ENDBRANCH  15  17
ENDBRANCH   6  11
BRANCH   9  24
ATOM     24  C   UNL     1       4.810   4.513  17.739  0.00  0.00    +0.000 A 
ATOM     25  C   UNL     1       4.429   4.197  16.428  0.00  0.00    +0.000 A 
ATOM     26  C   UNL     1       5.376   4.123  15.402  0.00  0.00    +0.000 A 
ATOM     27  C   UNL     1       6.725   4.330  15.680  0.00  0.00    +0.000 A 
ATOM     28  C   UNL     1       7.128   4.596  16.986  0.00  0.00    +0.000 A 
ATOM     29  C   UNL     1       6.178   4.686  18.006  0.00  0.00    +0.000 A 
ENDBRANCH   9  24
TORSDOF 3
ENDMDL
MODEL 3
REMARK VINA RESULT:      -8.8      2.429      3.374
REMARK  Name = 
REMARK  4 active torsions:
REMARK  status: ('A' for Active; 'I' for Inactive)
REMARK    1  A    between atoms: C_1  and  C_2
REMARK    2  A    between atoms: C_6  and  C_8
REMARK    3  A    between atoms: C_12  and  N_13
REMARK    4  A    between atoms: C_22  and  C_23
REMARK                            x       y       z     vdW  Elec       q    Type
REMARK                         _______ _______ _______ _____ _____    ______ ____
ROOT
ATOM      1  C   UNL     1       3.597   2.055  19.228  0.00  0.00    +0.000 C 
ATOM      2  C   UNL     1       3.423   3.527  19.368  0.00  0.00    +0.000 A 
ATOM      3  S   UNL     1       2.360   4.147  20.580  0.00  0.00    +0.000 S 
ATOM      4  C   UNL     1       2.600   5.718  19.976  0.00  0.00    +0.000 A 
ATOM      5  N   UNL     1       1.840   6.687  20.572  0.00  0.00    +0.000 N 
ATOM      6  C   UNL     1       1.809   7.971  20.072  0.00  0.00    +0.000 C 
ATOM      7  O   UNL     1       2.443   8.403  19.117  0.00  0.00    +0.000 OA
ATOM      8  N   UNL     1       3.453   5.830  18.996  0.00  0.00    +0.000 NA
ATOM      9  C   UNL     1       3.960   4.589  18.646  0.00  0.00    +0.000 A 
ATOM     10  H   UNL     1       1.292   6.403  21.369  0.00  0.00    +0.000 HD
ENDROOT
BRANCH   6  11
ATOM     11  C   UNL     1       0.883   8.922  20.753  0.00  0.00    +0.000 A 
ATOM     12  C   UNL     1       0.263   8.498  21.932  0.00  0.00    +0.000 A 
ATOM     13  C   UNL     1      -0.514   9.384  22.669  0.00  0.00    +0.000 A 
ATOM     14  C   UNL     1      -0.652  10.709  22.246  0.00  0.00    +0.000 A 
ATOM     15  C   UNL     1      -0.031  11.171  21.073  0.00  0.00    +0.000 A 
ATOM     16  C   UNL     1       0.720  10.247  20.323  0.00  0.00    +0.000 A 
BRANCH  15  17
ATOM     17  N   UNL     1      -0.098  12.543  20.688  0.00  0.00    +0.000 N 
ATOM     18  C   UNL     1      -1.156  13.111  20.013  0.00  0.00    +0.000 C 
ATOM     19  O   UNL     1      -2.179  12.585  19.594  0.00  0.00    +0.000 OA
ATOM     20  C   UNL     1      -0.938  14.589  19.906  0.00  0.00    +0.000 C 
ATOM     21  C   UNL     1       0.430  14.824  20.497  0.00  0.00    +0.000 C 
ATOM     22  C   UNL     1       0.866  13.480  20.990  0.00  0.00    +0.000 C 
ATOM     23  O   UNL     1       1.953  13.311  21.532  0.00  0.00    +0.000 OA
ENDBRANCH  15  17
ENDBRANCH   6  11
BRANCH   9  24
ATOM     24  C   UNL     1       4.913   4.496  17.540  0.00  0.00    +0.000 A 
ATOM     25  C   UNL     1       4.530   4.178  16.230  0.00  0.00    +0.000 A 
ATOM     26  C   UNL     1       5.471   4.133  15.197  0.00  0.00    +0.000 A 
ATOM     27  C   UNL     1       6.816   4.370  15.467  0.00  0.00    +0.000 A 
ATOM     28  C   UNL     1       7.223   4.639  16.771  0.00  0.00    +0.000 A 
ATOM     29  C   UNL     1       6.278   4.700  17.799  0.00  0.00    +0.000 A 
ENDBRANCH   9  24
TORSDOF 3
ENDMDL
MODEL 4
REMARK VINA RESULT:      -8.8      0.243      1.454
REMARK  Name = 
REMARK  4 active torsions:
REMARK  status: ('A' for Active; 'I' for Inactive)
REMARK    1  A    between atoms: C_1  and  C_2
REMARK    2  A    between atoms: C_6  and  C_8
REMARK    3  A    between atoms: C_12  and  N_13
REMARK    4  A    between atoms: C_22  and  C_23
REMARK                            x       y       z     vdW  Elec       q    Type
REMARK                         _______ _______ _______ _____ _____    ______ ____
ROOT
ATOM      1  C   UNL     1       3.302   3.662  19.994  0.00  0.00    +0.000 C 
ATOM      2  C   UNL     1       3.179   5.072  19.532  0.00  0.00    +0.000 A 
ATOM      3  S   UNL     1       2.074   6.135  20.329  0.00  0.00    +0.000 S 
ATOM      4  C   UNL     1       2.410   7.336  19.174  0.00  0.00    +0.000 A 
ATOM      5  N   UNL     1       1.657   8.473  19.289  0.00  0.00    +0.000 N 
ATOM      6  C   UNL     1       1.704   9.456  18.323  0.00  0.00    +0.000 C 
ATOM      7  O   UNL     1       2.408   9.466  17.320  0.00  0.00    +0.000 OA
ATOM      8  N   UNL     1       3.320   7.040  18.289  0.00  0.00    +0.000 NA
ATOM      9  C   UNL     1       3.796   5.755  18.489  0.00  0.00    +0.000 A 
ATOM     10  H   UNL     1       1.054   8.534  20.094  0.00  0.00    +0.000 HD
ENDROOT
BRANCH   6  11
ATOM     11  C   UNL     1       0.781  10.611  18.512  0.00  0.00    +0.000 A 
ATOM     12  C   UNL     1       1.344  11.855  18.817  0.00  0.00    +0.000 A 
ATOM     13  C   UNL     1       0.540  12.986  18.885  0.00  0.00    +0.000 A 
ATOM     14  C   UNL     1      -0.829  12.887  18.620  0.00  0.00    +0.000 A 
ATOM     15  C   UNL     1      -1.424  11.656  18.299  0.00  0.00    +0.000 A 
ATOM     16  C   UNL     1      -0.598  10.516  18.272  0.00  0.00    +0.000 A 
BRANCH  15  17
ATOM     17  N   UNL     1      -2.803  11.567  17.943  0.00  0.00    +0.000 N 
ATOM     18  C   UNL     1      -3.847  11.844  18.798  0.00  0.00    +0.000 C 
ATOM     19  O   UNL     1      -3.816  12.167  19.978  0.00  0.00    +0.000 OA
ATOM     20  C   UNL     1      -5.137  11.781  18.040  0.00  0.00    +0.000 C 
ATOM     21  C   UNL     1      -4.752  11.321  16.655  0.00  0.00    +0.000 C 
ATOM     22  C   UNL     1      -3.258  11.243  16.683  0.00  0.00    +0.000 C 
ATOM     23  O   UNL     1      -2.609  10.892  15.703  0.00  0.00    +0.000 OA
ENDBRANCH  15  17
ENDBRANCH   6  11
BRANCH   9  24
ATOM     24  C   UNL     1       4.806   5.219  17.575  0.00  0.00    +0.000 A 
ATOM     25  C   UNL     1       4.517   4.244  16.610  0.00  0.00    +0.000 A 
ATOM     26  C   UNL     1       5.507   3.785  15.735  0.00  0.00    +0.000 A 
ATOM     27  C   UNL     1       6.808   4.269  15.836  0.00  0.00    +0.000 A 
ATOM     28  C   UNL     1       7.124   5.202  16.820  0.00  0.00    +0.000 A 
ATOM     29  C   UNL     1       6.130   5.672  17.682  0.00  0.00    +0.000 A 
ENDBRANCH   9  24
TORSDOF 3
ENDMDL
MODEL 5
REMARK VINA RESULT:      -8.6      3.040      9.786
REMARK  Name = 
REMARK  4 active torsions:
REMARK  status: ('A' for Active; 'I' for Inactive)
REMARK    1  A    between atoms: C_1  and  C_2
REMARK    2  A    between atoms: C_6  and  C_8
REMARK    3  A    between atoms: C_12  and  N_13
REMARK    4  A    between atoms: C_22  and  C_23
REMARK                            x       y       z     vdW  Elec       q    Type
REMARK                         _______ _______ _______ _____ _____    ______ ____
ROOT
ATOM      1  C   UNL     1      -0.092  12.909  18.445  0.00  0.00    +0.000 C 
ATOM      2  C   UNL     1       0.256  11.654  19.165  0.00  0.00    +0.000 A 
ATOM      3  S   UNL     1       1.475  10.613  18.520  0.00  0.00    +0.000 S 
ATOM      4  C   UNL     1       1.131   9.473  19.734  0.00  0.00    +0.000 A 
ATOM      5  N   UNL     1       1.816   8.293  19.626  0.00  0.00    +0.000 N 
ATOM      6  C   UNL     1       1.513   7.221  20.439  0.00  0.00    +0.000 C 
ATOM      7  O   UNL     1       0.678   7.192  21.335  0.00  0.00    +0.000 OA
ATOM      8  N   UNL     1       0.238   9.827  20.615  0.00  0.00    +0.000 NA
ATOM      9  C   UNL     1      -0.261  11.086  20.326  0.00  0.00    +0.000 A 
ATOM     10  H   UNL     1       2.522   8.245  18.909  0.00  0.00    +0.000 HD
ENDROOT
BRANCH   6  11
ATOM     11  C   UNL     1       2.267   5.961  20.177  0.00  0.00    +0.000 A 
ATOM     12  C   UNL     1       1.660   4.751  20.530  0.00  0.00    +0.000 A 
ATOM     13  C   UNL     1       2.266   3.545  20.201  0.00  0.00    +0.000 A 
ATOM     14  C   UNL     1       3.469   3.540  19.489  0.00  0.00    +0.000 A 
ATOM     15  C   UNL     1       4.098   4.736  19.108  0.00  0.00    +0.000 A 
ATOM     16  C   UNL     1       3.486   5.947  19.485  0.00  0.00    +0.000 A 
BRANCH  15  17
ATOM     17  N   UNL     1       5.279   4.733  18.307  0.00  0.00    +0.000 N 
ATOM     18  C   UNL     1       6.543   5.003  18.783  0.00  0.00    +0.000 C 
ATOM     19  O   UNL     1       6.894   5.320  19.912  0.00  0.00    +0.000 OA
ATOM     20  C   UNL     1       7.543   4.768  17.692  0.00  0.00    +0.000 C 
ATOM     21  C   UNL     1       6.717   4.435  16.474  0.00  0.00    +0.000 C 
ATOM     22  C   UNL     1       5.305   4.408  16.969  0.00  0.00    +0.000 C 
ATOM     23  O   UNL     1       4.362   4.166  16.222  0.00  0.00    +0.000 OA
ENDBRANCH  15  17
ENDBRANCH   6  11
BRANCH   9  24
ATOM     24  C   UNL     1      -1.303  11.653  21.182  0.00  0.00    +0.000 A 
ATOM     25  C   UNL     1      -1.284  11.541  22.579  0.00  0.00    +0.000 A 
ATOM     26  C   UNL     1      -2.285  12.128  23.360  0.00  0.00    +0.000 A 
ATOM     27  C   UNL     1      -3.339  12.805  22.752  0.00  0.00    +0.000 A 
ATOM     28  C   UNL     1      -3.400  12.884  21.364  0.00  0.00    +0.000 A 
ATOM     29  C   UNL     1      -2.390  12.311  20.586  0.00  0.00    +0.000 A 
ENDBRANCH   9  24
TORSDOF 3
ENDMDL
MODEL 6
REMARK VINA RESULT:      -8.6      3.026      9.693
REMARK  Name = 
REMARK  4 active torsions:
REMARK  status: ('A' for Active; 'I' for Inactive)
REMARK    1  A    between atoms: C_1  and  C_2
REMARK    2  A    between atoms: C_6  and  C_8
REMARK    3  A    between atoms: C_12  and  N_13
REMARK    4  A    between atoms: C_22  and  C_23
REMARK                            x       y       z     vdW  Elec       q    Type
REMARK                         _______ _______ _______ _____ _____    ______ ____
ROOT
ATOM      1  C   UNL     1       0.118  12.990  18.289  0.00  0.00    +0.000 C 
ATOM      2  C   UNL     1       0.433  11.741  19.036  0.00  0.00    +0.000 A 
ATOM      3  S   UNL     1       1.609  10.645  18.404  0.00  0.00    +0.000 S 
ATOM      4  C   UNL     1       1.243   9.547  19.649  0.00  0.00    +0.000 A 
ATOM      5  N   UNL     1       1.886   8.342  19.562  0.00  0.00    +0.000 N 
ATOM      6  C   UNL     1       1.558   7.301  20.405  0.00  0.00    +0.000 C 
ATOM      7  O   UNL     1       0.733   7.321  21.311  0.00  0.00    +0.000 OA
ATOM      8  N   UNL     1       0.373   9.951  20.531  0.00  0.00    +0.000 NA
ATOM      9  C   UNL     1      -0.088  11.220  20.217  0.00  0.00    +0.000 A 
ATOM     10  H   UNL     1       2.582   8.254  18.839  0.00  0.00    +0.000 HD
ENDROOT
BRANCH   6  11
ATOM     11  C   UNL     1       2.267   6.011  20.166  0.00  0.00    +0.000 A 
ATOM     12  C   UNL     1       1.620   4.830  20.546  0.00  0.00    +0.000 A 
ATOM     13  C   UNL     1       2.182   3.597  20.238  0.00  0.00    +0.000 A 
ATOM     14  C   UNL     1       3.381   3.536  19.522  0.00  0.00    +0.000 A 
ATOM     15  C   UNL     1       4.049   4.702  19.115  0.00  0.00    +0.000 A 
ATOM     16  C   UNL     1       3.482   5.940  19.469  0.00  0.00    +0.000 A 
BRANCH  15  17
ATOM     17  N   UNL     1       5.226   4.641  18.309  0.00  0.00    +0.000 N 
ATOM     18  C   UNL     1       5.241   4.278  16.981  0.00  0.00    +0.000 C 
ATOM     19  O   UNL     1       4.316   3.916  16.266  0.00  0.00    +0.000 OA
ATOM     20  C   UNL     1       6.623   4.465  16.433  0.00  0.00    +0.000 C 
ATOM     21  C   UNL     1       7.459   4.876  17.620  0.00  0.00    +0.000 C 
ATOM     22  C   UNL     1       6.484   4.989  18.749  0.00  0.00    +0.000 C 
ATOM     23  O   UNL     1       6.838   5.308  19.880  0.00  0.00    +0.000 OA
ENDBRANCH  15  17
ENDBRANCH   6  11
BRANCH   9  24
ATOM     24  C   UNL     1      -1.101  11.841  21.070  0.00  0.00    +0.000 A 
ATOM     25  C   UNL     1      -0.921  12.035  22.447  0.00  0.00    +0.000 A 
ATOM     26  C   UNL     1      -1.903  12.664  23.217  0.00  0.00    +0.000 A 
ATOM     27  C   UNL     1      -3.095  13.077  22.629  0.00  0.00    +0.000 A 
ATOM     28  C   UNL     1      -3.311  12.850  21.273  0.00  0.00    +0.000 A 
ATOM     29  C   UNL     1      -2.322  12.235  20.501  0.00  0.00    +0.000 A 
ENDBRANCH   9  24
TORSDOF 3
ENDMDL
MODEL 7
REMARK VINA RESULT:      -8.5      2.644      3.508
REMARK  Name = 
REMARK  4 active torsions:
REMARK  status: ('A' for Active; 'I' for Inactive)
REMARK    1  A    between atoms: C_1  and  C_2
REMARK    2  A    between atoms: C_6  and  C_8
REMARK    3  A    between atoms: C_12  and  N_13
REMARK    4  A    between atoms: C_22  and  C_23
REMARK                            x       y       z     vdW  Elec       q    Type
REMARK                         _______ _______ _______ _____ _____    ______ ____
ROOT
ATOM      1  C   UNL     1       3.440   2.635  19.206  0.00  0.00    +0.000 C 
ATOM      2  C   UNL     1       3.196   4.094  19.373  0.00  0.00    +0.000 A 
ATOM      3  S   UNL     1       2.283   4.654  20.729  0.00  0.00    +0.000 S 
ATOM      4  C   UNL     1       2.334   6.233  20.100  0.00  0.00    +0.000 A 
ATOM      5  N   UNL     1       1.609   7.157  20.803  0.00  0.00    +0.000 N 
ATOM      6  C   UNL     1       1.424   8.433  20.316  0.00  0.00    +0.000 C 
ATOM      7  O   UNL     1       1.885   8.897  19.279  0.00  0.00    +0.000 OA
ATOM      8  N   UNL     1       3.026   6.391  19.007  0.00  0.00    +0.000 NA
ATOM      9  C   UNL     1       3.554   5.183  18.584  0.00  0.00    +0.000 A 
ATOM     10  H   UNL     1       1.202   6.844  21.670  0.00  0.00    +0.000 HD
ENDROOT
BRANCH   6  11
ATOM     11  C   UNL     1       0.550   9.329  21.126  0.00  0.00    +0.000 A 
ATOM     12  C   UNL     1       0.154   8.884  22.392  0.00  0.00    +0.000 A 
ATOM     13  C   UNL     1      -0.561   9.727  23.235  0.00  0.00    +0.000 A 
ATOM     14  C   UNL     1      -0.859  11.031  22.829  0.00  0.00    +0.000 A 
ATOM     15  C   UNL     1      -0.465  11.512  21.570  0.00  0.00    +0.000 A 
ATOM     16  C   UNL     1       0.226  10.630  20.718  0.00  0.00    +0.000 A 
BRANCH  15  17
ATOM     17  N   UNL     1      -0.691  12.869  21.189  0.00  0.00    +0.000 N 
ATOM     18  C   UNL     1      -1.869  13.341  20.653  0.00  0.00    +0.000 C 
ATOM     19  O   UNL     1      -2.891  12.729  20.372  0.00  0.00    +0.000 OA
ATOM     20  C   UNL     1      -1.787  14.830  20.512  0.00  0.00    +0.000 C 
ATOM     21  C   UNL     1      -0.377  15.182  20.921  0.00  0.00    +0.000 C 
ATOM     22  C   UNL     1       0.225  13.884  21.360  0.00  0.00    +0.000 C 
ATOM     23  O   UNL     1       1.383  13.810  21.758  0.00  0.00    +0.000 OA
ENDBRANCH  15  17
ENDBRANCH   6  11
BRANCH   9  24
ATOM     24  C   UNL     1       4.340   5.142  17.350  0.00  0.00    +0.000 A 
ATOM     25  C   UNL     1       4.646   6.288  16.605  0.00  0.00    +0.000 A 
ATOM     26  C   UNL     1       5.429   6.206  15.449  0.00  0.00    +0.000 A 
ATOM     27  C   UNL     1       5.887   4.969  15.002  0.00  0.00    +0.000 A 
ATOM     28  C   UNL     1       5.552   3.814  15.703  0.00  0.00    +0.000 A 
ATOM     29  C   UNL     1       4.783   3.901  16.867  0.00  0.00    +0.000 A 
ENDBRANCH   9  24
TORSDOF 3
ENDMDL
MODEL 8
REMARK VINA RESULT:      -8.4      3.006      9.669
REMARK  Name = 
REMARK  4 active torsions:
REMARK  status: ('A' for Active; 'I' for Inactive)
REMARK    1  A    between atoms: C_1  and  C_2
REMARK    2  A    between atoms: C_6  and  C_8
REMARK    3  A    between atoms: C_12  and  N_13
REMARK    4  A    between atoms: C_22  and  C_23
REMARK                            x       y       z     vdW  Elec       q    Type
REMARK                         _______ _______ _______ _____ _____    ______ ____
ROOT
ATOM      1  C   UNL     1      -1.375  12.446  18.228  0.00  0.00    +0.000 C 
ATOM      2  C   UNL     1      -0.512  11.456  18.930  0.00  0.00    +0.000 A 
ATOM      3  S   UNL     1       0.209  10.168  18.033  0.00  0.00    +0.000 S 
ATOM      4  C   UNL     1       0.799   9.500  19.481  0.00  0.00    +0.000 A 
ATOM      5  N   UNL     1       1.430   8.294  19.345  0.00  0.00    +0.000 N 
ATOM      6  C   UNL     1       1.806   7.561  20.450  0.00  0.00    +0.000 C 
ATOM      7  O   UNL     1       1.676   7.885  21.625  0.00  0.00    +0.000 OA
ATOM      8  N   UNL     1       0.565  10.187  20.564  0.00  0.00    +0.000 NA
ATOM      9  C   UNL     1      -0.164  11.328  20.272  0.00  0.00    +0.000 A 
ATOM     10  H   UNL     1       1.574   7.965  18.403  0.00  0.00    +0.000 HD
ENDROOT
BRANCH   6  11
ATOM     11  C   UNL     1       2.411   6.225  20.182  0.00  0.00    +0.000 A 
ATOM     12  C   UNL     1       1.671   5.091  20.530  0.00  0.00    +0.000 A 
ATOM     13  C   UNL     1       2.135   3.825  20.194  0.00  0.00    +0.000 A 
ATOM     14  C   UNL     1       3.330   3.686  19.481  0.00  0.00    +0.000 A 
ATOM     15  C   UNL     1       4.091   4.805  19.105  0.00  0.00    +0.000 A 
ATOM     16  C   UNL     1       3.621   6.075  19.489  0.00  0.00    +0.000 A 
BRANCH  15  17
ATOM     17  N   UNL     1       5.263   4.671  18.303  0.00  0.00    +0.000 N 
ATOM     18  C   UNL     1       5.262   4.281  16.982  0.00  0.00    +0.000 C 
ATOM     19  O   UNL     1       4.320   3.951  16.273  0.00  0.00    +0.000 OA
ATOM     20  C   UNL     1       6.651   4.389  16.433  0.00  0.00    +0.000 C 
ATOM     21  C   UNL     1       7.506   4.782  17.613  0.00  0.00    +0.000 C 
ATOM     22  C   UNL     1       6.537   4.965  18.738  0.00  0.00    +0.000 C 
ATOM     23  O   UNL     1       6.905   5.288  19.863  0.00  0.00    +0.000 OA
ENDBRANCH  15  17
ENDBRANCH   6  11
BRANCH   9  24
ATOM     24  C   UNL     1      -0.558  12.220  21.362  0.00  0.00    +0.000 A 
ATOM     25  C   UNL     1       0.061  13.455  21.597  0.00  0.00    +0.000 A 
ATOM     26  C   UNL     1      -0.372  14.290  22.631  0.00  0.00    +0.000 A 
ATOM     27  C   UNL     1      -1.408  13.886  23.469  0.00  0.00    +0.000 A 
ATOM     28  C   UNL     1      -2.003  12.642  23.281  0.00  0.00    +0.000 A 
ATOM     29  C   UNL     1      -1.580  11.816  22.237  0.00  0.00    +0.000 A 
ENDBRANCH   9  24
TORSDOF 3
ENDMDL
MODEL 9
REMARK VINA RESULT:      -8.4      2.055      3.287
REMARK  Name = 
REMARK  4 active torsions:
REMARK  status: ('A' for Active; 'I' for Inactive)
REMARK    1  A    between atoms: C_1  and  C_2
REMARK    2  A    between atoms: C_6  and  C_8
REMARK    3  A    between atoms: C_12  and  N_13
REMARK    4  A    between atoms: C_22  and  C_23
REMARK                            x       y       z     vdW  Elec       q    Type
REMARK                         _______ _______ _______ _____ _____    ______ ____
ROOT
ATOM      1  C   UNL     1       3.655   3.359  19.972  0.00  0.00    +0.000 C 
ATOM      2  C   UNL     1       3.401   4.765  19.553  0.00  0.00    +0.000 A 
ATOM      3  S   UNL     1       2.178   5.684  20.355  0.00  0.00    +0.000 S 
ATOM      4  C   UNL     1       2.417   6.952  19.248  0.00  0.00    +0.000 A 
ATOM      5  N   UNL     1       1.551   8.004  19.380  0.00  0.00    +0.000 N 
ATOM      6  C   UNL     1       1.521   9.019  18.448  0.00  0.00    +0.000 C 
ATOM      7  O   UNL     1       2.242   9.134  17.464  0.00  0.00    +0.000 OA
ATOM      8  N   UNL     1       3.371   6.779  18.377  0.00  0.00    +0.000 NA
ATOM      9  C   UNL     1       3.970   5.541  18.548  0.00  0.00    +0.000 A 
ATOM     10  H   UNL     1       0.927   7.977  20.172  0.00  0.00    +0.000 HD
ENDROOT
BRANCH   6  11
ATOM     11  C   UNL     1       0.482  10.069  18.650  0.00  0.00    +0.000 A 
ATOM     12  C   UNL     1      -0.647  10.039  17.825  0.00  0.00    +0.000 A 
ATOM     13  C   UNL     1      -1.698  10.920  18.049  0.00  0.00    +0.000 A 
ATOM     14  C   UNL     1      -1.640  11.818  19.118  0.00  0.00    +0.000 A 
ATOM     15  C   UNL     1      -0.527  11.866  19.973  0.00  0.00    +0.000 A 
ATOM     16  C   UNL     1       0.542  10.990  19.706  0.00  0.00    +0.000 A 
BRANCH  15  17
ATOM     17  N   UNL     1      -0.504  12.720  21.117  0.00  0.00    +0.000 N 
ATOM     18  C   UNL     1       0.127  13.943  21.161  0.00  0.00    +0.000 C 
ATOM     19  O   UNL     1       0.792  14.503  20.299  0.00  0.00    +0.000 OA
ATOM     20  C   UNL     1      -0.180  14.611  22.467  0.00  0.00    +0.000 C 
ATOM     21  C   UNL     1      -0.977  13.593  23.245  0.00  0.00    +0.000 C 
ATOM     22  C   UNL     1      -1.155  12.447  22.299  0.00  0.00    +0.000 C 
ATOM     23  O   UNL     1      -1.766  11.433  22.620  0.00  0.00    +0.000 OA
ENDBRANCH  15  17
ENDBRANCH   6  11
BRANCH   9  24
ATOM     24  C   UNL     1       5.048   5.141  17.643  0.00  0.00    +0.000 A 
ATOM     25  C   UNL     1       6.394   5.105  18.032  0.00  0.00    +0.000 A 
ATOM     26  C   UNL     1       7.387   4.683  17.143  0.00  0.00    +0.000 A 
ATOM     27  C   UNL     1       7.052   4.325  15.841  0.00  0.00    +0.000 A 
ATOM     28  C   UNL     1       5.727   4.400  15.422  0.00  0.00    +0.000 A 
ATOM     29  C   UNL     1       4.734   4.806  16.317  0.00  0.00    +0.000 A 
ENDBRANCH   9  24
TORSDOF 3
ENDMDL
