MODEL 1
REMARK VINA RESULT:      -8.2      0.000      0.000
REMARK  Name = 
REMARK  4 active torsions:
REMARK  status: ('A' for Active; 'I' for Inactive)
REMARK    1  A    between atoms: C_2  and  C_15
REMARK    2  A    between atoms: N_3  and  C_4
REMARK    3  A    between atoms: C_7  and  C_8
REMARK    4  A    between atoms: N_19  and  C_20
REMARK                            x       y       z     vdW  Elec       q    Type
REMARK                         _______ _______ _______ _____ _____    ______ ____
ROOT
ATOM      1  O   UNL     1       1.180   4.810  19.108  0.00  0.00    +0.000 OA
ATOM      2  C   UNL     1       2.187   5.006  19.776  0.00  0.00    +0.000 C 
ATOM      3  N   UNL     1       2.638   6.249  20.191  0.00  0.00    +0.000 N 
ATOM      4  H   UNL     1       3.539   6.280  20.652  0.00  0.00    +0.000 HD
ENDROOT
BRANCH   3   5
ATOM      5  C   UNL     1       2.063   7.496  19.864  0.00  0.00    +0.000 A 
ATOM      6  C   UNL     1       1.317   8.258  20.761  0.00  0.00    +0.000 A 
ATOM      7  C   UNL     1       0.696   9.441  20.352  0.00  0.00    +0.000 A 
ATOM      8  C   UNL     1       0.808   9.894  19.034  0.00  0.00    +0.000 A 
ATOM      9  C   UNL     1       1.600   9.154  18.148  0.00  0.00    +0.000 A 
ATOM     10  C   UNL     1       2.231   7.971  18.560  0.00  0.00    +0.000 A 
BRANCH   8  11
ATOM     11  C   UNL     1       0.085  11.092  18.591  0.00  0.00    +0.000 A 
ATOM     12  C   UNL     1       0.412  12.456  18.838  0.00  0.00    +0.000 A 
ATOM     13  C   UNL     1      -0.593  13.193  18.262  0.00  0.00    +0.000 A 
ATOM     14  N   UNL     1      -1.439  12.285  17.707  0.00  0.00    +0.000 N 
ATOM     15  N   UNL     1      -1.055  11.012  17.883  0.00  0.00    +0.000 NA
ATOM     16  H   UNL     1      -2.300  12.460  17.200  0.00  0.00    +0.000 HD
ENDBRANCH   8  11
ENDBRANCH   3   5
BRANCH   2  17
ATOM     17  C   UNL     1       3.052   3.921  20.166  0.00  0.00    +0.000 A 
ATOM     18  C   UNL     1       2.871   3.021  21.201  0.00  0.00    +0.000 A 
ATOM     19  N   UNL     1       3.790   2.016  21.159  0.00  0.00    +0.000 NA
ATOM     20  C   UNL     1       4.527   2.282  20.104  0.00  0.00    +0.000 A 
ATOM     21  N   UNL     1       4.172   3.461  19.480  0.00  0.00    +0.000 N 
BRANCH  21  22
ATOM     22  C   UNL     1       4.883   4.065  18.398  0.00  0.00    +0.000 A 
ATOM     23  C   UNL     1       5.994   4.882  18.655  0.00  0.00    +0.000 A 
ATOM     24  C   UNL     1       6.699   5.464  17.598  0.00  0.00    +0.000 A 
ATOM     25  C   UNL     1       6.297   5.251  16.282  0.00  0.00    +0.000 A 
ATOM     26  C   UNL     1       5.180   4.463  16.019  0.00  0.00    +0.000 A 
ATOM     27  C   UNL     1       4.471   3.877  17.071  0.00  0.00    +0.000 A 
ENDBRANCH  21  22
ENDBRANCH   2  17
TORSDOF 4
ENDMDL
MODEL 2
REMARK VINA RESULT:      -8.2      0.498      1.084
REMARK  Name = 
REMARK  4 active torsions:
REMARK  status: ('A' for Active; 'I' for Inactive)
REMARK    1  A    between atoms: C_2  and  C_15
REMARK    2  A    between atoms: N_3  and  C_4
REMARK    3  A    between atoms: C_7  and  C_8
REMARK    4  A    between atoms: N_19  and  C_20
REMARK                            x       y       z     vdW  Elec       q    Type
REMARK                         _______ _______ _______ _____ _____    ______ ____
ROOT
ATOM      1  O   UNL     1       1.772   5.216  18.189  0.00  0.00    +0.000 OA
ATOM      2  C   UNL     1       2.438   5.272  19.214  0.00  0.00    +0.000 C 
ATOM      3  N   UNL     1       2.574   6.394  20.016  0.00  0.00    +0.000 N 
ATOM      4  H   UNL     1       3.236   6.335  20.779  0.00  0.00    +0.000 HD
ENDROOT
BRANCH   3   5
ATOM      5  C   UNL     1       2.031   7.672  19.760  0.00  0.00    +0.000 A 
ATOM      6  C   UNL     1       1.258   8.377  20.680  0.00  0.00    +0.000 A 
ATOM      7  C   UNL     1       0.671   9.598  20.336  0.00  0.00    +0.000 A 
ATOM      8  C   UNL     1       0.846  10.146  19.062  0.00  0.00    +0.000 A 
ATOM      9  C   UNL     1       1.666   9.462  18.157  0.00  0.00    +0.000 A 
ATOM     10  C   UNL     1       2.262   8.240  18.504  0.00  0.00    +0.000 A 
BRANCH   8  11
ATOM     11  C   UNL     1       0.160  11.387  18.680  0.00  0.00    +0.000 A 
ATOM     12  C   UNL     1       0.650  12.721  18.761  0.00  0.00    +0.000 A 
ATOM     13  C   UNL     1      -0.380  13.524  18.337  0.00  0.00    +0.000 A 
ATOM     14  N   UNL     1      -1.396  12.679  18.022  0.00  0.00    +0.000 N 
ATOM     15  N   UNL     1      -1.101  11.385  18.212  0.00  0.00    +0.000 NA
ATOM     16  H   UNL     1      -2.322  12.914  17.679  0.00  0.00    +0.000 HD
ENDBRANCH   8  11
ENDBRANCH   3   5
BRANCH   2  17
ATOM     17  C   UNL     1       3.211   4.143  19.670  0.00  0.00    +0.000 A 
ATOM     18  C   UNL     1       2.884   3.236  20.662  0.00  0.00    +0.000 A 
ATOM     19  N   UNL     1       3.758   2.192  20.696  0.00  0.00    +0.000 NA
ATOM     20  C   UNL     1       4.613   2.441  19.729  0.00  0.00    +0.000 A 
ATOM     21  N   UNL     1       4.376   3.645  19.095  0.00  0.00    +0.000 N 
BRANCH  21  22
ATOM     22  C   UNL     1       5.222   4.233  18.106  0.00  0.00    +0.000 A 
ATOM     23  C   UNL     1       4.986   3.992  16.745  0.00  0.00    +0.000 A 
ATOM     24  C   UNL     1       5.804   4.577  15.773  0.00  0.00    +0.000 A 
ATOM     25  C   UNL     1       6.869   5.392  16.149  0.00  0.00    +0.000 A 
ATOM     26  C   UNL     1       7.126   5.616  17.498  0.00  0.00    +0.000 A 
ATOM     27  C   UNL     1       6.311   5.035  18.474  0.00  0.00    +0.000 A 
ENDBRANCH  21  22
ENDBRANCH   2  17
TORSDOF 4
ENDMDL
MODEL 3
REMARK VINA RESULT:      -8.0      0.832      1.274
REMARK  Name = 
REMARK  4 active torsions:
REMARK  status: ('A' for Active; 'I' for Inactive)
REMARK    1  A    between atoms: C_2  and  C_15
REMARK    2  A    between atoms: N_3  and  C_4
REMARK    3  A    between atoms: C_7  and  C_8
REMARK    4  A    between atoms: N_19  and  C_20
REMARK                            x       y       z     vdW  Elec       q    Type
REMARK                         _______ _______ _______ _____ _____    ______ ____
ROOT
ATOM      1  O   UNL     1       1.150   4.606  19.317  0.00  0.00    +0.000 OA
ATOM      2  C   UNL     1       2.238   4.832  19.830  0.00  0.00    +0.000 C 
ATOM      3  N   UNL     1       2.769   6.094  20.049  0.00  0.00    +0.000 N 
ATOM      4  H   UNL     1       3.722   6.138  20.387  0.00  0.00    +0.000 HD
ENDROOT
BRANCH   3   5
ATOM      5  C   UNL     1       2.186   7.321  19.665  0.00  0.00    +0.000 A 
ATOM      6  C   UNL     1       2.339   7.879  18.397  0.00  0.00    +0.000 A 
ATOM      7  C   UNL     1       1.815   9.141  18.103  0.00  0.00    +0.000 A 
ATOM      8  C   UNL     1       1.121   9.875  19.070  0.00  0.00    +0.000 A 
ATOM      9  C   UNL     1       0.925   9.290  20.326  0.00  0.00    +0.000 A 
ATOM     10  C   UNL     1       1.444   8.020  20.620  0.00  0.00    +0.000 A 
BRANCH   8  11
ATOM     11  C   UNL     1       0.646  11.234  18.780  0.00  0.00    +0.000 A 
ATOM     12  C   UNL     1      -0.698  11.703  18.737  0.00  0.00    +0.000 A 
ATOM     13  C   UNL     1      -0.622  13.025  18.375  0.00  0.00    +0.000 A 
ATOM     14  N   UNL     1       0.704  13.288  18.232  0.00  0.00    +0.000 N 
ATOM     15  N   UNL     1       1.494  12.232  18.475  0.00  0.00    +0.000 NA
ATOM     16  H   UNL     1       1.142  14.163  17.965  0.00  0.00    +0.000 HD
ENDBRANCH   8  11
ENDBRANCH   3   5
BRANCH   2  17
ATOM     17  C   UNL     1       3.120   3.761  20.221  0.00  0.00    +0.000 A 
ATOM     18  C   UNL     1       2.976   2.889  21.285  0.00  0.00    +0.000 A 
ATOM     19  N   UNL     1       3.898   1.887  21.242  0.00  0.00    +0.000 NA
ATOM     20  C   UNL     1       4.601   2.128  20.158  0.00  0.00    +0.000 A 
ATOM     21  N   UNL     1       4.221   3.288  19.514  0.00  0.00    +0.000 N 
BRANCH  21  22
ATOM     22  C   UNL     1       4.896   3.866  18.395  0.00  0.00    +0.000 A 
ATOM     23  C   UNL     1       6.019   4.681  18.595  0.00  0.00    +0.000 A 
ATOM     24  C   UNL     1       6.689   5.238  17.501  0.00  0.00    +0.000 A 
ATOM     25  C   UNL     1       6.238   5.000  16.205  0.00  0.00    +0.000 A 
ATOM     26  C   UNL     1       5.109   4.213  15.999  0.00  0.00    +0.000 A 
ATOM     27  C   UNL     1       4.436   3.652  17.088  0.00  0.00    +0.000 A 
ENDBRANCH  21  22
ENDBRANCH   2  17
TORSDOF 4
ENDMDL
MODEL 4
REMARK VINA RESULT:      -8.0      0.413      1.422
REMARK  Name = 
REMARK  4 active torsions:
REMARK  status: ('A' for Active; 'I' for Inactive)
REMARK    1  A    between atoms: C_2  and  C_15
REMARK    2  A    between atoms: N_3  and  C_4
REMARK    3  A    between atoms: C_7  and  C_8
REMARK    4  A    between atoms: N_19  and  C_20
REMARK                            x       y       z     vdW  Elec       q    Type
REMARK                         _______ _______ _______ _____ _____    ______ ____
ROOT
ATOM      1  O   UNL     1       1.110   4.713  19.263  0.00  0.00    +0.000 OA
ATOM      2  C   UNL     1       2.189   4.948  19.791  0.00  0.00    +0.000 C 
ATOM      3  N   UNL     1       2.697   6.215  20.034  0.00  0.00    +0.000 N 
ATOM      4  H   UNL     1       3.645   6.269  20.384  0.00  0.00    +0.000 HD
ENDROOT
BRANCH   3   5
ATOM      5  C   UNL     1       2.100   7.438  19.659  0.00  0.00    +0.000 A 
ATOM      6  C   UNL     1       2.223   7.994  18.387  0.00  0.00    +0.000 A 
ATOM      7  C   UNL     1       1.686   9.252  18.101  0.00  0.00    +0.000 A 
ATOM      8  C   UNL     1       1.009   9.985  19.081  0.00  0.00    +0.000 A 
ATOM      9  C   UNL     1       0.843   9.402  20.342  0.00  0.00    +0.000 A 
ATOM     10  C   UNL     1       1.374   8.136  20.628  0.00  0.00    +0.000 A 
BRANCH   8  11
ATOM     11  C   UNL     1       0.521  11.341  18.797  0.00  0.00    +0.000 A 
ATOM     12  C   UNL     1       1.239  12.567  18.882  0.00  0.00    +0.000 A 
ATOM     13  C   UNL     1       0.336  13.553  18.570  0.00  0.00    +0.000 A 
ATOM     14  N   UNL     1      -0.832  12.908  18.311  0.00  0.00    +0.000 N 
ATOM     15  N   UNL     1      -0.752  11.575  18.433  0.00  0.00    +0.000 NA
ATOM     16  H   UNL     1      -1.725  13.313  18.051  0.00  0.00    +0.000 HD
ENDBRANCH   8  11
ENDBRANCH   3   5
BRANCH   2  17
ATOM     17  C   UNL     1       3.083   3.886  20.179  0.00  0.00    +0.000 A 
ATOM     18  C   UNL     1       2.939   2.997  21.229  0.00  0.00    +0.000 A 
ATOM     19  N   UNL     1       3.877   2.011  21.184  0.00  0.00    +0.000 NA
ATOM     20  C   UNL     1       4.590   2.277  20.113  0.00  0.00    +0.000 A 
ATOM     21  N   UNL     1       4.199   3.440  19.479  0.00  0.00    +0.000 N 
BRANCH  21  22
ATOM     22  C   UNL     1       4.878   4.043  18.376  0.00  0.00    +0.000 A 
ATOM     23  C   UNL     1       4.455   3.785  17.064  0.00  0.00    +0.000 A 
ATOM     24  C   UNL     1       5.110   4.384  15.983  0.00  0.00    +0.000 A 
ATOM     25  C   UNL     1       6.195   5.230  16.199  0.00  0.00    +0.000 A 
ATOM     26  C   UNL     1       6.637   5.471  17.496  0.00  0.00    +0.000 A 
ATOM     27  C   UNL     1       5.986   4.876  18.582  0.00  0.00    +0.000 A 
ENDBRANCH  21  22
ENDBRANCH   2  17
TORSDOF 4
ENDMDL
MODEL 5
REMARK VINA RESULT:      -7.9      2.402      4.035
REMARK  Name = 
REMARK  4 active torsions:
REMARK  status: ('A' for Active; 'I' for Inactive)
REMARK    1  A    between atoms: C_2  and  C_15
REMARK    2  A    between atoms: N_3  and  C_4
REMARK    3  A    between atoms: C_7  and  C_8
REMARK    4  A    between atoms: N_19  and  C_20
REMARK                            x       y       z     vdW  Elec       q    Type
REMARK                         _______ _______ _______ _____ _____    ______ ____
ROOT
ATOM      1  O   UNL     1       5.254   7.421  17.854  0.00  0.00    +0.000 OA
ATOM      2  C   UNL     1       4.441   6.626  17.401  0.00  0.00    +0.000 C 
ATOM      3  N   UNL     1       3.092   6.600  17.719  0.00  0.00    +0.000 N 
ATOM      4  H   UNL     1       2.550   5.828  17.353  0.00  0.00    +0.000 HD
ENDROOT
BRANCH   3   5
ATOM      5  C   UNL     1       2.441   7.428  18.659  0.00  0.00    +0.000 A 
ATOM      6  C   UNL     1       2.233   7.064  19.988  0.00  0.00    +0.000 A 
ATOM      7  C   UNL     1       1.501   7.887  20.849  0.00  0.00    +0.000 A 
ATOM      8  C   UNL     1       0.962   9.097  20.402  0.00  0.00    +0.000 A 
ATOM      9  C   UNL     1       1.216   9.484  19.081  0.00  0.00    +0.000 A 
ATOM     10  C   UNL     1       1.957   8.663  18.218  0.00  0.00    +0.000 A 
BRANCH   8  11
ATOM     11  C   UNL     1       0.125   9.916  21.288  0.00  0.00    +0.000 A 
ATOM     12  C   UNL     1      -0.183   9.690  22.660  0.00  0.00    +0.000 A 
ATOM     13  C   UNL     1      -1.039  10.700  23.023  0.00  0.00    +0.000 A 
ATOM     14  N   UNL     1      -1.195  11.464  21.909  0.00  0.00    +0.000 N 
ATOM     15  N   UNL     1      -0.503  11.022  20.850  0.00  0.00    +0.000 NA
ATOM     16  H   UNL     1      -1.763  12.297  21.797  0.00  0.00    +0.000 HD
ENDBRANCH   8  11
ENDBRANCH   3   5
BRANCH   2  17
ATOM     17  C   UNL     1       4.839   5.576  16.498  0.00  0.00    +0.000 A 
ATOM     18  C   UNL     1       5.588   5.692  15.340  0.00  0.00    +0.000 A 
ATOM     19  N   UNL     1       5.933   4.472  14.841  0.00  0.00    +0.000 NA
ATOM     20  C   UNL     1       5.413   3.608  15.684  0.00  0.00    +0.000 A 
ATOM     21  N   UNL     1       4.682   4.207  16.690  0.00  0.00    +0.000 N 
BRANCH  21  22
ATOM     22  C   UNL     1       3.897   3.514  17.661  0.00  0.00    +0.000 A 
ATOM     23  C   UNL     1       2.605   3.075  17.338  0.00  0.00    +0.000 A 
ATOM     24  C   UNL     1       1.838   2.384  18.282  0.00  0.00    +0.000 A 
ATOM     25  C   UNL     1       2.346   2.139  19.556  0.00  0.00    +0.000 A 
ATOM     26  C   UNL     1       3.617   2.594  19.893  0.00  0.00    +0.000 A 
ATOM     27  C   UNL     1       4.389   3.283  18.953  0.00  0.00    +0.000 A 
ENDBRANCH  21  22
ENDBRANCH   2  17
TORSDOF 4
ENDMDL
MODEL 6
REMARK VINA RESULT:      -7.9      0.924      1.438
REMARK  Name = 
REMARK  4 active torsions:
REMARK  status: ('A' for Active; 'I' for Inactive)
REMARK    1  A    between atoms: C_2  and  C_15
REMARK    2  A    between atoms: N_3  and  C_4
REMARK    3  A    between atoms: C_7  and  C_8
REMARK    4  A    between atoms: N_19  and  C_20
REMARK                            x       y       z     vdW  Elec       q    Type
REMARK                         _______ _______ _______ _____ _____    ______ ____
ROOT
ATOM      1  O   UNL     1       1.612   5.226  18.240  0.00  0.00    +0.000 OA
ATOM      2  C   UNL     1       2.389   5.390  19.172  0.00  0.00    +0.000 C 
ATOM      3  N   UNL     1       2.591   6.589  19.839  0.00  0.00    +0.000 N 
ATOM      4  H   UNL     1       3.336   6.613  20.523  0.00  0.00    +0.000 HD
ENDROOT
BRANCH   3   5
ATOM      5  C   UNL     1       1.997   7.829  19.521  0.00  0.00    +0.000 A 
ATOM      6  C   UNL     1       2.103   8.434  18.270  0.00  0.00    +0.000 A 
ATOM      7  C   UNL     1       1.570   9.706  18.042  0.00  0.00    +0.000 A 
ATOM      8  C   UNL     1       0.914  10.404  19.060  0.00  0.00    +0.000 A 
ATOM      9  C   UNL     1       0.764   9.774  20.300  0.00  0.00    +0.000 A 
ATOM     10  C   UNL     1       1.291   8.494  20.528  0.00  0.00    +0.000 A 
BRANCH   8  11
ATOM     11  C   UNL     1       0.431  11.773  18.837  0.00  0.00    +0.000 A 
ATOM     12  C   UNL     1       1.185  12.981  18.839  0.00  0.00    +0.000 A 
ATOM     13  C   UNL     1       0.277  13.990  18.636  0.00  0.00    +0.000 A 
ATOM     14  N   UNL     1      -0.930  13.376  18.515  0.00  0.00    +0.000 N 
ATOM     15  N   UNL     1      -0.870  12.041  18.626  0.00  0.00    +0.000 NA
ATOM     16  H   UNL     1      -1.837  13.804  18.363  0.00  0.00    +0.000 HD
ENDBRANCH   8  11
ENDBRANCH   3   5
BRANCH   2  17
ATOM     17  C   UNL     1       3.230   4.320  19.646  0.00  0.00    +0.000 A 
ATOM     18  C   UNL     1       2.862   3.223  20.404  0.00  0.00    +0.000 A 
ATOM     19  N   UNL     1       3.877   2.321  20.507  0.00  0.00    +0.000 NA
ATOM     20  C   UNL     1       4.861   2.845  19.812  0.00  0.00    +0.000 A 
ATOM     21  N   UNL     1       4.560   4.093  19.304  0.00  0.00    +0.000 N 
BRANCH  21  22
ATOM     22  C   UNL     1       5.482   4.951  18.630  0.00  0.00    +0.000 A 
ATOM     23  C   UNL     1       6.641   5.390  19.285  0.00  0.00    +0.000 A 
ATOM     24  C   UNL     1       7.552   6.220  18.624  0.00  0.00    +0.000 A 
ATOM     25  C   UNL     1       7.309   6.629  17.315  0.00  0.00    +0.000 A 
ATOM     26  C   UNL     1       6.148   6.218  16.666  0.00  0.00    +0.000 A 
ATOM     27  C   UNL     1       5.234   5.388  17.321  0.00  0.00    +0.000 A 
ENDBRANCH  21  22
ENDBRANCH   2  17
TORSDOF 4
ENDMDL
MODEL 7
REMARK VINA RESULT:      -7.8      2.501      3.826
REMARK  Name = 
REMARK  4 active torsions:
REMARK  status: ('A' for Active; 'I' for Inactive)
REMARK    1  A    between atoms: C_2  and  C_15
REMARK    2  A    between atoms: N_3  and  C_4
REMARK    3  A    between atoms: C_7  and  C_8
REMARK    4  A    between atoms: N_19  and  C_20
REMARK                            x       y       z     vdW  Elec       q    Type
REMARK                         _______ _______ _______ _____ _____    ______ ____
ROOT
ATOM      1  O   UNL     1       5.419   7.345  17.752  0.00  0.00    +0.000 OA
ATOM      2  C   UNL     1       4.596   6.563  17.294  0.00  0.00    +0.000 C 
ATOM      3  N   UNL     1       3.232   6.610  17.538  0.00  0.00    +0.000 N 
ATOM      4  H   UNL     1       2.676   5.843  17.180  0.00  0.00    +0.000 HD
ENDROOT
BRANCH   3   5
ATOM      5  C   UNL     1       2.570   7.510  18.399  0.00  0.00    +0.000 A 
ATOM      6  C   UNL     1       2.264   7.219  19.727  0.00  0.00    +0.000 A 
ATOM      7  C   UNL     1       1.525   8.115  20.505  0.00  0.00    +0.000 A 
ATOM      8  C   UNL     1       1.077   9.328  19.975  0.00  0.00    +0.000 A 
ATOM      9  C   UNL     1       1.430   9.641  18.657  0.00  0.00    +0.000 A 
ATOM     10  C   UNL     1       2.178   8.747  17.877  0.00  0.00    +0.000 A 
BRANCH   8  11
ATOM     11  C   UNL     1       0.232  10.227  20.771  0.00  0.00    +0.000 A 
ATOM     12  C   UNL     1      -0.825  11.067  20.318  0.00  0.00    +0.000 A 
ATOM     13  C   UNL     1      -1.267  11.743  21.428  0.00  0.00    +0.000 A 
ATOM     14  N   UNL     1      -0.502  11.295  22.458  0.00  0.00    +0.000 N 
ATOM     15  N   UNL     1       0.406  10.377  22.096  0.00  0.00    +0.000 NA
ATOM     16  H   UNL     1      -0.538  11.575  23.432  0.00  0.00    +0.000 HD
ENDBRANCH   8  11
ENDBRANCH   3   5
BRANCH   2  17
ATOM     17  C   UNL     1       4.994   5.453  16.466  0.00  0.00    +0.000 A 
ATOM     18  C   UNL     1       5.800   5.480  15.341  0.00  0.00    +0.000 A 
ATOM     19  N   UNL     1       6.119   4.224  14.922  0.00  0.00    +0.000 NA
ATOM     20  C   UNL     1       5.527   3.425  15.782  0.00  0.00    +0.000 A 
ATOM     21  N   UNL     1       4.775   4.103  16.720  0.00  0.00    +0.000 N 
BRANCH  21  22
ATOM     22  C   UNL     1       3.919   3.491  17.686  0.00  0.00    +0.000 A 
ATOM     23  C   UNL     1       4.387   3.246  18.985  0.00  0.00    +0.000 A 
ATOM     24  C   UNL     1       3.547   2.658  19.937  0.00  0.00    +0.000 A 
ATOM     25  C   UNL     1       2.245   2.298  19.599  0.00  0.00    +0.000 A 
ATOM     26  C   UNL     1       1.781   2.514  18.305  0.00  0.00    +0.000 A 
ATOM     27  C   UNL     1       2.615   3.102  17.349  0.00  0.00    +0.000 A 
ENDBRANCH  21  22
ENDBRANCH   2  17
TORSDOF 4
ENDMDL
MODEL 8
REMARK VINA RESULT:      -7.8      2.464      4.125
REMARK  Name = 
REMARK  4 active torsions:
REMARK  status: ('A' for Active; 'I' for Inactive)
REMARK    1  A    between atoms: C_2  and  C_15
REMARK    2  A    between atoms: N_3  and  C_4
REMARK    3  A    between atoms: C_7  and  C_8
REMARK    4  A    between atoms: N_19  and  C_20
REMARK                            x       y       z     vdW  Elec       q    Type
REMARK                         _______ _______ _______ _____ _____    ______ ____
ROOT
ATOM      1  O   UNL     1       5.186   7.513  17.866  0.00  0.00    +0.000 OA
ATOM      2  C   UNL     1       4.449   6.649  17.409  0.00  0.00    +0.000 C 
ATOM      3  N   UNL     1       3.087   6.553  17.654  0.00  0.00    +0.000 N 
ATOM      4  H   UNL     1       2.614   5.733  17.298  0.00  0.00    +0.000 HD
ENDROOT
BRANCH   3   5
ATOM      5  C   UNL     1       2.336   7.381  18.516  0.00  0.00    +0.000 A 
ATOM      6  C   UNL     1       1.835   8.626  18.140  0.00  0.00    +0.000 A 
ATOM      7  C   UNL     1       1.176   9.441  19.065  0.00  0.00    +0.000 A 
ATOM      8  C   UNL     1       0.998   9.029  20.389  0.00  0.00    +0.000 A 
ATOM      9  C   UNL     1       1.457   7.756  20.750  0.00  0.00    +0.000 A 
ATOM     10  C   UNL     1       2.111   6.934  19.821  0.00  0.00    +0.000 A 
BRANCH   8  11
ATOM     11  C   UNL     1       0.380   9.924  21.375  0.00  0.00    +0.000 A 
ATOM     12  C   UNL     1      -0.413   9.571  22.504  0.00  0.00    +0.000 A 
ATOM     13  C   UNL     1      -0.796  10.758  23.078  0.00  0.00    +0.000 A 
ATOM     14  N   UNL     1      -0.235  11.731  22.313  0.00  0.00    +0.000 N 
ATOM     15  N   UNL     1       0.485  11.261  21.284  0.00  0.00    +0.000 NA
ATOM     16  H   UNL     1      -0.304  12.736  22.430  0.00  0.00    +0.000 HD
ENDBRANCH   8  11
ENDBRANCH   3   5
BRANCH   2  17
ATOM     17  C   UNL     1       4.960   5.586  16.582  0.00  0.00    +0.000 A 
ATOM     18  C   UNL     1       5.802   5.691  15.488  0.00  0.00    +0.000 A 
ATOM     19  N   UNL     1       6.230   4.469  15.065  0.00  0.00    +0.000 NA
ATOM     20  C   UNL     1       5.671   3.615  15.892  0.00  0.00    +0.000 A 
ATOM     21  N   UNL     1       4.836   4.219  16.810  0.00  0.00    +0.000 N 
BRANCH  21  22
ATOM     22  C   UNL     1       3.995   3.528  17.736  0.00  0.00    +0.000 A 
ATOM     23  C   UNL     1       2.750   3.033  17.322  0.00  0.00    +0.000 A 
ATOM     24  C   UNL     1       1.930   2.346  18.223  0.00  0.00    +0.000 A 
ATOM     25  C   UNL     1       2.336   2.159  19.542  0.00  0.00    +0.000 A 
ATOM     26  C   UNL     1       3.559   2.669  19.968  0.00  0.00    +0.000 A 
ATOM     27  C   UNL     1       4.384   3.356  19.072  0.00  0.00    +0.000 A 
ENDBRANCH  21  22
ENDBRANCH   2  17
TORSDOF 4
ENDMDL
MODEL 9
REMARK VINA RESULT:      -7.6      2.297      2.932
REMARK  Name = 
REMARK  4 active torsions:
REMARK  status: ('A' for Active; 'I' for Inactive)
REMARK    1  A    between atoms: C_2  and  C_15
REMARK    2  A    between atoms: N_3  and  C_4
REMARK    3  A    between atoms: C_7  and  C_8
REMARK    4  A    between atoms: N_19  and  C_20
REMARK                            x       y       z     vdW  Elec       q    Type
REMARK                         _______ _______ _______ _____ _____    ______ ____
ROOT
ATOM      1  O   UNL     1       2.543   5.502  20.796  0.00  0.00    +0.000 OA
ATOM      2  C   UNL     1       2.505   5.779  19.604  0.00  0.00    +0.000 C 
ATOM      3  N   UNL     1       2.137   7.011  19.085  0.00  0.00    +0.000 N 
ATOM      4  H   UNL     1       2.050   7.076  18.079  0.00  0.00    +0.000 HD
ENDROOT
BRANCH   3   5
ATOM      5  C   UNL     1       1.683   8.124  19.823  0.00  0.00    +0.000 A 
ATOM      6  C   UNL     1       1.447   8.091  21.196  0.00  0.00    +0.000 A 
ATOM      7  C   UNL     1       0.910   9.199  21.857  0.00  0.00    +0.000 A 
ATOM      8  C   UNL     1       0.599  10.371  21.161  0.00  0.00    +0.000 A 
ATOM      9  C   UNL     1       0.885  10.420  19.792  0.00  0.00    +0.000 A 
ATOM     10  C   UNL     1       1.431   9.311  19.129  0.00  0.00    +0.000 A 
BRANCH   8  11
ATOM     11  C   UNL     1      -0.042  11.501  21.846  0.00  0.00    +0.000 A 
ATOM     12  C   UNL     1      -1.152  11.471  22.738  0.00  0.00    +0.000 A 
ATOM     13  C   UNL     1      -1.404  12.779  23.067  0.00  0.00    +0.000 A 
ATOM     14  N   UNL     1      -0.471  13.509  22.400  0.00  0.00    +0.000 N 
ATOM     15  N   UNL     1       0.367  12.768  21.661  0.00  0.00    +0.000 NA
ATOM     16  H   UNL     1      -0.350  14.516  22.396  0.00  0.00    +0.000 HD
ENDBRANCH   8  11
ENDBRANCH   3   5
BRANCH   2  17
ATOM     17  C   UNL     1       2.804   4.795  18.595  0.00  0.00    +0.000 A 
ATOM     18  C   UNL     1       1.962   3.827  18.077  0.00  0.00    +0.000 A 
ATOM     19  N   UNL     1       2.521   3.196  17.007  0.00  0.00    +0.000 NA
ATOM     20  C   UNL     1       3.692   3.772  16.854  0.00  0.00    +0.000 A 
ATOM     21  N   UNL     1       3.959   4.719  17.822  0.00  0.00    +0.000 N 
BRANCH  21  22
ATOM     22  C   UNL     1       5.204   5.401  17.985  0.00  0.00    +0.000 A 
ATOM     23  C   UNL     1       5.560   6.433  17.105  0.00  0.00    +0.000 A 
ATOM     24  C   UNL     1       6.772   7.112  17.269  0.00  0.00    +0.000 A 
ATOM     25  C   UNL     1       7.643   6.757  18.297  0.00  0.00    +0.000 A 
ATOM     26  C   UNL     1       7.309   5.717  19.158  0.00  0.00    +0.000 A 
ATOM     27  C   UNL     1       6.098   5.036  19.001  0.00  0.00    +0.000 A 
ENDBRANCH  21  22
ENDBRANCH   2  17
TORSDOF 4
ENDMDL
