MODEL 1
REMARK VINA RESULT:      -8.5      0.000      0.000
REMARK  Name = 
REMARK  6 active torsions:
REMARK  status: ('A' for Active; 'I' for Inactive)
REMARK    1  A    between atoms: C_1  and  C_2
REMARK    2  A    between atoms: C_11  and  N_12
REMARK    3  A    between atoms: N_12  and  C_13
REMARK    4  A    between atoms: C_13  and  C_14
REMARK    5  A    between atoms: C_17  and  C_18
REMARK    6  A    between atoms: C_24  and  C_25
REMARK                            x       y       z     vdW  Elec       q    Type
REMARK                         _______ _______ _______ _____ _____    ______ ____
ROOT
ATOM      1  N   UNL     1       3.006   7.470  18.408  0.00  0.00    +0.000 N 
ATOM      2  H   UNL     1       3.457   8.099  19.085  0.00  0.00    +0.000 HD
ENDROOT
BRANCH   1  13
ATOM      3  C   UNL     1       5.625   4.969  15.472  0.00  0.00    +0.000 C 
ATOM      4  C   UNL     1       4.768   5.582  16.560  0.00  0.00    +0.000 C 
ATOM      5  O   UNL     1       4.790   6.805  16.693  0.00  0.00    +0.000 OA
ATOM      6  N   UNL     1       3.992   4.705  17.298  0.00  0.00    +0.000 N 
ATOM      7  C   UNL     1       4.096   3.241  17.177  0.00  0.00    +0.000 C 
ATOM      8  C   UNL     1       3.032   2.618  18.066  0.00  0.00    +0.000 C 
ATOM      9  C   UNL     1       2.621   3.786  18.897  0.00  0.00    +0.000 A 
ATOM     10  C   UNL     1       1.777   3.722  19.996  0.00  0.00    +0.000 A 
ATOM     11  C   UNL     1       1.444   4.909  20.629  0.00  0.00    +0.000 A 
ATOM     12  C   UNL     1       1.917   6.134  20.130  0.00  0.00    +0.000 A 
ATOM     13  C   UNL     1       2.752   6.223  18.991  0.00  0.00    +0.000 A 
ATOM     14  C   UNL     1       3.123   5.002  18.394  0.00  0.00    +0.000 A 
ENDBRANCH   1  13
BRANCH   1  15
ATOM     15  C   UNL     1       1.938   8.195  17.720  0.00  0.00    +0.000 C 
BRANCH  15  16
ATOM     16  C   UNL     1       1.630   9.519  18.350  0.00  0.00    +0.000 A 
ATOM     17  C   UNL     1       2.069  10.799  18.082  0.00  0.00    +0.000 A 
ATOM     18  C   UNL     1       1.448  11.640  19.035  0.00  0.00    +0.000 A 
ATOM     19  C   UNL     1       0.653  10.833  19.829  0.00  0.00    +0.000 A 
ATOM     20  O   UNL     1       0.771   9.536  19.412  0.00  0.00    +0.000 OA
BRANCH  19  21
ATOM     21  C   UNL     1      -0.229  11.116  20.968  0.00  0.00    +0.000 A 
ATOM     22  C   UNL     1      -1.220  12.110  20.803  0.00  0.00    +0.000 A 
ATOM     23  C   UNL     1      -2.161  12.383  21.799  0.00  0.00    +0.000 A 
ATOM     24  C   UNL     1      -2.117  11.663  22.983  0.00  0.00    +0.000 A 
ATOM     25  F   UNL     1      -3.032  11.899  23.932  0.00  0.00    +0.000 F 
ATOM     26  C   UNL     1      -1.142  10.697  23.191  0.00  0.00    +0.000 A 
ATOM     27  C   UNL     1      -0.186  10.415  22.194  0.00  0.00    +0.000 A 
ATOM     28  C   UNL     1       0.833   9.341  22.480  0.00  0.00    +0.000 C 
ENDBRANCH  19  21
ENDBRANCH  15  16
ENDBRANCH   1  15
TORSDOF 4
ENDMDL
MODEL 2
REMARK VINA RESULT:      -8.4      2.145      2.739
REMARK  Name = 
REMARK  6 active torsions:
REMARK  status: ('A' for Active; 'I' for Inactive)
REMARK    1  A    between atoms: C_1  and  C_2
REMARK    2  A    between atoms: C_11  and  N_12
REMARK    3  A    between atoms: N_12  and  C_13
REMARK    4  A    between atoms: C_13  and  C_14
REMARK    5  A    between atoms: C_17  and  C_18
REMARK    6  A    between atoms: C_24  and  C_25
REMARK                            x       y       z     vdW  Elec       q    Type
REMARK                         _______ _______ _______ _____ _____    ______ ____
ROOT
ATOM      1  N   UNL     1       2.891   6.599  19.804  0.00  0.00    +0.000 N 
ATOM      2  H   UNL     1       3.845   6.779  20.139  0.00  0.00    +0.000 HD
ENDROOT
BRANCH   1  13
ATOM      3  C   UNL     1       5.294   5.301  16.025  0.00  0.00    +0.000 C 
ATOM      4  C   UNL     1       4.501   5.487  17.302  0.00  0.00    +0.000 C 
ATOM      5  O   UNL     1       4.588   6.568  17.885  0.00  0.00    +0.000 OA
ATOM      6  N   UNL     1       3.703   4.425  17.691  0.00  0.00    +0.000 N 
ATOM      7  C   UNL     1       3.731   3.113  17.024  0.00  0.00    +0.000 C 
ATOM      8  C   UNL     1       2.663   2.237  17.661  0.00  0.00    +0.000 C 
ATOM      9  C   UNL     1       2.335   3.019  18.889  0.00  0.00    +0.000 A 
ATOM     10  C   UNL     1       1.522   2.575  19.921  0.00  0.00    +0.000 A 
ATOM     11  C   UNL     1       1.267   3.446  20.968  0.00  0.00    +0.000 A 
ATOM     12  C   UNL     1       1.787   4.751  20.945  0.00  0.00    +0.000 A 
ATOM     13  C   UNL     1       2.591   5.234  19.886  0.00  0.00    +0.000 A 
ATOM     14  C   UNL     1       2.883   4.317  18.857  0.00  0.00    +0.000 A 
ENDBRANCH   1  13
BRANCH   1  15
ATOM     15  C   UNL     1       1.984   7.589  20.385  0.00  0.00    +0.000 C 
BRANCH  15  16
ATOM     16  C   UNL     1       1.526   8.615  19.394  0.00  0.00    +0.000 A 
ATOM     17  C   UNL     1       2.173   9.264  18.363  0.00  0.00    +0.000 A 
ATOM     18  C   UNL     1       1.227  10.147  17.793  0.00  0.00    +0.000 A 
ATOM     19  C   UNL     1       0.047   9.984  18.496  0.00  0.00    +0.000 A 
ATOM     20  O   UNL     1       0.235   9.051  19.478  0.00  0.00    +0.000 OA
BRANCH  19  21
ATOM     21  C   UNL     1      -1.277  10.607  18.377  0.00  0.00    +0.000 A 
ATOM     22  C   UNL     1      -2.152  10.110  17.384  0.00  0.00    +0.000 A 
ATOM     23  C   UNL     1      -3.462  10.579  17.256  0.00  0.00    +0.000 A 
ATOM     24  C   UNL     1      -3.914  11.561  18.124  0.00  0.00    +0.000 A 
ATOM     25  F   UNL     1      -5.177  11.996  18.027  0.00  0.00    +0.000 F 
ATOM     26  C   UNL     1      -3.076  12.091  19.096  0.00  0.00    +0.000 A 
ATOM     27  C   UNL     1      -1.750  11.627  19.232  0.00  0.00    +0.000 A 
ATOM     28  C   UNL     1      -0.902  12.234  20.320  0.00  0.00    +0.000 C 
ENDBRANCH  19  21
ENDBRANCH  15  16
ENDBRANCH   1  15
TORSDOF 4
ENDMDL
MODEL 3
REMARK VINA RESULT:      -8.4      2.454      2.990
REMARK  Name = 
REMARK  6 active torsions:
REMARK  status: ('A' for Active; 'I' for Inactive)
REMARK    1  A    between atoms: C_1  and  C_2
REMARK    2  A    between atoms: C_11  and  N_12
REMARK    3  A    between atoms: N_12  and  C_13
REMARK    4  A    between atoms: C_13  and  C_14
REMARK    5  A    between atoms: C_17  and  C_18
REMARK    6  A    between atoms: C_24  and  C_25
REMARK                            x       y       z     vdW  Elec       q    Type
REMARK                         _______ _______ _______ _____ _____    ______ ____
ROOT
ATOM      1  N   UNL     1       3.006   6.106  20.234  0.00  0.00    +0.000 N 
ATOM      2  H   UNL     1       3.804   6.231  20.870  0.00  0.00    +0.000 HD
ENDROOT
BRANCH   1  13
ATOM      3  C   UNL     1       5.481   5.130  16.405  0.00  0.00    +0.000 C 
ATOM      4  C   UNL     1       4.653   5.208  17.671  0.00  0.00    +0.000 C 
ATOM      5  O   UNL     1       4.765   6.213  18.373  0.00  0.00    +0.000 OA
ATOM      6  N   UNL     1       3.800   4.146  17.915  0.00  0.00    +0.000 N 
ATOM      7  C   UNL     1       3.796   2.916  17.105  0.00  0.00    +0.000 C 
ATOM      8  C   UNL     1       2.673   2.024  17.609  0.00  0.00    +0.000 C 
ATOM      9  C   UNL     1       2.336   2.678  18.907  0.00  0.00    +0.000 A 
ATOM     10  C   UNL     1       1.471   2.159  19.858  0.00  0.00    +0.000 A 
ATOM     11  C   UNL     1       1.216   2.919  20.989  0.00  0.00    +0.000 A 
ATOM     12  C   UNL     1       1.790   4.194  21.127  0.00  0.00    +0.000 A 
ATOM     13  C   UNL     1       2.648   4.755  20.153  0.00  0.00    +0.000 A 
ATOM     14  C   UNL     1       2.937   3.946  19.037  0.00  0.00    +0.000 A 
ENDBRANCH   1  13
BRANCH   1  15
ATOM     15  C   UNL     1       1.995   7.120  20.530  0.00  0.00    +0.000 C 
BRANCH  15  16
ATOM     16  C   UNL     1       1.846   8.134  19.436  0.00  0.00    +0.000 A 
ATOM     17  C   UNL     1       2.172   8.108  18.097  0.00  0.00    +0.000 A 
ATOM     18  C   UNL     1       1.817   9.375  17.577  0.00  0.00    +0.000 A 
ATOM     19  C   UNL     1       1.282  10.105  18.622  0.00  0.00    +0.000 A 
ATOM     20  O   UNL     1       1.306   9.346  19.759  0.00  0.00    +0.000 OA
BRANCH  19  21
ATOM     21  C   UNL     1       0.736  11.465  18.709  0.00  0.00    +0.000 A 
ATOM     22  C   UNL     1       1.650  12.535  18.838  0.00  0.00    +0.000 A 
ATOM     23  C   UNL     1       1.228  13.867  18.837  0.00  0.00    +0.000 A 
ATOM     24  C   UNL     1      -0.124  14.146  18.713  0.00  0.00    +0.000 A 
ATOM     25  F   UNL     1      -0.534  15.420  18.682  0.00  0.00    +0.000 F 
ATOM     26  C   UNL     1      -1.054  13.120  18.609  0.00  0.00    +0.000 A 
ATOM     27  C   UNL     1      -0.640  11.772  18.612  0.00  0.00    +0.000 A 
ATOM     28  C   UNL     1      -1.702  10.710  18.479  0.00  0.00    +0.000 C 
ENDBRANCH  19  21
ENDBRANCH  15  16
ENDBRANCH   1  15
TORSDOF 4
ENDMDL
MODEL 4
REMARK VINA RESULT:      -8.3      2.652      3.420
REMARK  Name = 
REMARK  6 active torsions:
REMARK  status: ('A' for Active; 'I' for Inactive)
REMARK    1  A    between atoms: C_1  and  C_2
REMARK    2  A    between atoms: C_11  and  N_12
REMARK    3  A    between atoms: N_12  and  C_13
REMARK    4  A    between atoms: C_13  and  C_14
REMARK    5  A    between atoms: C_17  and  C_18
REMARK    6  A    between atoms: C_24  and  C_25
REMARK                            x       y       z     vdW  Elec       q    Type
REMARK                         _______ _______ _______ _____ _____    ______ ____
ROOT
ATOM      1  N   UNL     1       2.049   7.148  19.713  0.00  0.00    +0.000 N 
ATOM      2  H   UNL     1       2.925   7.543  19.348  0.00  0.00    +0.000 HD
ENDROOT
BRANCH   1  13
ATOM      3  C   UNL     1       5.020   6.638  16.156  0.00  0.00    +0.000 C 
ATOM      4  C   UNL     1       4.103   6.573  17.360  0.00  0.00    +0.000 C 
ATOM      5  O   UNL     1       3.845   7.623  17.948  0.00  0.00    +0.000 OA
ATOM      6  N   UNL     1       3.595   5.326  17.679  0.00  0.00    +0.000 N 
ATOM      7  C   UNL     1       4.033   4.085  17.016  0.00  0.00    +0.000 C 
ATOM      8  C   UNL     1       3.194   2.939  17.560  0.00  0.00    +0.000 C 
ATOM      9  C   UNL     1       2.566   3.574  18.754  0.00  0.00    +0.000 A 
ATOM     10  C   UNL     1       1.821   2.902  19.712  0.00  0.00    +0.000 A 
ATOM     11  C   UNL     1       1.253   3.647  20.733  0.00  0.00    +0.000 A 
ATOM     12  C   UNL     1       1.398   5.045  20.755  0.00  0.00    +0.000 A 
ATOM     13  C   UNL     1       2.126   5.752  19.769  0.00  0.00    +0.000 A 
ATOM     14  C   UNL     1       2.741   4.972  18.770  0.00  0.00    +0.000 A 
ENDBRANCH   1  13
BRANCH   1  15
ATOM     15  C   UNL     1       1.635   7.911  20.891  0.00  0.00    +0.000 C 
BRANCH  15  16
ATOM     16  C   UNL     1       0.947   9.196  20.541  0.00  0.00    +0.000 A 
ATOM     17  C   UNL     1       1.084  10.482  21.021  0.00  0.00    +0.000 A 
ATOM     18  C   UNL     1       0.138  11.269  20.323  0.00  0.00    +0.000 A 
ATOM     19  C   UNL     1      -0.519  10.426  19.444  0.00  0.00    +0.000 A 
ATOM     20  O   UNL     1      -0.026   9.159  19.584  0.00  0.00    +0.000 OA
BRANCH  19  21
ATOM     21  C   UNL     1      -1.586  10.649  18.460  0.00  0.00    +0.000 A 
ATOM     22  C   UNL     1      -1.561   9.881  17.275  0.00  0.00    +0.000 A 
ATOM     23  C   UNL     1      -2.582   9.960  16.325  0.00  0.00    +0.000 A 
ATOM     24  C   UNL     1      -3.646  10.820  16.550  0.00  0.00    +0.000 A 
ATOM     25  F   UNL     1      -4.644  10.881  15.658  0.00  0.00    +0.000 F 
ATOM     26  C   UNL     1      -3.694  11.609  17.691  0.00  0.00    +0.000 A 
ATOM     27  C   UNL     1      -2.666  11.539  18.655  0.00  0.00    +0.000 A 
ATOM     28  C   UNL     1      -2.791  12.412  19.879  0.00  0.00    +0.000 C 
ENDBRANCH  19  21
ENDBRANCH  15  16
ENDBRANCH   1  15
TORSDOF 4
ENDMDL
MODEL 5
REMARK VINA RESULT:      -8.3      2.245      2.975
REMARK  Name = 
REMARK  6 active torsions:
REMARK  status: ('A' for Active; 'I' for Inactive)
REMARK    1  A    between atoms: C_1  and  C_2
REMARK    2  A    between atoms: C_11  and  N_12
REMARK    3  A    between atoms: N_12  and  C_13
REMARK    4  A    between atoms: C_13  and  C_14
REMARK    5  A    between atoms: C_17  and  C_18
REMARK    6  A    between atoms: C_24  and  C_25
REMARK                            x       y       z     vdW  Elec       q    Type
REMARK                         _______ _______ _______ _____ _____    ______ ____
ROOT
ATOM      1  N   UNL     1       3.213   6.108  20.040  0.00  0.00    +0.000 N 
ATOM      2  H   UNL     1       3.266   6.500  20.988  0.00  0.00    +0.000 HD
ENDROOT
BRANCH   1  13
ATOM      3  C   UNL     1       6.185   4.456  16.851  0.00  0.00    +0.000 C 
ATOM      4  C   UNL     1       5.174   4.761  17.936  0.00  0.00    +0.000 C 
ATOM      5  O   UNL     1       5.250   5.849  18.507  0.00  0.00    +0.000 OA
ATOM      6  N   UNL     1       4.214   3.793  18.172  0.00  0.00    +0.000 N 
ATOM      7  C   UNL     1       4.245   2.461  17.546  0.00  0.00    +0.000 C 
ATOM      8  C   UNL     1       2.990   1.713  17.967  0.00  0.00    +0.000 C 
ATOM      9  C   UNL     1       2.502   2.565  19.090  0.00  0.00    +0.000 A 
ATOM     10  C   UNL     1       1.458   2.236  19.942  0.00  0.00    +0.000 A 
ATOM     11  C   UNL     1       1.085   3.164  20.901  0.00  0.00    +0.000 A 
ATOM     12  C   UNL     1       1.726   4.414  20.963  0.00  0.00    +0.000 A 
ATOM     13  C   UNL     1       2.770   4.781  20.081  0.00  0.00    +0.000 A 
ATOM     14  C   UNL     1       3.170   3.804  19.149  0.00  0.00    +0.000 A 
ENDBRANCH   1  13
BRANCH   1  15
ATOM     15  C   UNL     1       2.562   7.076  19.157  0.00  0.00    +0.000 C 
BRANCH  15  16
ATOM     16  C   UNL     1       1.764   8.102  19.903  0.00  0.00    +0.000 A 
ATOM     17  C   UNL     1       1.189   8.099  21.156  0.00  0.00    +0.000 A 
ATOM     18  C   UNL     1       0.536   9.346  21.296  0.00  0.00    +0.000 A 
ATOM     19  C   UNL     1       0.756  10.051  20.127  0.00  0.00    +0.000 A 
ATOM     20  O   UNL     1       1.502   9.286  19.274  0.00  0.00    +0.000 OA
BRANCH  19  21
ATOM     21  C   UNL     1       0.345  11.388  19.678  0.00  0.00    +0.000 A 
ATOM     22  C   UNL     1       1.074  12.498  20.161  0.00  0.00    +0.000 A 
ATOM     23  C   UNL     1       0.814  13.797  19.719  0.00  0.00    +0.000 A 
ATOM     24  C   UNL     1      -0.190  14.003  18.784  0.00  0.00    +0.000 A 
ATOM     25  F   UNL     1      -0.427  15.242  18.334  0.00  0.00    +0.000 F 
ATOM     26  C   UNL     1      -0.943  12.940  18.305  0.00  0.00    +0.000 A 
ATOM     27  C   UNL     1      -0.691  11.624  18.747  0.00  0.00    +0.000 A 
ATOM     28  C   UNL     1      -1.536  10.516  18.172  0.00  0.00    +0.000 C 
ENDBRANCH  19  21
ENDBRANCH  15  16
ENDBRANCH   1  15
TORSDOF 4
ENDMDL
MODEL 6
REMARK VINA RESULT:      -8.3      1.969      2.627
REMARK  Name = 
REMARK  6 active torsions:
REMARK  status: ('A' for Active; 'I' for Inactive)
REMARK    1  A    between atoms: C_1  and  C_2
REMARK    2  A    between atoms: C_11  and  N_12
REMARK    3  A    between atoms: N_12  and  C_13
REMARK    4  A    between atoms: C_13  and  C_14
REMARK    5  A    between atoms: C_17  and  C_18
REMARK    6  A    between atoms: C_24  and  C_25
REMARK                            x       y       z     vdW  Elec       q    Type
REMARK                         _______ _______ _______ _____ _____    ______ ____
ROOT
ATOM      1  N   UNL     1       2.921   6.362  20.047  0.00  0.00    +0.000 N 
ATOM      2  H   UNL     1       3.807   6.565  20.526  0.00  0.00    +0.000 HD
ENDROOT
BRANCH   1  13
ATOM      3  C   UNL     1       5.204   5.272  16.130  0.00  0.00    +0.000 C 
ATOM      4  C   UNL     1       4.456   5.388  17.442  0.00  0.00    +0.000 C 
ATOM      5  O   UNL     1       4.546   6.445  18.067  0.00  0.00    +0.000 OA
ATOM      6  N   UNL     1       3.692   4.296  17.814  0.00  0.00    +0.000 N 
ATOM      7  C   UNL     1       3.718   3.013  17.090  0.00  0.00    +0.000 C 
ATOM      8  C   UNL     1       2.690   2.091  17.728  0.00  0.00    +0.000 C 
ATOM      9  C   UNL     1       2.395   2.814  18.999  0.00  0.00    +0.000 A 
ATOM     10  C   UNL     1       1.629   2.311  20.040  0.00  0.00    +0.000 A 
ATOM     11  C   UNL     1       1.398   3.131  21.132  0.00  0.00    +0.000 A 
ATOM     12  C   UNL     1       1.893   4.446  21.146  0.00  0.00    +0.000 A 
ATOM     13  C   UNL     1       2.648   4.989  20.080  0.00  0.00    +0.000 A 
ATOM     14  C   UNL     1       2.918   4.122  19.003  0.00  0.00    +0.000 A 
ENDBRANCH   1  13
BRANCH   1  15
ATOM     15  C   UNL     1       1.910   7.325  20.481  0.00  0.00    +0.000 C 
BRANCH  15  16
ATOM     16  C   UNL     1       1.676   8.417  19.482  0.00  0.00    +0.000 A 
ATOM     17  C   UNL     1       1.959   8.520  18.137  0.00  0.00    +0.000 A 
ATOM     18  C   UNL     1       1.526   9.806  17.737  0.00  0.00    +0.000 A 
ATOM     19  C   UNL     1       0.991  10.418  18.856  0.00  0.00    +0.000 A 
ATOM     20  O   UNL     1       1.088   9.569  19.923  0.00  0.00    +0.000 OA
BRANCH  19  21
ATOM     21  C   UNL     1       0.383  11.737  19.075  0.00  0.00    +0.000 A 
ATOM     22  C   UNL     1      -0.947  11.780  19.550  0.00  0.00    +0.000 A 
ATOM     23  C   UNL     1      -1.575  12.985  19.873  0.00  0.00    +0.000 A 
ATOM     24  C   UNL     1      -0.876  14.172  19.716  0.00  0.00    +0.000 A 
ATOM     25  F   UNL     1      -1.460  15.330  20.050  0.00  0.00    +0.000 F 
ATOM     26  C   UNL     1       0.424  14.172  19.229  0.00  0.00    +0.000 A 
ATOM     27  C   UNL     1       1.066  12.961  18.897  0.00  0.00    +0.000 A 
ATOM     28  C   UNL     1       2.484  13.034  18.389  0.00  0.00    +0.000 C 
ENDBRANCH  19  21
ENDBRANCH  15  16
ENDBRANCH   1  15
TORSDOF 4
ENDMDL
MODEL 7
REMARK VINA RESULT:      -8.2      2.696      4.092
REMARK  Name = 
REMARK  6 active torsions:
REMARK  status: ('A' for Active; 'I' for Inactive)
REMARK    1  A    between atoms: C_1  and  C_2
REMARK    2  A    between atoms: C_11  and  N_12
REMARK    3  A    between atoms: N_12  and  C_13
REMARK    4  A    between atoms: C_13  and  C_14
REMARK    5  A    between atoms: C_17  and  C_18
REMARK    6  A    between atoms: C_24  and  C_25
REMARK                            x       y       z     vdW  Elec       q    Type
REMARK                         _______ _______ _______ _____ _____    ______ ____
ROOT
ATOM      1  N   UNL     1       3.046   7.217  18.576  0.00  0.00    +0.000 N 
ATOM      2  H   UNL     1       2.264   6.822  19.113  0.00  0.00    +0.000 HD
ENDROOT
BRANCH   1  13
ATOM      3  C   UNL     1       1.070   3.521  20.619  0.00  0.00    +0.000 C 
ATOM      4  C   UNL     1       1.767   4.569  19.776  0.00  0.00    +0.000 C 
ATOM      5  O   UNL     1       1.457   5.748  19.948  0.00  0.00    +0.000 OA
ATOM      6  N   UNL     1       2.734   4.111  18.900  0.00  0.00    +0.000 N 
ATOM      7  C   UNL     1       2.978   2.680  18.647  0.00  0.00    +0.000 C 
ATOM      8  C   UNL     1       4.166   2.563  17.706  0.00  0.00    +0.000 C 
ATOM      9  C   UNL     1       4.296   3.968  17.219  0.00  0.00    +0.000 A 
ATOM     10  C   UNL     1       5.139   4.381  16.198  0.00  0.00    +0.000 A 
ATOM     11  C   UNL     1       5.187   5.733  15.903  0.00  0.00    +0.000 A 
ATOM     12  C   UNL     1       4.434   6.649  16.656  0.00  0.00    +0.000 A 
ATOM     13  C   UNL     1       3.593   6.252  17.723  0.00  0.00    +0.000 A 
ATOM     14  C   UNL     1       3.516   4.868  17.973  0.00  0.00    +0.000 A 
ENDBRANCH   1  13
BRANCH   1  15
ATOM     15  C   UNL     1       2.656   8.527  18.055  0.00  0.00    +0.000 C 
BRANCH  15  16
ATOM     16  C   UNL     1       1.463   9.103  18.756  0.00  0.00    +0.000 A 
ATOM     17  C   UNL     1       1.165   9.275  20.091  0.00  0.00    +0.000 A 
ATOM     18  C   UNL     1      -0.127   9.849  20.139  0.00  0.00    +0.000 A 
ATOM     19  C   UNL     1      -0.547  10.009  18.830  0.00  0.00    +0.000 A 
ATOM     20  O   UNL     1       0.425   9.546  17.987  0.00  0.00    +0.000 OA
BRANCH  19  21
ATOM     21  C   UNL     1      -1.778  10.548  18.238  0.00  0.00    +0.000 A 
ATOM     22  C   UNL     1      -2.273   9.929  17.068  0.00  0.00    +0.000 A 
ATOM     23  C   UNL     1      -3.483  10.315  16.487  0.00  0.00    +0.000 A 
ATOM     24  C   UNL     1      -4.216  11.337  17.072  0.00  0.00    +0.000 A 
ATOM     25  F   UNL     1      -5.391  11.694  16.538  0.00  0.00    +0.000 F 
ATOM     26  C   UNL     1      -3.750  11.985  18.208  0.00  0.00    +0.000 A 
ATOM     27  C   UNL     1      -2.527  11.605  18.801  0.00  0.00    +0.000 A 
ATOM     28  C   UNL     1      -2.091  12.341  20.043  0.00  0.00    +0.000 C 
ENDBRANCH  19  21
ENDBRANCH  15  16
ENDBRANCH   1  15
TORSDOF 4
ENDMDL
MODEL 8
REMARK VINA RESULT:      -8.2      0.358      1.387
REMARK  Name = 
REMARK  6 active torsions:
REMARK  status: ('A' for Active; 'I' for Inactive)
REMARK    1  A    between atoms: C_1  and  C_2
REMARK    2  A    between atoms: C_11  and  N_12
REMARK    3  A    between atoms: N_12  and  C_13
REMARK    4  A    between atoms: C_13  and  C_14
REMARK    5  A    between atoms: C_17  and  C_18
REMARK    6  A    between atoms: C_24  and  C_25
REMARK                            x       y       z     vdW  Elec       q    Type
REMARK                         _______ _______ _______ _____ _____    ______ ____
ROOT
ATOM      1  N   UNL     1       3.075   7.489  18.358  0.00  0.00    +0.000 N 
ATOM      2  H   UNL     1       3.515   8.127  19.032  0.00  0.00    +0.000 HD
ENDROOT
BRANCH   1  13
ATOM      3  C   UNL     1       5.641   4.939  15.417  0.00  0.00    +0.000 C 
ATOM      4  C   UNL     1       4.800   5.568  16.508  0.00  0.00    +0.000 C 
ATOM      5  O   UNL     1       4.836   6.792  16.631  0.00  0.00    +0.000 OA
ATOM      6  N   UNL     1       4.023   4.705  17.260  0.00  0.00    +0.000 N 
ATOM      7  C   UNL     1       4.113   3.239  17.151  0.00  0.00    +0.000 C 
ATOM      8  C   UNL     1       3.052   2.633  18.056  0.00  0.00    +0.000 C 
ATOM      9  C   UNL     1       2.660   3.812  18.881  0.00  0.00    +0.000 A 
ATOM     10  C   UNL     1       1.826   3.766  19.989  0.00  0.00    +0.000 A 
ATOM     11  C   UNL     1       1.510   4.961  20.615  0.00  0.00    +0.000 A 
ATOM     12  C   UNL     1       1.990   6.177  20.101  0.00  0.00    +0.000 A 
ATOM     13  C   UNL     1       2.814   6.249  18.953  0.00  0.00    +0.000 A 
ATOM     14  C   UNL     1       3.168   5.020  18.362  0.00  0.00    +0.000 A 
ENDBRANCH   1  13
BRANCH   1  15
ATOM     15  C   UNL     1       2.015   8.202  17.645  0.00  0.00    +0.000 C 
BRANCH  15  16
ATOM     16  C   UNL     1       1.675   9.520  18.271  0.00  0.00    +0.000 A 
ATOM     17  C   UNL     1       2.159  10.796  18.068  0.00  0.00    +0.000 A 
ATOM     18  C   UNL     1       1.469  11.631  18.978  0.00  0.00    +0.000 A 
ATOM     19  C   UNL     1       0.591  10.826  19.680  0.00  0.00    +0.000 A 
ATOM     20  O   UNL     1       0.723   9.535  19.250  0.00  0.00    +0.000 OA
BRANCH  19  21
ATOM     21  C   UNL     1      -0.385  11.106  20.741  0.00  0.00    +0.000 A 
ATOM     22  C   UNL     1      -0.182  10.500  22.001  0.00  0.00    +0.000 A 
ATOM     23  C   UNL     1      -1.007  10.779  23.093  0.00  0.00    +0.000 A 
ATOM     24  C   UNL     1      -2.057  11.670  22.934  0.00  0.00    +0.000 A 
ATOM     25  F   UNL     1      -2.836  11.965  23.983  0.00  0.00    +0.000 F 
ATOM     26  C   UNL     1      -2.303  12.266  21.705  0.00  0.00    +0.000 A 
ATOM     27  C   UNL     1      -1.478  11.989  20.595  0.00  0.00    +0.000 A 
ATOM     28  C   UNL     1      -1.793  12.685  19.295  0.00  0.00    +0.000 C 
ENDBRANCH  19  21
ENDBRANCH  15  16
ENDBRANCH   1  15
TORSDOF 4
ENDMDL
MODEL 9
REMARK VINA RESULT:      -8.1      3.252      7.922
REMARK  Name = 
REMARK  6 active torsions:
REMARK  status: ('A' for Active; 'I' for Inactive)
REMARK    1  A    between atoms: C_1  and  C_2
REMARK    2  A    between atoms: C_11  and  N_12
REMARK    3  A    between atoms: N_12  and  C_13
REMARK    4  A    between atoms: C_13  and  C_14
REMARK    5  A    between atoms: C_17  and  C_18
REMARK    6  A    between atoms: C_24  and  C_25
REMARK                            x       y       z     vdW  Elec       q    Type
REMARK                         _______ _______ _______ _____ _____    ______ ____
ROOT
ATOM      1  N   UNL     1       0.392   9.842  18.783  0.00  0.00    +0.000 N 
ATOM      2  H   UNL     1       0.652  10.327  19.651  0.00  0.00    +0.000 HD
ENDROOT
BRANCH   1  13
ATOM      3  C   UNL     1      -0.176  13.187  21.981  0.00  0.00    +0.000 C 
ATOM      4  C   UNL     1      -0.174  12.207  20.827  0.00  0.00    +0.000 C 
ATOM      5  O   UNL     1       0.870  11.601  20.584  0.00  0.00    +0.000 OA
ATOM      6  N   UNL     1      -1.373  12.044  20.156  0.00  0.00    +0.000 N 
ATOM      7  C   UNL     1      -2.557  12.883  20.410  0.00  0.00    +0.000 C 
ATOM      8  C   UNL     1      -3.701  12.354  19.560  0.00  0.00    +0.000 C 
ATOM      9  C   UNL     1      -2.976  11.451  18.620  0.00  0.00    +0.000 A 
ATOM     10  C   UNL     1      -3.544  10.833  17.515  0.00  0.00    +0.000 A 
ATOM     11  C   UNL     1      -2.749   9.974  16.772  0.00  0.00    +0.000 A 
ATOM     12  C   UNL     1      -1.427   9.713  17.168  0.00  0.00    +0.000 A 
ATOM     13  C   UNL     1      -0.841  10.307  18.310  0.00  0.00    +0.000 A 
ATOM     14  C   UNL     1      -1.646  11.218  19.021  0.00  0.00    +0.000 A 
ENDBRANCH   1  13
BRANCH   1  15
ATOM     15  C   UNL     1       1.553   9.798  17.895  0.00  0.00    +0.000 C 
BRANCH  15  16
ATOM     16  C   UNL     1       2.305   8.504  17.979  0.00  0.00    +0.000 A 
ATOM     17  C   UNL     1       3.471   8.068  17.386  0.00  0.00    +0.000 A 
ATOM     18  C   UNL     1       3.668   6.739  17.827  0.00  0.00    +0.000 A 
ATOM     19  C   UNL     1       2.618   6.435  18.675  0.00  0.00    +0.000 A 
ATOM     20  O   UNL     1       1.783   7.514  18.761  0.00  0.00    +0.000 OA
BRANCH  19  21
ATOM     21  C   UNL     1       2.272   5.229  19.438  0.00  0.00    +0.000 A 
ATOM     22  C   UNL     1       2.562   5.219  20.821  0.00  0.00    +0.000 A 
ATOM     23  C   UNL     1       2.187   4.154  21.644  0.00  0.00    +0.000 A 
ATOM     24  C   UNL     1       1.517   3.075  21.086  0.00  0.00    +0.000 A 
ATOM     25  F   UNL     1       1.129   2.063  21.873  0.00  0.00    +0.000 F 
ATOM     26  C   UNL     1       1.237   3.038  19.727  0.00  0.00    +0.000 A 
ATOM     27  C   UNL     1       1.613   4.107  18.887  0.00  0.00    +0.000 A 
ATOM     28  C   UNL     1       1.261   4.008  17.424  0.00  0.00    +0.000 C 
ENDBRANCH  19  21
ENDBRANCH  15  16
ENDBRANCH   1  15
TORSDOF 4
ENDMDL
