MODEL 1
REMARK VINA RESULT:      -9.5      0.000      0.000
REMARK  Name = 
REMARK  5 active torsions:
REMARK  status: ('A' for Active; 'I' for Inactive)
REMARK    1  A    between atoms: C_1  and  N_2
REMARK    2  A    between atoms: C_6  and  C_7
REMARK    3  A    between atoms: C_7  and  C_8
REMARK    4  A    between atoms: C_8  and  C_9
REMARK    5  A    between atoms: C_21  and  C_22
REMARK                            x       y       z     vdW  Elec       q    Type
REMARK                         _______ _______ _______ _____ _____    ______ ____
ROOT
ATOM      1  C   UNL     1       0.671   9.630  19.131  0.00  0.00    +0.000 A 
ATOM      2  C   UNL     1       1.436   9.518  17.953  0.00  0.00    +0.000 A 
ATOM      3  C   UNL     1       2.411   8.530  17.796  0.00  0.00    +0.000 A 
ATOM      4  C   UNL     1       2.635   7.609  18.820  0.00  0.00    +0.000 A 
ATOM      5  C   UNL     1       1.891   7.683  19.995  0.00  0.00    +0.000 A 
ATOM      6  C   UNL     1       0.927   8.683  20.140  0.00  0.00    +0.000 A 
ATOM      7  N   UNL     1       2.004   6.647  20.946  0.00  0.00    +0.000 N 
ATOM      8  C   UNL     1       1.328   5.441  20.470  0.00  0.00    +0.000 C 
ATOM      9  C   UNL     1       2.015   4.657  19.355  0.00  0.00    +0.000 A 
ATOM     10  C   UNL     1       1.503   3.360  19.140  0.00  0.00    +0.000 A 
ATOM     11  C   UNL     1       2.008   2.533  18.144  0.00  0.00    +0.000 A 
ATOM     12  C   UNL     1       3.033   2.989  17.328  0.00  0.00    +0.000 A 
ATOM     13  C   UNL     1       3.570   4.280  17.490  0.00  0.00    +0.000 A 
ATOM     14  C   UNL     1       3.051   5.134  18.505  0.00  0.00    +0.000 A 
ATOM     15  C   UNL     1       3.659   6.516  18.699  0.00  0.00    +0.000 C 
ATOM     16  H   UNL     1       1.603   6.949  21.833  0.00  0.00    +0.000 HD
ENDROOT
BRANCH   1  17
ATOM     17  C   UNL     1      -0.482  10.735  19.305  0.00  0.00    +0.000 C 
ATOM     18  C   UNL     1      -0.432  11.621  20.604  0.00  0.00    +0.000 C 
ATOM     19  C   UNL     1       0.237  12.741  19.798  0.00  0.00    +0.000 C 
ATOM     20  C   UNL     1      -0.262  12.078  18.509  0.00  0.00    +0.000 C 
BRANCH  17  21
ATOM     21  C   UNL     1      -1.860  10.097  19.009  0.00  0.00    +0.000 C 
BRANCH  21  27
ATOM     22  C   UNL     1      -4.469  11.793  18.303  0.00  0.00    +0.000 C 
ATOM     23  N   UNL     1      -3.585  11.113  17.394  0.00  0.00    +0.000 N 
ATOM     24  C   UNL     1      -3.771  11.040  16.045  0.00  0.00    +0.000 A 
ATOM     25  N   UNL     1      -2.793  10.358  15.503  0.00  0.00    +0.000 NA
ATOM     26  N   UNL     1      -1.955   9.960  16.515  0.00  0.00    +0.000 NA
ATOM     27  C   UNL     1      -2.436  10.407  17.662  0.00  0.00    +0.000 A 
ENDBRANCH  21  27
ENDBRANCH  17  21
ENDBRANCH   1  17
BRANCH  13  28
ATOM     28  C   UNL     1       4.687   4.714  16.562  0.00  0.00    +0.000 C 
ATOM     29  F   UNL     1       4.528   5.972  16.063  0.00  0.00    +0.000 F 
ATOM     30  F   UNL     1       5.905   4.721  17.176  0.00  0.00    +0.000 F 
ATOM     31  F   UNL     1       4.817   3.905  15.473  0.00  0.00    +0.000 F 
ENDBRANCH  13  28
TORSDOF 4
ENDMDL
MODEL 2
REMARK VINA RESULT:      -9.1      2.233      3.092
REMARK  Name = 
REMARK  5 active torsions:
REMARK  status: ('A' for Active; 'I' for Inactive)
REMARK    1  A    between atoms: C_1  and  N_2
REMARK    2  A    between atoms: C_6  and  C_7
REMARK    3  A    between atoms: C_7  and  C_8
REMARK    4  A    between atoms: C_8  and  C_9
REMARK    5  A    between atoms: C_21  and  C_22
REMARK                            x       y       z     vdW  Elec       q    Type
REMARK                         _______ _______ _______ _____ _____    ______ ____
ROOT
ATOM      1  C   UNL     1       0.661   9.631  19.175  0.00  0.00    +0.000 A 
ATOM      2  C   UNL     1       1.409   9.533  17.986  0.00  0.00    +0.000 A 
ATOM      3  C   UNL     1       2.385   8.550  17.805  0.00  0.00    +0.000 A 
ATOM      4  C   UNL     1       2.626   7.620  18.817  0.00  0.00    +0.000 A 
ATOM      5  C   UNL     1       1.898   7.680  20.003  0.00  0.00    +0.000 A 
ATOM      6  C   UNL     1       0.934   8.676  20.172  0.00  0.00    +0.000 A 
ATOM      7  N   UNL     1       2.029   6.635  20.943  0.00  0.00    +0.000 N 
ATOM      8  C   UNL     1       1.349   5.432  20.464  0.00  0.00    +0.000 C 
ATOM      9  C   UNL     1       2.023   4.661  19.333  0.00  0.00    +0.000 A 
ATOM     10  C   UNL     1       1.513   3.364  19.113  0.00  0.00    +0.000 A 
ATOM     11  C   UNL     1       2.006   2.549  18.102  0.00  0.00    +0.000 A 
ATOM     12  C   UNL     1       3.018   3.016  17.276  0.00  0.00    +0.000 A 
ATOM     13  C   UNL     1       3.553   4.307  17.442  0.00  0.00    +0.000 A 
ATOM     14  C   UNL     1       3.046   5.150  18.472  0.00  0.00    +0.000 A 
ATOM     15  C   UNL     1       3.652   6.531  18.671  0.00  0.00    +0.000 C 
ATOM     16  H   UNL     1       1.639   6.928  21.838  0.00  0.00    +0.000 HD
ENDROOT
BRANCH   1  17
ATOM     17  C   UNL     1      -0.493  10.731  19.376  0.00  0.00    +0.000 C 
ATOM     18  C   UNL     1      -0.513  11.937  18.366  0.00  0.00    +0.000 C 
ATOM     19  C   UNL     1      -1.612  11.229  17.564  0.00  0.00    +0.000 C 
ATOM     20  C   UNL     1      -1.905  10.351  18.786  0.00  0.00    +0.000 C 
BRANCH  17  21
ATOM     21  C   UNL     1      -0.571  11.135  20.867  0.00  0.00    +0.000 C 
BRANCH  21  27
ATOM     22  C   UNL     1      -1.610  14.014  21.767  0.00  0.00    +0.000 C 
ATOM     23  N   UNL     1      -0.249  13.579  21.601  0.00  0.00    +0.000 N 
ATOM     24  C   UNL     1       0.843  14.382  21.752  0.00  0.00    +0.000 A 
ATOM     25  N   UNL     1       1.933  13.688  21.537  0.00  0.00    +0.000 NA
ATOM     26  N   UNL     1       1.552  12.407  21.222  0.00  0.00    +0.000 NA
ATOM     27  C   UNL     1       0.232  12.340  21.250  0.00  0.00    +0.000 A 
ENDBRANCH  21  27
ENDBRANCH  17  21
ENDBRANCH   1  17
BRANCH  13  28
ATOM     28  C   UNL     1       4.656   4.753  16.503  0.00  0.00    +0.000 C 
ATOM     29  F   UNL     1       4.510   6.032  16.055  0.00  0.00    +0.000 F 
ATOM     30  F   UNL     1       5.888   4.713  17.086  0.00  0.00    +0.000 F 
ATOM     31  F   UNL     1       4.741   3.983  15.382  0.00  0.00    +0.000 F 
ENDBRANCH  13  28
TORSDOF 4
ENDMDL
MODEL 3
REMARK VINA RESULT:      -9.1      2.102      2.984
REMARK  Name = 
REMARK  5 active torsions:
REMARK  status: ('A' for Active; 'I' for Inactive)
REMARK    1  A    between atoms: C_1  and  N_2
REMARK    2  A    between atoms: C_6  and  C_7
REMARK    3  A    between atoms: C_7  and  C_8
REMARK    4  A    between atoms: C_8  and  C_9
REMARK    5  A    between atoms: C_21  and  C_22
REMARK                            x       y       z     vdW  Elec       q    Type
REMARK                         _______ _______ _______ _____ _____    ______ ____
ROOT
ATOM      1  C   UNL     1       1.076   9.316  18.947  0.00  0.00    +0.000 A 
ATOM      2  C   UNL     1       1.903   9.110  17.825  0.00  0.00    +0.000 A 
ATOM      3  C   UNL     1       2.821   8.058  17.767  0.00  0.00    +0.000 A 
ATOM      4  C   UNL     1       2.921   7.167  18.836  0.00  0.00    +0.000 A 
ATOM      5  C   UNL     1       2.112   7.334  19.957  0.00  0.00    +0.000 A 
ATOM      6  C   UNL     1       1.208   8.396  20.004  0.00  0.00    +0.000 A 
ATOM      7  N   UNL     1       2.101   6.331  20.950  0.00  0.00    +0.000 N 
ATOM      8  C   UNL     1       1.379   5.152  20.476  0.00  0.00    +0.000 C 
ATOM      9  C   UNL     1       2.082   4.283  19.436  0.00  0.00    +0.000 A 
ATOM     10  C   UNL     1       1.502   3.012  19.236  0.00  0.00    +0.000 A 
ATOM     11  C   UNL     1       2.013   2.116  18.305  0.00  0.00    +0.000 A 
ATOM     12  C   UNL     1       3.113   2.475  17.540  0.00  0.00    +0.000 A 
ATOM     13  C   UNL     1       3.721   3.736  17.689  0.00  0.00    +0.000 A 
ATOM     14  C   UNL     1       3.197   4.660  18.637  0.00  0.00    +0.000 A 
ATOM     15  C   UNL     1       3.878   6.008  18.820  0.00  0.00    +0.000 C 
ATOM     16  H   UNL     1       1.666   6.693  21.798  0.00  0.00    +0.000 HD
ENDROOT
BRANCH   1  17
ATOM     17  C   UNL     1      -0.013  10.496  19.007  0.00  0.00    +0.000 C 
ATOM     18  C   UNL     1      -0.550  11.042  17.633  0.00  0.00    +0.000 C 
ATOM     19  C   UNL     1      -1.796  10.163  17.787  0.00  0.00    +0.000 C 
ATOM     20  C   UNL     1      -1.496  10.041  19.285  0.00  0.00    +0.000 C 
BRANCH  17  21
ATOM     21  C   UNL     1       0.461  11.587  19.996  0.00  0.00    +0.000 C 
BRANCH  21  27
ATOM     22  C   UNL     1      -1.966  13.462  20.878  0.00  0.00    +0.000 C 
ATOM     23  N   UNL     1      -1.284  12.471  21.667  0.00  0.00    +0.000 N 
ATOM     24  C   UNL     1      -1.544  12.216  22.981  0.00  0.00    +0.000 A 
ATOM     25  N   UNL     1      -0.759  11.259  23.408  0.00  0.00    +0.000 NA
ATOM     26  N   UNL     1       0.046  10.886  22.360  0.00  0.00    +0.000 NA
ATOM     27  C   UNL     1      -0.262  11.624  21.308  0.00  0.00    +0.000 A 
ENDBRANCH  21  27
ENDBRANCH  17  21
ENDBRANCH   1  17
BRANCH  13  28
ATOM     28  C   UNL     1       4.919   4.062  16.820  0.00  0.00    +0.000 C 
ATOM     29  F   UNL     1       4.741   5.160  16.031  0.00  0.00    +0.000 F 
ATOM     30  F   UNL     1       6.041   4.321  17.550  0.00  0.00    +0.000 F 
ATOM     31  F   UNL     1       5.246   3.051  15.967  0.00  0.00    +0.000 F 
ENDBRANCH  13  28
TORSDOF 4
ENDMDL
MODEL 4
REMARK VINA RESULT:      -9.1      2.053      3.032
REMARK  Name = 
REMARK  5 active torsions:
REMARK  status: ('A' for Active; 'I' for Inactive)
REMARK    1  A    between atoms: C_1  and  N_2
REMARK    2  A    between atoms: C_6  and  C_7
REMARK    3  A    between atoms: C_7  and  C_8
REMARK    4  A    between atoms: C_8  and  C_9
REMARK    5  A    between atoms: C_21  and  C_22
REMARK                            x       y       z     vdW  Elec       q    Type
REMARK                         _______ _______ _______ _____ _____    ______ ____
ROOT
ATOM      1  C   UNL     1       1.052   9.487  19.226  0.00  0.00    +0.000 A 
ATOM      2  C   UNL     1       1.832   9.342  18.062  0.00  0.00    +0.000 A 
ATOM      3  C   UNL     1       2.724   8.280  17.898  0.00  0.00    +0.000 A 
ATOM      4  C   UNL     1       2.845   7.316  18.900  0.00  0.00    +0.000 A 
ATOM      5  C   UNL     1       2.081   7.422  20.060  0.00  0.00    +0.000 A 
ATOM      6  C   UNL     1       1.203   8.496  20.213  0.00  0.00    +0.000 A 
ATOM      7  N   UNL     1       2.084   6.354  20.983  0.00  0.00    +0.000 N 
ATOM      8  C   UNL     1       1.320   5.224  20.458  0.00  0.00    +0.000 C 
ATOM      9  C   UNL     1       1.965   4.415  19.337  0.00  0.00    +0.000 A 
ATOM     10  C   UNL     1       1.351   3.172  19.074  0.00  0.00    +0.000 A 
ATOM     11  C   UNL     1       1.808   2.332  18.065  0.00  0.00    +0.000 A 
ATOM     12  C   UNL     1       2.886   2.721  17.285  0.00  0.00    +0.000 A 
ATOM     13  C   UNL     1       3.526   3.956  17.495  0.00  0.00    +0.000 A 
ATOM     14  C   UNL     1       3.058   4.824  18.522  0.00  0.00    +0.000 A 
ATOM     15  C   UNL     1       3.775   6.143  18.769  0.00  0.00    +0.000 C 
ATOM     16  H   UNL     1       1.690   6.666  21.869  0.00  0.00    +0.000 HD
ENDROOT
BRANCH   1  17
ATOM     17  C   UNL     1      -0.008  10.682  19.407  0.00  0.00    +0.000 C 
ATOM     18  C   UNL     1      -0.410  11.481  18.113  0.00  0.00    +0.000 C 
ATOM     19  C   UNL     1      -1.687  10.639  18.007  0.00  0.00    +0.000 C 
ATOM     20  C   UNL     1      -1.520  10.245  19.478  0.00  0.00    +0.000 C 
BRANCH  17  21
ATOM     21  C   UNL     1       0.406  11.563  20.609  0.00  0.00    +0.000 C 
BRANCH  21  27
ATOM     22  C   UNL     1      -0.520   9.916  23.180  0.00  0.00    +0.000 C 
ATOM     23  N   UNL     1      -1.086  11.132  22.660  0.00  0.00    +0.000 N 
ATOM     24  C   UNL     1      -2.185  11.754  23.174  0.00  0.00    +0.000 A 
ATOM     25  N   UNL     1      -2.443  12.835  22.481  0.00  0.00    +0.000 NA
ATOM     26  N   UNL     1      -1.507  12.918  21.480  0.00  0.00    +0.000 NA
ATOM     27  C   UNL     1      -0.690  11.884  21.579  0.00  0.00    +0.000 A 
ENDBRANCH  21  27
ENDBRANCH  17  21
ENDBRANCH   1  17
BRANCH  13  28
ATOM     28  C   UNL     1       4.698   4.318  16.604  0.00  0.00    +0.000 C 
ATOM     29  F   UNL     1       4.601   5.558  16.047  0.00  0.00    +0.000 F 
ATOM     30  F   UNL     1       5.886   4.316  17.275  0.00  0.00    +0.000 F 
ATOM     31  F   UNL     1       4.853   3.460  15.557  0.00  0.00    +0.000 F 
ENDBRANCH  13  28
TORSDOF 4
ENDMDL
MODEL 5
REMARK VINA RESULT:      -9.0      2.251      3.276
REMARK  Name = 
REMARK  5 active torsions:
REMARK  status: ('A' for Active; 'I' for Inactive)
REMARK    1  A    between atoms: C_1  and  N_2
REMARK    2  A    between atoms: C_6  and  C_7
REMARK    3  A    between atoms: C_7  and  C_8
REMARK    4  A    between atoms: C_8  and  C_9
REMARK    5  A    between atoms: C_21  and  C_22
REMARK                            x       y       z     vdW  Elec       q    Type
REMARK                         _______ _______ _______ _____ _____    ______ ____
ROOT
ATOM      1  C   UNL     1       1.310   9.462  18.864  0.00  0.00    +0.000 A 
ATOM      2  C   UNL     1       2.126   9.129  17.765  0.00  0.00    +0.000 A 
ATOM      3  C   UNL     1       2.935   7.990  17.763  0.00  0.00    +0.000 A 
ATOM      4  C   UNL     1       2.934   7.139  18.868  0.00  0.00    +0.000 A 
ATOM      5  C   UNL     1       2.132   7.431  19.969  0.00  0.00    +0.000 A 
ATOM      6  C   UNL     1       1.337   8.579  19.959  0.00  0.00    +0.000 A 
ATOM      7  N   UNL     1       2.008   6.477  21.001  0.00  0.00    +0.000 N 
ATOM      8  C   UNL     1       1.178   5.356  20.562  0.00  0.00    +0.000 C 
ATOM      9  C   UNL     1       1.804   4.379  19.570  0.00  0.00    +0.000 A 
ATOM     10  C   UNL     1       1.103   3.165  19.412  0.00  0.00    +0.000 A 
ATOM     11  C   UNL     1       1.534   2.185  18.525  0.00  0.00    +0.000 A 
ATOM     12  C   UNL     1       2.673   2.401  17.764  0.00  0.00    +0.000 A 
ATOM     13  C   UNL     1       3.401   3.601  17.873  0.00  0.00    +0.000 A 
ATOM     14  C   UNL     1       2.960   4.611  18.774  0.00  0.00    +0.000 A 
ATOM     15  C   UNL     1       3.771   5.891  18.914  0.00  0.00    +0.000 C 
ATOM     16  H   UNL     1       1.602   6.915  21.826  0.00  0.00    +0.000 HD
ENDROOT
BRANCH   1  17
ATOM     17  C   UNL     1       0.344  10.746  18.859  0.00  0.00    +0.000 C 
ATOM     18  C   UNL     1      -0.901  10.700  17.897  0.00  0.00    +0.000 C 
ATOM     19  C   UNL     1      -1.784  10.295  19.083  0.00  0.00    +0.000 C 
ATOM     20  C   UNL     1      -0.702  10.815  20.036  0.00  0.00    +0.000 C 
BRANCH  17  21
ATOM     21  C   UNL     1       1.195  12.034  18.754  0.00  0.00    +0.000 C 
BRANCH  21  27
ATOM     22  C   UNL     1      -0.462  14.739  19.107  0.00  0.00    +0.000 C 
ATOM     23  N   UNL     1       0.435  14.123  20.049  0.00  0.00    +0.000 N 
ATOM     24  C   UNL     1       0.769  14.656  21.258  0.00  0.00    +0.000 A 
ATOM     25  N   UNL     1       1.599  13.854  21.878  0.00  0.00    +0.000 NA
ATOM     26  N   UNL     1       1.829  12.780  21.054  0.00  0.00    +0.000 NA
ATOM     27  C   UNL     1       1.134  12.944  19.943  0.00  0.00    +0.000 A 
ENDBRANCH  21  27
ENDBRANCH  17  21
ENDBRANCH   1  17
BRANCH  13  28
ATOM     28  C   UNL     1       4.636   3.771  17.011  0.00  0.00    +0.000 C 
ATOM     29  F   UNL     1       4.947   2.668  16.274  0.00  0.00    +0.000 F 
ATOM     30  F   UNL     1       4.509   4.785  16.107  0.00  0.00    +0.000 F 
ATOM     31  F   UNL     1       5.755   4.050  17.737  0.00  0.00    +0.000 F 
ENDBRANCH  13  28
TORSDOF 4
ENDMDL
MODEL 6
REMARK VINA RESULT:      -8.7      2.074      3.010
REMARK  Name = 
REMARK  5 active torsions:
REMARK  status: ('A' for Active; 'I' for Inactive)
REMARK    1  A    between atoms: C_1  and  N_2
REMARK    2  A    between atoms: C_6  and  C_7
REMARK    3  A    between atoms: C_7  and  C_8
REMARK    4  A    between atoms: C_8  and  C_9
REMARK    5  A    between atoms: C_21  and  C_22
REMARK                            x       y       z     vdW  Elec       q    Type
REMARK                         _______ _______ _______ _____ _____    ______ ____
ROOT
ATOM      1  C   UNL     1       0.963   9.587  19.079  0.00  0.00    +0.000 A 
ATOM      2  C   UNL     1       1.738   9.416  17.915  0.00  0.00    +0.000 A 
ATOM      3  C   UNL     1       2.646   8.363  17.780  0.00  0.00    +0.000 A 
ATOM      4  C   UNL     1       2.789   7.436  18.813  0.00  0.00    +0.000 A 
ATOM      5  C   UNL     1       2.032   7.568  19.974  0.00  0.00    +0.000 A 
ATOM      6  C   UNL     1       1.137   8.632  20.098  0.00  0.00    +0.000 A 
ATOM      7  N   UNL     1       2.059   6.533  20.933  0.00  0.00    +0.000 N 
ATOM      8  C   UNL     1       1.310   5.373  20.452  0.00  0.00    +0.000 C 
ATOM      9  C   UNL     1       1.961   4.537  19.354  0.00  0.00    +0.000 A 
ATOM     10  C   UNL     1       1.366   3.276  19.137  0.00  0.00    +0.000 A 
ATOM     11  C   UNL     1       1.829   2.410  18.154  0.00  0.00    +0.000 A 
ATOM     12  C   UNL     1       2.896   2.790  17.353  0.00  0.00    +0.000 A 
ATOM     13  C   UNL     1       3.517   4.042  17.517  0.00  0.00    +0.000 A 
ATOM     14  C   UNL     1       3.041   4.936  18.518  0.00  0.00    +0.000 A 
ATOM     15  C   UNL     1       3.738   6.274  18.715  0.00  0.00    +0.000 C 
ATOM     16  H   UNL     1       1.665   6.868  21.811  0.00  0.00    +0.000 HD
ENDROOT
BRANCH   1  17
ATOM     17  C   UNL     1      -0.115  10.770  19.227  0.00  0.00    +0.000 C 
ATOM     18  C   UNL     1      -0.724  11.351  17.898  0.00  0.00    +0.000 C 
ATOM     19  C   UNL     1      -1.964  10.473  18.099  0.00  0.00    +0.000 C 
ATOM     20  C   UNL     1      -1.583  10.313  19.575  0.00  0.00    +0.000 C 
BRANCH  17  21
ATOM     21  C   UNL     1       0.417  11.835  20.216  0.00  0.00    +0.000 C 
BRANCH  21  27
ATOM     22  C   UNL     1      -0.571  14.834  19.755  0.00  0.00    +0.000 C 
ATOM     23  N   UNL     1       0.690  14.251  19.378  0.00  0.00    +0.000 N 
ATOM     24  C   UNL     1       1.667  14.905  18.687  0.00  0.00    +0.000 A 
ATOM     25  N   UNL     1       2.687  14.104  18.505  0.00  0.00    +0.000 NA
ATOM     26  N   UNL     1       2.371  12.895  19.073  0.00  0.00    +0.000 NA
ATOM     27  C   UNL     1       1.159  12.977  19.593  0.00  0.00    +0.000 A 
ENDBRANCH  21  27
ENDBRANCH  17  21
ENDBRANCH   1  17
BRANCH  13  28
ATOM     28  C   UNL     1       4.677   4.393  16.606  0.00  0.00    +0.000 C 
ATOM     29  F   UNL     1       4.801   3.564  15.532  0.00  0.00    +0.000 F 
ATOM     30  F   UNL     1       4.571   5.648  16.083  0.00  0.00    +0.000 F 
ATOM     31  F   UNL     1       5.882   4.347  17.241  0.00  0.00    +0.000 F 
ENDBRANCH  13  28
TORSDOF 4
ENDMDL
MODEL 7
REMARK VINA RESULT:      -8.7      3.903      8.512
REMARK  Name = 
REMARK  5 active torsions:
REMARK  status: ('A' for Active; 'I' for Inactive)
REMARK    1  A    between atoms: C_1  and  N_2
REMARK    2  A    between atoms: C_6  and  C_7
REMARK    3  A    between atoms: C_7  and  C_8
REMARK    4  A    between atoms: C_8  and  C_9
REMARK    5  A    between atoms: C_21  and  C_22
REMARK                            x       y       z     vdW  Elec       q    Type
REMARK                         _______ _______ _______ _____ _____    ______ ____
ROOT
ATOM      1  C   UNL     1       2.596   5.083  18.967  0.00  0.00    +0.000 A 
ATOM      2  C   UNL     1       1.956   5.186  20.218  0.00  0.00    +0.000 A 
ATOM      3  C   UNL     1       1.631   6.422  20.783  0.00  0.00    +0.000 A 
ATOM      4  C   UNL     1       1.926   7.598  20.092  0.00  0.00    +0.000 A 
ATOM      5  C   UNL     1       2.549   7.534  18.848  0.00  0.00    +0.000 A 
ATOM      6  C   UNL     1       2.877   6.292  18.302  0.00  0.00    +0.000 A 
ATOM      7  N   UNL     1       2.684   8.715  18.086  0.00  0.00    +0.000 N 
ATOM      8  C   UNL     1       1.391   9.116  17.535  0.00  0.00    +0.000 C 
ATOM      9  C   UNL     1       0.380   9.716  18.508  0.00  0.00    +0.000 A 
ATOM     10  C   UNL     1      -0.715  10.366  17.901  0.00  0.00    +0.000 A 
ATOM     11  C   UNL     1      -1.732  10.940  18.655  0.00  0.00    +0.000 A 
ATOM     12  C   UNL     1      -1.683  10.868  20.039  0.00  0.00    +0.000 A 
ATOM     13  C   UNL     1      -0.621  10.219  20.696  0.00  0.00    +0.000 A 
ATOM     14  C   UNL     1       0.420   9.623  19.928  0.00  0.00    +0.000 A 
ATOM     15  C   UNL     1       1.584   8.953  20.643  0.00  0.00    +0.000 C 
ATOM     16  H   UNL     1       3.356   8.564  17.335  0.00  0.00    +0.000 HD
ENDROOT
BRANCH   1  17
ATOM     17  C   UNL     1       2.935   3.666  18.290  0.00  0.00    +0.000 C 
ATOM     18  C   UNL     1       3.340   2.492  19.256  0.00  0.00    +0.000 C 
ATOM     19  C   UNL     1       1.906   1.954  19.179  0.00  0.00    +0.000 C 
ATOM     20  C   UNL     1       1.690   2.780  17.906  0.00  0.00    +0.000 C 
BRANCH  17  21
ATOM     21  C   UNL     1       3.894   3.880  17.094  0.00  0.00    +0.000 C 
BRANCH  21  27
ATOM     22  C   UNL     1       6.367   4.424  15.153  0.00  0.00    +0.000 C 
ATOM     23  N   UNL     1       6.361   4.405  16.591  0.00  0.00    +0.000 N 
ATOM     24  C   UNL     1       7.468   4.565  17.370  0.00  0.00    +0.000 A 
ATOM     25  N   UNL     1       7.130   4.502  18.634  0.00  0.00    +0.000 NA
ATOM     26  N   UNL     1       5.777   4.279  18.689  0.00  0.00    +0.000 NA
ATOM     27  C   UNL     1       5.309   4.211  17.455  0.00  0.00    +0.000 A 
ENDBRANCH  21  27
ENDBRANCH  17  21
ENDBRANCH   1  17
BRANCH  13  28
ATOM     28  C   UNL     1      -0.632  10.177  22.211  0.00  0.00    +0.000 C 
ATOM     29  F   UNL     1      -0.850   8.934  22.723  0.00  0.00    +0.000 F 
ATOM     30  F   UNL     1       0.548  10.590  22.755  0.00  0.00    +0.000 F 
ATOM     31  F   UNL     1      -1.599  10.969  22.756  0.00  0.00    +0.000 F 
ENDBRANCH  13  28
TORSDOF 4
ENDMDL
MODEL 8
REMARK VINA RESULT:      -8.7      1.974      2.967
REMARK  Name = 
REMARK  5 active torsions:
REMARK  status: ('A' for Active; 'I' for Inactive)
REMARK    1  A    between atoms: C_1  and  N_2
REMARK    2  A    between atoms: C_6  and  C_7
REMARK    3  A    between atoms: C_7  and  C_8
REMARK    4  A    between atoms: C_8  and  C_9
REMARK    5  A    between atoms: C_21  and  C_22
REMARK                            x       y       z     vdW  Elec       q    Type
REMARK                         _______ _______ _______ _____ _____    ______ ____
ROOT
ATOM      1  C   UNL     1       1.108   9.379  19.079  0.00  0.00    +0.000 A 
ATOM      2  C   UNL     1       1.928   9.187  17.949  0.00  0.00    +0.000 A 
ATOM      3  C   UNL     1       2.824   8.118  17.859  0.00  0.00    +0.000 A 
ATOM      4  C   UNL     1       2.910   7.197  18.903  0.00  0.00    +0.000 A 
ATOM      5  C   UNL     1       2.107   7.350  20.031  0.00  0.00    +0.000 A 
ATOM      6  C   UNL     1       1.225   8.429  20.110  0.00  0.00    +0.000 A 
ATOM      7  N   UNL     1       2.078   6.321  20.997  0.00  0.00    +0.000 N 
ATOM      8  C   UNL     1       1.331   5.170  20.493  0.00  0.00    +0.000 C 
ATOM      9  C   UNL     1       2.013   4.315  19.429  0.00  0.00    +0.000 A 
ATOM     10  C   UNL     1       1.407   3.062  19.197  0.00  0.00    +0.000 A 
ATOM     11  C   UNL     1       1.897   2.182  18.240  0.00  0.00    +0.000 A 
ATOM     12  C   UNL     1       3.002   2.539  17.481  0.00  0.00    +0.000 A 
ATOM     13  C   UNL     1       3.635   3.782  17.662  0.00  0.00    +0.000 A 
ATOM     14  C   UNL     1       3.133   4.692  18.636  0.00  0.00    +0.000 A 
ATOM     15  C   UNL     1       3.843   6.020  18.853  0.00  0.00    +0.000 C 
ATOM     16  H   UNL     1       1.654   6.669  21.856  0.00  0.00    +0.000 HD
ENDROOT
BRANCH   1  17
ATOM     17  C   UNL     1       0.045  10.579  19.174  0.00  0.00    +0.000 C 
ATOM     18  C   UNL     1      -0.549  11.117  17.820  0.00  0.00    +0.000 C 
ATOM     19  C   UNL     1      -1.801  10.262  18.045  0.00  0.00    +0.000 C 
ATOM     20  C   UNL     1      -1.431  10.154  19.529  0.00  0.00    +0.000 C 
BRANCH  17  21
ATOM     21  C   UNL     1       0.583  11.675  20.124  0.00  0.00    +0.000 C 
BRANCH  21  27
ATOM     22  C   UNL     1       2.525  13.425  18.294  0.00  0.00    +0.000 C 
ATOM     23  N   UNL     1       1.277  13.822  18.890  0.00  0.00    +0.000 N 
ATOM     24  C   UNL     1       0.745  15.075  18.806  0.00  0.00    +0.000 A 
ATOM     25  N   UNL     1      -0.396  15.112  19.448  0.00  0.00    +0.000 NA
ATOM     26  N   UNL     1      -0.613  13.865  19.979  0.00  0.00    +0.000 NA
ATOM     27  C   UNL     1       0.402  13.084  19.651  0.00  0.00    +0.000 A 
ENDBRANCH  21  27
ENDBRANCH  17  21
ENDBRANCH   1  17
BRANCH  13  28
ATOM     28  C   UNL     1       4.837   4.108  16.797  0.00  0.00    +0.000 C 
ATOM     29  F   UNL     1       4.679   5.228  16.037  0.00  0.00    +0.000 F 
ATOM     30  F   UNL     1       5.966   4.326  17.531  0.00  0.00    +0.000 F 
ATOM     31  F   UNL     1       5.143   3.113  15.918  0.00  0.00    +0.000 F 
ENDBRANCH  13  28
TORSDOF 4
ENDMDL
MODEL 9
REMARK VINA RESULT:      -8.7      0.777      1.520
REMARK  Name = 
REMARK  5 active torsions:
REMARK  status: ('A' for Active; 'I' for Inactive)
REMARK    1  A    between atoms: C_1  and  N_2
REMARK    2  A    between atoms: C_6  and  C_7
REMARK    3  A    between atoms: C_7  and  C_8
REMARK    4  A    between atoms: C_8  and  C_9
REMARK    5  A    between atoms: C_21  and  C_22
REMARK                            x       y       z     vdW  Elec       q    Type
REMARK                         _______ _______ _______ _____ _____    ______ ____
ROOT
ATOM      1  C   UNL     1       0.987   9.603  19.282  0.00  0.00    +0.000 A 
ATOM      2  C   UNL     1       1.757   9.462  18.111  0.00  0.00    +0.000 A 
ATOM      3  C   UNL     1       2.643   8.398  17.932  0.00  0.00    +0.000 A 
ATOM      4  C   UNL     1       2.770   7.428  18.928  0.00  0.00    +0.000 A 
ATOM      5  C   UNL     1       2.017   7.530  20.095  0.00  0.00    +0.000 A 
ATOM      6  C   UNL     1       1.144   8.606  20.263  0.00  0.00    +0.000 A 
ATOM      7  N   UNL     1       2.025   6.457  21.013  0.00  0.00    +0.000 N 
ATOM      8  C   UNL     1       1.252   5.332  20.488  0.00  0.00    +0.000 C 
ATOM      9  C   UNL     1       1.884   4.527  19.357  0.00  0.00    +0.000 A 
ATOM     10  C   UNL     1       1.264   3.288  19.092  0.00  0.00    +0.000 A 
ATOM     11  C   UNL     1       1.709   2.452  18.075  0.00  0.00    +0.000 A 
ATOM     12  C   UNL     1       2.782   2.842  17.287  0.00  0.00    +0.000 A 
ATOM     13  C   UNL     1       3.428   4.074  17.498  0.00  0.00    +0.000 A 
ATOM     14  C   UNL     1       2.971   4.937  18.535  0.00  0.00    +0.000 A 
ATOM     15  C   UNL     1       3.695   6.253  18.783  0.00  0.00    +0.000 C 
ATOM     16  H   UNL     1       1.639   6.765  21.904  0.00  0.00    +0.000 HD
ENDROOT
BRANCH   1  17
ATOM     17  C   UNL     1      -0.066  10.800  19.479  0.00  0.00    +0.000 C 
ATOM     18  C   UNL     1      -0.991  10.736  20.751  0.00  0.00    +0.000 C 
ATOM     19  C   UNL     1      -0.053  11.718  21.464  0.00  0.00    +0.000 C 
ATOM     20  C   UNL     1       0.518  12.125  20.102  0.00  0.00    +0.000 C 
BRANCH  17  21
ATOM     21  C   UNL     1      -0.813  11.057  18.149  0.00  0.00    +0.000 C 
BRANCH  21  27
ATOM     22  C   UNL     1      -3.096   9.689  16.388  0.00  0.00    +0.000 C 
ATOM     23  N   UNL     1      -3.256  10.632  17.464  0.00  0.00    +0.000 N 
ATOM     24  C   UNL     1      -4.451  11.146  17.869  0.00  0.00    +0.000 A 
ATOM     25  N   UNL     1      -4.260  11.969  18.869  0.00  0.00    +0.000 NA
ATOM     26  N   UNL     1      -2.911  12.011  19.118  0.00  0.00    +0.000 NA
ATOM     27  C   UNL     1      -2.299  11.210  18.264  0.00  0.00    +0.000 A 
ENDBRANCH  21  27
ENDBRANCH  17  21
ENDBRANCH   1  17
BRANCH  13  28
ATOM     28  C   UNL     1       4.593   4.437  16.600  0.00  0.00    +0.000 C 
ATOM     29  F   UNL     1       4.692   3.655  15.487  0.00  0.00    +0.000 F 
ATOM     30  F   UNL     1       4.518   5.717  16.135  0.00  0.00    +0.000 F 
ATOM     31  F   UNL     1       5.798   4.331  17.226  0.00  0.00    +0.000 F 
ENDBRANCH  13  28
TORSDOF 4
ENDMDL
