MODEL 1
REMARK VINA RESULT:      -9.3      0.000      0.000
REMARK  Name = 
REMARK  5 active torsions:
REMARK  status: ('A' for Active; 'I' for Inactive)
REMARK    1  A    between atoms: C_2  and  C_18
REMARK    2  A    between atoms: N_3  and  C_4
REMARK    3  A    between atoms: C_8  and  O_9
REMARK    4  A    between atoms: O_9  and  C_10
REMARK    5  A    between atoms: C_10  and  C_11
REMARK                            x       y       z     vdW  Elec       q    Type
REMARK                         _______ _______ _______ _____ _____    ______ ____
ROOT
ATOM      1  O   UNL     1       1.700   4.685  17.646  0.00  0.00    +0.000 OA
ATOM      2  C   UNL     1       2.843   5.121  17.757  0.00  0.00    +0.000 C 
ATOM      3  N   UNL     1       3.176   6.381  18.210  0.00  0.00    +0.000 N 
ATOM      4  H   UNL     1       4.134   6.681  18.090  0.00  0.00    +0.000 HD
ENDROOT
BRANCH   2   5
ATOM      5  C   UNL     1       4.051   4.226  17.585  0.00  0.00    +0.000 A 
ATOM      6  C   UNL     1       4.484   3.826  18.793  0.00  0.00    +0.000 A 
ATOM      7  N   UNL     1       5.816   3.924  19.123  0.00  0.00    +0.000 N 
ATOM      8  C   UNL     1       6.737   4.563  18.313  0.00  0.00    +0.000 A 
ATOM      9  O   UNL     1       7.808   4.985  18.747  0.00  0.00    +0.000 OA
ATOM     10  C   UNL     1       6.372   4.667  16.888  0.00  0.00    +0.000 A 
ATOM     11  C   UNL     1       7.350   4.944  15.932  0.00  0.00    +0.000 A 
ATOM     12  C   UNL     1       7.058   4.759  14.583  0.00  0.00    +0.000 A 
ATOM     13  C   UNL     1       5.794   4.296  14.202  0.00  0.00    +0.000 A 
ATOM     14  C   UNL     1       4.788   4.112  15.163  0.00  0.00    +0.000 A 
ATOM     15  C   UNL     1       5.058   4.342  16.512  0.00  0.00    +0.000 A 
ATOM     16  H   UNL     1       6.082   3.847  20.099  0.00  0.00    +0.000 HD
ENDBRANCH   2   5
BRANCH   3  17
ATOM     17  C   UNL     1       2.373   7.247  18.984  0.00  0.00    +0.000 A 
ATOM     18  C   UNL     1       2.109   7.081  20.343  0.00  0.00    +0.000 A 
ATOM     19  C   UNL     1       1.342   8.028  21.032  0.00  0.00    +0.000 A 
ATOM     20  C   UNL     1       0.861   9.161  20.374  0.00  0.00    +0.000 A 
ATOM     21  C   UNL     1       1.165   9.361  19.030  0.00  0.00    +0.000 A 
ATOM     22  C   UNL     1       1.893   8.390  18.336  0.00  0.00    +0.000 A 
BRANCH  21  23
ATOM     23  O   UNL     1       0.720  10.533  18.481  0.00  0.00    +0.000 OA
BRANCH  23  24
ATOM     24  C   UNL     1      -0.447  11.075  19.107  0.00  0.00    +0.000 C 
BRANCH  24  25
ATOM     25  C   UNL     1      -1.642  10.953  18.208  0.00  0.00    +0.000 A 
ATOM     26  C   UNL     1      -1.663  10.002  17.180  0.00  0.00    +0.000 A 
ATOM     27  C   UNL     1      -2.792   9.878  16.377  0.00  0.00    +0.000 A 
ATOM     28  C   UNL     1      -3.869  10.706  16.638  0.00  0.00    +0.000 A 
ATOM     29  N   UNL     1      -3.896  11.620  17.631  0.00  0.00    +0.000 NA
ATOM     30  C   UNL     1      -2.783  11.722  18.394  0.00  0.00    +0.000 A 
ENDBRANCH  24  25
ENDBRANCH  23  24
ENDBRANCH  21  23
ENDBRANCH   3  17
TORSDOF 5
ENDMDL
MODEL 2
REMARK VINA RESULT:      -8.7      2.273      3.064
REMARK  Name = 
REMARK  5 active torsions:
REMARK  status: ('A' for Active; 'I' for Inactive)
REMARK    1  A    between atoms: C_2  and  C_18
REMARK    2  A    between atoms: N_3  and  C_4
REMARK    3  A    between atoms: C_8  and  O_9
REMARK    4  A    between atoms: O_9  and  C_10
REMARK    5  A    between atoms: C_10  and  C_11
REMARK                            x       y       z     vdW  Elec       q    Type
REMARK                         _______ _______ _______ _____ _____    ______ ____
ROOT
ATOM      1  O   UNL     1       1.727   4.638  17.662  0.00  0.00    +0.000 OA
ATOM      2  C   UNL     1       2.869   5.084  17.734  0.00  0.00    +0.000 C 
ATOM      3  N   UNL     1       3.205   6.357  18.144  0.00  0.00    +0.000 N 
ATOM      4  H   UNL     1       4.158   6.659  17.994  0.00  0.00    +0.000 HD
ENDROOT
BRANCH   2   5
ATOM      5  C   UNL     1       4.078   4.190  17.558  0.00  0.00    +0.000 A 
ATOM      6  C   UNL     1       4.512   3.787  18.765  0.00  0.00    +0.000 A 
ATOM      7  N   UNL     1       5.844   3.885  19.094  0.00  0.00    +0.000 N 
ATOM      8  C   UNL     1       6.764   4.527  18.285  0.00  0.00    +0.000 A 
ATOM      9  O   UNL     1       7.835   4.950  18.720  0.00  0.00    +0.000 OA
ATOM     10  C   UNL     1       6.398   4.636  16.861  0.00  0.00    +0.000 A 
ATOM     11  C   UNL     1       7.375   4.917  15.905  0.00  0.00    +0.000 A 
ATOM     12  C   UNL     1       7.082   4.737  14.556  0.00  0.00    +0.000 A 
ATOM     13  C   UNL     1       5.818   4.274  14.174  0.00  0.00    +0.000 A 
ATOM     14  C   UNL     1       4.813   4.085  15.135  0.00  0.00    +0.000 A 
ATOM     15  C   UNL     1       5.084   4.311  16.485  0.00  0.00    +0.000 A 
ATOM     16  H   UNL     1       6.111   3.804  20.069  0.00  0.00    +0.000 HD
ENDBRANCH   2   5
BRANCH   3  17
ATOM     17  C   UNL     1       2.416   7.239  18.913  0.00  0.00    +0.000 A 
ATOM     18  C   UNL     1       2.080   7.042  20.252  0.00  0.00    +0.000 A 
ATOM     19  C   UNL     1       1.335   8.007  20.941  0.00  0.00    +0.000 A 
ATOM     20  C   UNL     1       0.947   9.187  20.304  0.00  0.00    +0.000 A 
ATOM     21  C   UNL     1       1.324   9.415  18.983  0.00  0.00    +0.000 A 
ATOM     22  C   UNL     1       2.030   8.429  18.287  0.00  0.00    +0.000 A 
BRANCH  21  23
ATOM     23  O   UNL     1       0.969  10.629  18.458  0.00  0.00    +0.000 OA
BRANCH  23  24
ATOM     24  C   UNL     1       0.618  11.616  19.432  0.00  0.00    +0.000 C 
BRANCH  24  25
ATOM     25  C   UNL     1       1.579  12.767  19.400  0.00  0.00    +0.000 A 
ATOM     26  C   UNL     1       2.434  12.947  18.305  0.00  0.00    +0.000 A 
ATOM     27  C   UNL     1       3.296  14.038  18.274  0.00  0.00    +0.000 A 
ATOM     28  C   UNL     1       3.266  14.920  19.340  0.00  0.00    +0.000 A 
ATOM     29  N   UNL     1       2.444  14.792  20.403  0.00  0.00    +0.000 NA
ATOM     30  C   UNL     1       1.619  13.720  20.409  0.00  0.00    +0.000 A 
ENDBRANCH  24  25
ENDBRANCH  23  24
ENDBRANCH  21  23
ENDBRANCH   3  17
TORSDOF 5
ENDMDL
MODEL 3
REMARK VINA RESULT:      -8.6      2.303      2.806
REMARK  Name = 
REMARK  5 active torsions:
REMARK  status: ('A' for Active; 'I' for Inactive)
REMARK    1  A    between atoms: C_2  and  C_18
REMARK    2  A    between atoms: N_3  and  C_4
REMARK    3  A    between atoms: C_8  and  O_9
REMARK    4  A    between atoms: O_9  and  C_10
REMARK    5  A    between atoms: C_10  and  C_11
REMARK                            x       y       z     vdW  Elec       q    Type
REMARK                         _______ _______ _______ _____ _____    ______ ____
ROOT
ATOM      1  O   UNL     1       1.721   4.652  17.706  0.00  0.00    +0.000 OA
ATOM      2  C   UNL     1       2.860   5.107  17.757  0.00  0.00    +0.000 C 
ATOM      3  N   UNL     1       3.192   6.390  18.142  0.00  0.00    +0.000 N 
ATOM      4  H   UNL     1       4.141   6.695  17.976  0.00  0.00    +0.000 HD
ENDROOT
BRANCH   2   5
ATOM      5  C   UNL     1       4.074   4.219  17.585  0.00  0.00    +0.000 A 
ATOM      6  C   UNL     1       4.507   3.818  18.793  0.00  0.00    +0.000 A 
ATOM      7  N   UNL     1       5.838   3.922  19.125  0.00  0.00    +0.000 N 
ATOM      8  C   UNL     1       6.757   4.569  18.318  0.00  0.00    +0.000 A 
ATOM      9  O   UNL     1       7.825   4.996  18.755  0.00  0.00    +0.000 OA
ATOM     10  C   UNL     1       6.394   4.675  16.894  0.00  0.00    +0.000 A 
ATOM     11  C   UNL     1       7.371   4.961  15.939  0.00  0.00    +0.000 A 
ATOM     12  C   UNL     1       7.083   4.779  14.589  0.00  0.00    +0.000 A 
ATOM     13  C   UNL     1       5.822   4.309  14.205  0.00  0.00    +0.000 A 
ATOM     14  C   UNL     1       4.816   4.117  15.163  0.00  0.00    +0.000 A 
ATOM     15  C   UNL     1       5.083   4.344  16.514  0.00  0.00    +0.000 A 
ATOM     16  H   UNL     1       6.104   3.844  20.101  0.00  0.00    +0.000 HD
ENDBRANCH   2   5
BRANCH   3  17
ATOM     17  C   UNL     1       2.404   7.280  18.903  0.00  0.00    +0.000 A 
ATOM     18  C   UNL     1       2.044   7.081  20.235  0.00  0.00    +0.000 A 
ATOM     19  C   UNL     1       1.303   8.053  20.918  0.00  0.00    +0.000 A 
ATOM     20  C   UNL     1       0.944   9.242  20.281  0.00  0.00    +0.000 A 
ATOM     21  C   UNL     1       1.345   9.472  18.968  0.00  0.00    +0.000 A 
ATOM     22  C   UNL     1       2.046   8.479  18.277  0.00  0.00    +0.000 A 
BRANCH  21  23
ATOM     23  O   UNL     1       1.017  10.694  18.444  0.00  0.00    +0.000 OA
BRANCH  23  24
ATOM     24  C   UNL     1       2.132  11.564  18.228  0.00  0.00    +0.000 C 
BRANCH  24  25
ATOM     25  C   UNL     1       1.735  12.999  18.418  0.00  0.00    +0.000 A 
ATOM     26  C   UNL     1       0.395  13.342  18.636  0.00  0.00    +0.000 A 
ATOM     27  C   UNL     1       0.047  14.672  18.845  0.00  0.00    +0.000 A 
ATOM     28  C   UNL     1       1.059  15.616  18.838  0.00  0.00    +0.000 A 
ATOM     29  N   UNL     1       2.364  15.324  18.651  0.00  0.00    +0.000 NA
ATOM     30  C   UNL     1       2.673  14.023  18.446  0.00  0.00    +0.000 A 
ENDBRANCH  24  25
ENDBRANCH  23  24
ENDBRANCH  21  23
ENDBRANCH   3  17
TORSDOF 5
ENDMDL
MODEL 4
REMARK VINA RESULT:      -8.5      2.636      8.719
REMARK  Name = 
REMARK  5 active torsions:
REMARK  status: ('A' for Active; 'I' for Inactive)
REMARK    1  A    between atoms: C_2  and  C_18
REMARK    2  A    between atoms: N_3  and  C_4
REMARK    3  A    between atoms: C_8  and  O_9
REMARK    4  A    between atoms: O_9  and  C_10
REMARK    5  A    between atoms: C_10  and  C_11
REMARK                            x       y       z     vdW  Elec       q    Type
REMARK                         _______ _______ _______ _____ _____    ______ ____
ROOT
ATOM      1  O   UNL     1       1.459   8.108  21.682  0.00  0.00    +0.000 OA
ATOM      2  C   UNL     1       1.572   8.273  20.471  0.00  0.00    +0.000 C 
ATOM      3  N   UNL     1       2.177   7.392  19.598  0.00  0.00    +0.000 N 
ATOM      4  H   UNL     1       2.361   7.719  18.659  0.00  0.00    +0.000 HD
ENDROOT
BRANCH   2   5
ATOM      5  C   UNL     1       0.865   9.405  19.758  0.00  0.00    +0.000 A 
ATOM      6  C   UNL     1       1.226   9.411  18.463  0.00  0.00    +0.000 A 
ATOM      7  N   UNL     1       1.633  10.579  17.860  0.00  0.00    +0.000 N 
ATOM      8  C   UNL     1       1.835  11.750  18.566  0.00  0.00    +0.000 A 
ATOM      9  O   UNL     1       2.541  12.661  18.135  0.00  0.00    +0.000 OA
ATOM     10  C   UNL     1       1.118  11.854  19.850  0.00  0.00    +0.000 A 
ATOM     11  C   UNL     1       0.945  13.098  20.459  0.00  0.00    +0.000 A 
ATOM     12  C   UNL     1       0.035  13.227  21.505  0.00  0.00    +0.000 A 
ATOM     13  C   UNL     1      -0.697  12.113  21.931  0.00  0.00    +0.000 A 
ATOM     14  C   UNL     1      -0.448  10.848  21.377  0.00  0.00    +0.000 A 
ATOM     15  C   UNL     1       0.498  10.702  20.362  0.00  0.00    +0.000 A 
ATOM     16  H   UNL     1       2.121  10.523  16.972  0.00  0.00    +0.000 HD
ENDBRANCH   2   5
BRANCH   3  17
ATOM     17  C   UNL     1       2.419   6.017  19.808  0.00  0.00    +0.000 A 
ATOM     18  C   UNL     1       1.479   5.112  20.301  0.00  0.00    +0.000 A 
ATOM     19  C   UNL     1       1.804   3.756  20.421  0.00  0.00    +0.000 A 
ATOM     20  C   UNL     1       3.058   3.292  20.022  0.00  0.00    +0.000 A 
ATOM     21  C   UNL     1       3.982   4.180  19.478  0.00  0.00    +0.000 A 
ATOM     22  C   UNL     1       3.669   5.540  19.401  0.00  0.00    +0.000 A 
BRANCH  21  23
ATOM     23  O   UNL     1       5.158   3.631  19.041  0.00  0.00    +0.000 OA
BRANCH  23  24
ATOM     24  C   UNL     1       6.155   4.586  18.666  0.00  0.00    +0.000 C 
BRANCH  24  25
ATOM     25  C   UNL     1       6.324   4.627  17.176  0.00  0.00    +0.000 A 
ATOM     26  C   UNL     1       5.453   3.913  16.343  0.00  0.00    +0.000 A 
ATOM     27  C   UNL     1       5.602   3.988  14.962  0.00  0.00    +0.000 A 
ATOM     28  C   UNL     1       6.615   4.786  14.460  0.00  0.00    +0.000 A 
ATOM     29  N   UNL     1       7.461   5.504  15.228  0.00  0.00    +0.000 NA
ATOM     30  C   UNL     1       7.296   5.409  16.567  0.00  0.00    +0.000 A 
ENDBRANCH  24  25
ENDBRANCH  23  24
ENDBRANCH  21  23
ENDBRANCH   3  17
TORSDOF 5
ENDMDL
MODEL 5
REMARK VINA RESULT:      -8.5      1.471      2.079
REMARK  Name = 
REMARK  5 active torsions:
REMARK  status: ('A' for Active; 'I' for Inactive)
REMARK    1  A    between atoms: C_2  and  C_18
REMARK    2  A    between atoms: N_3  and  C_4
REMARK    3  A    between atoms: C_8  and  O_9
REMARK    4  A    between atoms: O_9  and  C_10
REMARK    5  A    between atoms: C_10  and  C_11
REMARK                            x       y       z     vdW  Elec       q    Type
REMARK                         _______ _______ _______ _____ _____    ______ ____
ROOT
ATOM      1  O   UNL     1       1.703   4.630  17.676  0.00  0.00    +0.000 OA
ATOM      2  C   UNL     1       2.844   5.082  17.728  0.00  0.00    +0.000 C 
ATOM      3  N   UNL     1       3.179   6.361  18.122  0.00  0.00    +0.000 N 
ATOM      4  H   UNL     1       4.129   6.666  17.956  0.00  0.00    +0.000 HD
ENDROOT
BRANCH   2   5
ATOM      5  C   UNL     1       4.055   4.193  17.545  0.00  0.00    +0.000 A 
ATOM      6  C   UNL     1       4.497   3.790  18.749  0.00  0.00    +0.000 A 
ATOM      7  N   UNL     1       5.831   3.893  19.070  0.00  0.00    +0.000 N 
ATOM      8  C   UNL     1       6.744   4.539  18.257  0.00  0.00    +0.000 A 
ATOM      9  O   UNL     1       7.816   4.965  18.687  0.00  0.00    +0.000 OA
ATOM     10  C   UNL     1       6.370   4.648  16.836  0.00  0.00    +0.000 A 
ATOM     11  C   UNL     1       7.340   4.934  15.874  0.00  0.00    +0.000 A 
ATOM     12  C   UNL     1       7.041   4.754  14.526  0.00  0.00    +0.000 A 
ATOM     13  C   UNL     1       5.776   4.286  14.151  0.00  0.00    +0.000 A 
ATOM     14  C   UNL     1       4.778   4.094  15.117  0.00  0.00    +0.000 A 
ATOM     15  C   UNL     1       5.055   4.319  16.466  0.00  0.00    +0.000 A 
ATOM     16  H   UNL     1       6.104   3.812  20.044  0.00  0.00    +0.000 HD
ENDBRANCH   2   5
BRANCH   3  17
ATOM     17  C   UNL     1       2.395   7.247  18.892  0.00  0.00    +0.000 A 
ATOM     18  C   UNL     1       2.112   7.081  20.248  0.00  0.00    +0.000 A 
ATOM     19  C   UNL     1       1.367   8.048  20.935  0.00  0.00    +0.000 A 
ATOM     20  C   UNL     1       0.928   9.199  20.279  0.00  0.00    +0.000 A 
ATOM     21  C   UNL     1       1.254   9.397  18.939  0.00  0.00    +0.000 A 
ATOM     22  C   UNL     1       1.958   8.408  18.247  0.00  0.00    +0.000 A 
BRANCH  21  23
ATOM     23  O   UNL     1       0.851  10.586  18.393  0.00  0.00    +0.000 OA
BRANCH  23  24
ATOM     24  C   UNL     1      -0.549  10.854  18.523  0.00  0.00    +0.000 C 
BRANCH  24  25
ATOM     25  C   UNL     1      -0.783  12.248  19.026  0.00  0.00    +0.000 A 
ATOM     26  C   UNL     1      -1.696  12.485  20.060  0.00  0.00    +0.000 A 
ATOM     27  C   UNL     1      -1.878  13.778  20.539  0.00  0.00    +0.000 A 
ATOM     28  C   UNL     1      -1.128  14.793  19.969  0.00  0.00    +0.000 A 
ATOM     29  N   UNL     1      -0.224  14.602  18.985  0.00  0.00    +0.000 NA
ATOM     30  C   UNL     1      -0.071  13.335  18.536  0.00  0.00    +0.000 A 
ENDBRANCH  24  25
ENDBRANCH  23  24
ENDBRANCH  21  23
ENDBRANCH   3  17
TORSDOF 5
ENDMDL
MODEL 6
REMARK VINA RESULT:      -8.5      2.203      3.693
REMARK  Name = 
REMARK  5 active torsions:
REMARK  status: ('A' for Active; 'I' for Inactive)
REMARK    1  A    between atoms: C_2  and  C_18
REMARK    2  A    between atoms: N_3  and  C_4
REMARK    3  A    between atoms: C_8  and  O_9
REMARK    4  A    between atoms: O_9  and  C_10
REMARK    5  A    between atoms: C_10  and  C_11
REMARK                            x       y       z     vdW  Elec       q    Type
REMARK                         _______ _______ _______ _____ _____    ______ ____
ROOT
ATOM      1  O   UNL     1       1.895   7.891  18.605  0.00  0.00    +0.000 OA
ATOM      2  C   UNL     1       2.290   7.392  19.655  0.00  0.00    +0.000 C 
ATOM      3  N   UNL     1       2.071   7.907  20.916  0.00  0.00    +0.000 N 
ATOM      4  H   UNL     1       2.592   7.503  21.682  0.00  0.00    +0.000 HD
ENDROOT
BRANCH   2   5
ATOM      5  C   UNL     1       2.913   6.013  19.690  0.00  0.00    +0.000 A 
ATOM      6  C   UNL     1       4.177   6.084  19.237  0.00  0.00    +0.000 A 
ATOM      7  N   UNL     1       4.624   5.200  18.283  0.00  0.00    +0.000 N 
ATOM      8  C   UNL     1       3.783   4.310  17.640  0.00  0.00    +0.000 A 
ATOM      9  O   UNL     1       4.071   3.803  16.556  0.00  0.00    +0.000 OA
ATOM     10  C   UNL     1       2.539   3.976  18.356  0.00  0.00    +0.000 A 
ATOM     11  C   UNL     1       1.807   2.841  18.002  0.00  0.00    +0.000 A 
ATOM     12  C   UNL     1       0.807   2.379  18.852  0.00  0.00    +0.000 A 
ATOM     13  C   UNL     1       0.549   3.052  20.052  0.00  0.00    +0.000 A 
ATOM     14  C   UNL     1       1.222   4.245  20.354  0.00  0.00    +0.000 A 
ATOM     15  C   UNL     1       2.192   4.741  19.482  0.00  0.00    +0.000 A 
ATOM     16  H   UNL     1       5.484   5.413  17.787  0.00  0.00    +0.000 HD
ENDBRANCH   2   5
BRANCH   3  17
ATOM     17  C   UNL     1       1.069   8.827  21.297  0.00  0.00    +0.000 A 
ATOM     18  C   UNL     1       0.300   8.727  22.456  0.00  0.00    +0.000 A 
ATOM     19  C   UNL     1      -0.632   9.723  22.770  0.00  0.00    +0.000 A 
ATOM     20  C   UNL     1      -0.779  10.838  21.944  0.00  0.00    +0.000 A 
ATOM     21  C   UNL     1       0.023  10.972  20.814  0.00  0.00    +0.000 A 
ATOM     22  C   UNL     1       0.920   9.953  20.481  0.00  0.00    +0.000 A 
BRANCH  21  23
ATOM     23  O   UNL     1      -0.131  12.130  20.101  0.00  0.00    +0.000 OA
BRANCH  23  24
ATOM     24  C   UNL     1      -0.243  11.945  18.687  0.00  0.00    +0.000 C 
BRANCH  24  25
ATOM     25  C   UNL     1      -1.599  11.418  18.320  0.00  0.00    +0.000 A 
ATOM     26  C   UNL     1      -1.724  10.253  17.552  0.00  0.00    +0.000 A 
ATOM     27  C   UNL     1      -2.987   9.758  17.249  0.00  0.00    +0.000 A 
ATOM     28  C   UNL     1      -4.087  10.443  17.736  0.00  0.00    +0.000 A 
ATOM     29  N   UNL     1      -4.008  11.556  18.495  0.00  0.00    +0.000 NA
ATOM     30  C   UNL     1      -2.768  12.018  18.771  0.00  0.00    +0.000 A 
ENDBRANCH  24  25
ENDBRANCH  23  24
ENDBRANCH  21  23
ENDBRANCH   3  17
TORSDOF 5
ENDMDL
MODEL 7
REMARK VINA RESULT:      -8.5      2.657      8.229
REMARK  Name = 
REMARK  5 active torsions:
REMARK  status: ('A' for Active; 'I' for Inactive)
REMARK    1  A    between atoms: C_2  and  C_18
REMARK    2  A    between atoms: N_3  and  C_4
REMARK    3  A    between atoms: C_8  and  O_9
REMARK    4  A    between atoms: O_9  and  C_10
REMARK    5  A    between atoms: C_10  and  C_11
REMARK                            x       y       z     vdW  Elec       q    Type
REMARK                         _______ _______ _______ _____ _____    ______ ____
ROOT
ATOM      1  O   UNL     1       2.638   6.730  19.938  0.00  0.00    +0.000 OA
ATOM      2  C   UNL     1       2.519   7.584  19.063  0.00  0.00    +0.000 C 
ATOM      3  N   UNL     1       3.298   7.679  17.929  0.00  0.00    +0.000 N 
ATOM      4  H   UNL     1       3.216   8.523  17.377  0.00  0.00    +0.000 HD
ENDROOT
BRANCH   2   5
ATOM      5  C   UNL     1       1.342   8.536  19.043  0.00  0.00    +0.000 A 
ATOM      6  C   UNL     1       1.369   9.254  17.907  0.00  0.00    +0.000 A 
ATOM      7  N   UNL     1       1.230  10.621  17.944  0.00  0.00    +0.000 N 
ATOM      8  C   UNL     1       1.209  11.335  19.129  0.00  0.00    +0.000 A 
ATOM      9  O   UNL     1       1.466  12.537  19.173  0.00  0.00    +0.000 OA
ATOM     10  C   UNL     1       0.817  10.572  20.327  0.00  0.00    +0.000 A 
ATOM     11  C   UNL     1       0.406  11.240  21.482  0.00  0.00    +0.000 A 
ATOM     12  C   UNL     1      -0.227  10.526  22.496  0.00  0.00    +0.000 A 
ATOM     13  C   UNL     1      -0.446   9.152  22.347  0.00  0.00    +0.000 A 
ATOM     14  C   UNL     1       0.057   8.472  21.227  0.00  0.00    +0.000 A 
ATOM     15  C   UNL     1       0.734   9.173  20.229  0.00  0.00    +0.000 A 
ATOM     16  H   UNL     1       1.488  11.159  17.123  0.00  0.00    +0.000 HD
ENDBRANCH   2   5
BRANCH   3  17
ATOM     17  C   UNL     1       4.078   6.659  17.344  0.00  0.00    +0.000 A 
ATOM     18  C   UNL     1       5.300   6.862  16.704  0.00  0.00    +0.000 A 
ATOM     19  C   UNL     1       6.023   5.772  16.204  0.00  0.00    +0.000 A 
ATOM     20  C   UNL     1       5.543   4.472  16.367  0.00  0.00    +0.000 A 
ATOM     21  C   UNL     1       4.350   4.256  17.052  0.00  0.00    +0.000 A 
ATOM     22  C   UNL     1       3.610   5.351  17.510  0.00  0.00    +0.000 A 
BRANCH  21  23
ATOM     23  O   UNL     1       3.990   2.948  17.234  0.00  0.00    +0.000 OA
BRANCH  23  24
ATOM     24  C   UNL     1       2.619   2.756  17.596  0.00  0.00    +0.000 C 
BRANCH  24  25
ATOM     25  C   UNL     1       2.435   2.874  19.080  0.00  0.00    +0.000 A 
ATOM     26  C   UNL     1       1.233   3.363  19.609  0.00  0.00    +0.000 A 
ATOM     27  C   UNL     1       1.064   3.434  20.988  0.00  0.00    +0.000 A 
ATOM     28  C   UNL     1       2.104   3.002  21.793  0.00  0.00    +0.000 A 
ATOM     29  N   UNL     1       3.268   2.506  21.322  0.00  0.00    +0.000 NA
ATOM     30  C   UNL     1       3.407   2.452  19.978  0.00  0.00    +0.000 A 
ENDBRANCH  24  25
ENDBRANCH  23  24
ENDBRANCH  21  23
ENDBRANCH   3  17
TORSDOF 5
ENDMDL
MODEL 8
REMARK VINA RESULT:      -8.3      2.192      3.678
REMARK  Name = 
REMARK  5 active torsions:
REMARK  status: ('A' for Active; 'I' for Inactive)
REMARK    1  A    between atoms: C_2  and  C_18
REMARK    2  A    between atoms: N_3  and  C_4
REMARK    3  A    between atoms: C_8  and  O_9
REMARK    4  A    between atoms: O_9  and  C_10
REMARK    5  A    between atoms: C_10  and  C_11
REMARK                            x       y       z     vdW  Elec       q    Type
REMARK                         _______ _______ _______ _____ _____    ______ ____
ROOT
ATOM      1  O   UNL     1       2.120   7.763  18.502  0.00  0.00    +0.000 OA
ATOM      2  C   UNL     1       2.439   7.267  19.580  0.00  0.00    +0.000 C 
ATOM      3  N   UNL     1       2.142   7.794  20.820  0.00  0.00    +0.000 N 
ATOM      4  H   UNL     1       2.607   7.389  21.621  0.00  0.00    +0.000 HD
ENDROOT
BRANCH   2   5
ATOM      5  C   UNL     1       3.042   5.882  19.665  0.00  0.00    +0.000 A 
ATOM      6  C   UNL     1       4.330   5.933  19.282  0.00  0.00    +0.000 A 
ATOM      7  N   UNL     1       4.820   5.033  18.365  0.00  0.00    +0.000 N 
ATOM      8  C   UNL     1       4.006   4.146  17.685  0.00  0.00    +0.000 A 
ATOM      9  O   UNL     1       4.348   3.624  16.625  0.00  0.00    +0.000 OA
ATOM     10  C   UNL     1       2.719   3.834  18.334  0.00  0.00    +0.000 A 
ATOM     11  C   UNL     1       1.995   2.704  17.951  0.00  0.00    +0.000 A 
ATOM     12  C   UNL     1       0.943   2.262  18.749  0.00  0.00    +0.000 A 
ATOM     13  C   UNL     1       0.626   2.952  19.925  0.00  0.00    +0.000 A 
ATOM     14  C   UNL     1       1.296   4.141  20.251  0.00  0.00    +0.000 A 
ATOM     15  C   UNL     1       2.319   4.616  19.430  0.00  0.00    +0.000 A 
ATOM     16  H   UNL     1       5.708   5.231  17.916  0.00  0.00    +0.000 HD
ENDBRANCH   2   5
BRANCH   3  17
ATOM     17  C   UNL     1       1.128   8.727  21.128  0.00  0.00    +0.000 A 
ATOM     18  C   UNL     1       0.596   8.929  22.401  0.00  0.00    +0.000 A 
ATOM     19  C   UNL     1      -0.371   9.919  22.610  0.00  0.00    +0.000 A 
ATOM     20  C   UNL     1      -0.789  10.733  21.556  0.00  0.00    +0.000 A 
ATOM     21  C   UNL     1      -0.222  10.574  20.294  0.00  0.00    +0.000 A 
ATOM     22  C   UNL     1       0.710   9.554  20.080  0.00  0.00    +0.000 A 
BRANCH  21  23
ATOM     23  O   UNL     1      -0.631  11.462  19.336  0.00  0.00    +0.000 OA
BRANCH  23  24
ATOM     24  C   UNL     1      -2.011  11.830  19.419  0.00  0.00    +0.000 C 
BRANCH  24  25
ATOM     25  C   UNL     1      -2.735  11.489  18.151  0.00  0.00    +0.000 A 
ATOM     26  C   UNL     1      -4.105  11.752  18.023  0.00  0.00    +0.000 A 
ATOM     27  C   UNL     1      -4.755  11.461  16.828  0.00  0.00    +0.000 A 
ATOM     28  C   UNL     1      -4.007  10.924  15.795  0.00  0.00    +0.000 A 
ATOM     29  N   UNL     1      -2.683  10.674  15.873  0.00  0.00    +0.000 NA
ATOM     30  C   UNL     1      -2.077  10.963  17.047  0.00  0.00    +0.000 A 
ENDBRANCH  24  25
ENDBRANCH  23  24
ENDBRANCH  21  23
ENDBRANCH   3  17
TORSDOF 5
ENDMDL
MODEL 9
REMARK VINA RESULT:      -8.3      2.844      8.619
REMARK  Name = 
REMARK  5 active torsions:
REMARK  status: ('A' for Active; 'I' for Inactive)
REMARK    1  A    between atoms: C_2  and  C_18
REMARK    2  A    between atoms: N_3  and  C_4
REMARK    3  A    between atoms: C_8  and  O_9
REMARK    4  A    between atoms: O_9  and  C_10
REMARK    5  A    between atoms: C_10  and  C_11
REMARK                            x       y       z     vdW  Elec       q    Type
REMARK                         _______ _______ _______ _____ _____    ______ ____
ROOT
ATOM      1  O   UNL     1       1.071   8.181  21.820  0.00  0.00    +0.000 OA
ATOM      2  C   UNL     1       1.361   8.399  20.647  0.00  0.00    +0.000 C 
ATOM      3  N   UNL     1       2.095   7.557  19.836  0.00  0.00    +0.000 N 
ATOM      4  H   UNL     1       2.414   7.925  18.950  0.00  0.00    +0.000 HD
ENDROOT
BRANCH   2   5
ATOM      5  C   UNL     1       0.761   9.563  19.887  0.00  0.00    +0.000 A 
ATOM      6  C   UNL     1       1.087   9.460  18.587  0.00  0.00    +0.000 A 
ATOM      7  N   UNL     1       1.600  10.542  17.910  0.00  0.00    +0.000 N 
ATOM      8  C   UNL     1       1.946  11.721  18.546  0.00  0.00    +0.000 A 
ATOM      9  O   UNL     1       2.733  12.525  18.050  0.00  0.00    +0.000 OA
ATOM     10  C   UNL     1       1.278  11.970  19.837  0.00  0.00    +0.000 A 
ATOM     11  C   UNL     1       1.257  13.256  20.379  0.00  0.00    +0.000 A 
ATOM     12  C   UNL     1       0.395  13.539  21.434  0.00  0.00    +0.000 A 
ATOM     13  C   UNL     1      -0.442  12.536  21.937  0.00  0.00    +0.000 A 
ATOM     14  C   UNL     1      -0.344  11.224  21.450  0.00  0.00    +0.000 A 
ATOM     15  C   UNL     1       0.553  10.922  20.425  0.00  0.00    +0.000 A 
ATOM     16  H   UNL     1       2.055  10.386  17.017  0.00  0.00    +0.000 HD
ENDBRANCH   2   5
BRANCH   3  17
ATOM     17  C   UNL     1       2.311   6.175  20.020  0.00  0.00    +0.000 A 
ATOM     18  C   UNL     1       1.337   5.267  20.436  0.00  0.00    +0.000 A 
ATOM     19  C   UNL     1       1.641   3.904  20.535  0.00  0.00    +0.000 A 
ATOM     20  C   UNL     1       2.910   3.437  20.191  0.00  0.00    +0.000 A 
ATOM     21  C   UNL     1       3.872   4.329  19.723  0.00  0.00    +0.000 A 
ATOM     22  C   UNL     1       3.577   5.695  19.668  0.00  0.00    +0.000 A 
BRANCH  21  23
ATOM     23  O   UNL     1       5.063   3.779  19.335  0.00  0.00    +0.000 OA
BRANCH  23  24
ATOM     24  C   UNL     1       5.427   4.048  17.978  0.00  0.00    +0.000 C 
BRANCH  24  25
ATOM     25  C   UNL     1       6.229   5.312  17.879  0.00  0.00    +0.000 A 
ATOM     26  C   UNL     1       7.263   5.570  18.788  0.00  0.00    +0.000 A 
ATOM     27  C   UNL     1       8.020   6.730  18.663  0.00  0.00    +0.000 A 
ATOM     28  C   UNL     1       7.721   7.591  17.622  0.00  0.00    +0.000 A 
ATOM     29  N   UNL     1       6.747   7.370  16.714  0.00  0.00    +0.000 NA
ATOM     30  C   UNL     1       6.024   6.236  16.862  0.00  0.00    +0.000 A 
ENDBRANCH  24  25
ENDBRANCH  23  24
ENDBRANCH  21  23
ENDBRANCH   3  17
TORSDOF 5
ENDMDL
