MODEL 1
REMARK VINA RESULT:      -8.8      0.000      0.000
REMARK  Name = 
REMARK  2 active torsions:
REMARK  status: ('A' for Active; 'I' for Inactive)
REMARK    1  A    between atoms: C_9  and  S_10
REMARK    2  A    between atoms: S_10  and  N_13
REMARK                            x       y       z     vdW  Elec       q    Type
REMARK                         _______ _______ _______ _____ _____    ______ ____
ROOT
ATOM      1  S   UNL     1       3.835   3.915  17.835  0.00  0.00    +0.000 S 
ATOM      2  O   UNL     1       4.173   2.845  18.751  0.00  0.00    +0.000 OA
ATOM      3  O   UNL     1       2.945   3.671  16.721  0.00  0.00    +0.000 OA
ENDROOT
BRANCH   1  12
ATOM      4  O   UNL     1       2.401   9.091  17.305  0.00  0.00    +0.000 OA
ATOM      5  C   UNL     1       1.941   8.779  18.396  0.00  0.00    +0.000 C 
ATOM      6  N   UNL     1       1.176   9.655  19.132  0.00  0.00    +0.000 N 
ATOM      7  C   UNL     1       0.388   9.211  20.259  0.00  0.00    +0.000 C 
ATOM      8  C   UNL     1       1.190   8.275  21.159  0.00  0.00    +0.000 C 
ATOM      9  C   UNL     1       1.825   7.185  20.333  0.00  0.00    +0.000 A 
ATOM     10  C   UNL     1       2.098   5.935  20.895  0.00  0.00    +0.000 A 
ATOM     11  C   UNL     1       2.711   4.944  20.128  0.00  0.00    +0.000 A 
ATOM     12  C   UNL     1       3.076   5.207  18.800  0.00  0.00    +0.000 A 
ATOM     13  C   UNL     1       2.806   6.447  18.222  0.00  0.00    +0.000 A 
ATOM     14  C   UNL     1       2.192   7.439  18.996  0.00  0.00    +0.000 A 
ATOM     15  H   UNL     1       0.938  10.514  18.652  0.00  0.00    +0.000 HD
ENDBRANCH   1  12
BRANCH   1  16
ATOM     16  N   UNL     1       5.266   4.591  17.258  0.00  0.00    +0.000 N 
ATOM     17  C   UNL     1       6.280   5.060  18.224  0.00  0.00    +0.000 C 
ATOM     18  C   UNL     1       6.909   6.318  17.635  0.00  0.00    +0.000 C 
ATOM     19  O   UNL     1       7.575   6.059  16.394  0.00  0.00    +0.000 OA
ATOM     20  C   UNL     1       6.872   5.247  15.533  0.00  0.00    +0.000 A 
ATOM     21  C   UNL     1       7.381   5.200  14.233  0.00  0.00    +0.000 A 
ATOM     22  C   UNL     1       6.777   4.377  13.296  0.00  0.00    +0.000 A 
ATOM     23  F   UNL     1       7.254   4.335  12.046  0.00  0.00    +0.000 F 
ATOM     24  C   UNL     1       5.684   3.594  13.637  0.00  0.00    +0.000 A 
ATOM     25  C   UNL     1       5.166   3.647  14.936  0.00  0.00    +0.000 A 
ATOM     26  C   UNL     1       5.750   4.471  15.903  0.00  0.00    +0.000 A 
ENDBRANCH   1  16
TORSDOF 2
ENDMDL
MODEL 2
REMARK VINA RESULT:      -8.5      3.197      7.208
REMARK  Name = 
REMARK  2 active torsions:
REMARK  status: ('A' for Active; 'I' for Inactive)
REMARK    1  A    between atoms: C_9  and  S_10
REMARK    2  A    between atoms: S_10  and  N_13
REMARK                            x       y       z     vdW  Elec       q    Type
REMARK                         _______ _______ _______ _____ _____    ______ ____
ROOT
ATOM      1  S   UNL     1       6.052   5.454  18.173  0.00  0.00    +0.000 S 
ATOM      2  O   UNL     1       6.667   4.381  18.927  0.00  0.00    +0.000 OA
ATOM      3  O   UNL     1       6.688   6.750  18.092  0.00  0.00    +0.000 OA
ENDROOT
BRANCH   1  12
ATOM      4  O   UNL     1       8.584   5.930  13.430  0.00  0.00    +0.000 OA
ATOM      5  C   UNL     1       7.722   5.090  13.209  0.00  0.00    +0.000 C 
ATOM      6  N   UNL     1       7.634   4.451  11.994  0.00  0.00    +0.000 N 
ATOM      7  C   UNL     1       6.830   3.263  11.817  0.00  0.00    +0.000 C 
ATOM      8  C   UNL     1       5.458   3.424  12.465  0.00  0.00    +0.000 C 
ATOM      9  C   UNL     1       5.612   3.907  13.885  0.00  0.00    +0.000 A 
ATOM     10  C   UNL     1       4.650   3.594  14.850  0.00  0.00    +0.000 A 
ATOM     11  C   UNL     1       4.790   4.071  16.154  0.00  0.00    +0.000 A 
ATOM     12  C   UNL     1       5.883   4.881  16.493  0.00  0.00    +0.000 A 
ATOM     13  C   UNL     1       6.855   5.197  15.544  0.00  0.00    +0.000 A 
ATOM     14  C   UNL     1       6.709   4.719  14.237  0.00  0.00    +0.000 A 
ATOM     15  H   UNL     1       8.397   4.648  11.357  0.00  0.00    +0.000 HD
ENDBRANCH   1  12
BRANCH   1  16
ATOM     16  N   UNL     1       4.471   5.650  18.723  0.00  0.00    +0.000 N 
ATOM     17  C   UNL     1       3.619   6.687  18.106  0.00  0.00    +0.000 C 
ATOM     18  C   UNL     1       2.756   7.274  19.218  0.00  0.00    +0.000 C 
ATOM     19  O   UNL     1       1.894   6.294  19.808  0.00  0.00    +0.000 OA
ATOM     20  C   UNL     1       2.501   5.084  20.058  0.00  0.00    +0.000 A 
ATOM     21  C   UNL     1       1.758   4.217  20.863  0.00  0.00    +0.000 A 
ATOM     22  C   UNL     1       2.255   2.954  21.140  0.00  0.00    +0.000 A 
ATOM     23  F   UNL     1       1.553   2.122  21.920  0.00  0.00    +0.000 F 
ATOM     24  C   UNL     1       3.472   2.538  20.619  0.00  0.00    +0.000 A 
ATOM     25  C   UNL     1       4.222   3.408  19.820  0.00  0.00    +0.000 A 
ATOM     26  C   UNL     1       3.751   4.691  19.526  0.00  0.00    +0.000 A 
ENDBRANCH   1  16
TORSDOF 2
ENDMDL
MODEL 3
REMARK VINA RESULT:      -8.3      1.586      2.191
REMARK  Name = 
REMARK  2 active torsions:
REMARK  status: ('A' for Active; 'I' for Inactive)
REMARK    1  A    between atoms: C_9  and  S_10
REMARK    2  A    between atoms: S_10  and  N_13
REMARK                            x       y       z     vdW  Elec       q    Type
REMARK                         _______ _______ _______ _____ _____    ______ ____
ROOT
ATOM      1  S   UNL     1       3.537   4.889  18.862  0.00  0.00    +0.000 S 
ATOM      2  O   UNL     1       3.596   4.518  20.261  0.00  0.00    +0.000 OA
ATOM      3  O   UNL     1       2.792   4.081  17.922  0.00  0.00    +0.000 OA
ENDROOT
BRANCH   1  12
ATOM      4  O   UNL     1       0.533   8.171  21.918  0.00  0.00    +0.000 OA
ATOM      5  C   UNL     1       0.847   8.875  20.968  0.00  0.00    +0.000 C 
ATOM      6  N   UNL     1       0.500  10.206  20.913  0.00  0.00    +0.000 N 
ATOM      7  C   UNL     1       1.109  11.110  19.964  0.00  0.00    +0.000 C 
ATOM      8  C   UNL     1       1.168  10.489  18.571  0.00  0.00    +0.000 C 
ATOM      9  C   UNL     1       1.775   9.111  18.646  0.00  0.00    +0.000 A 
ATOM     10  C   UNL     1       2.463   8.577  17.553  0.00  0.00    +0.000 A 
ATOM     11  C   UNL     1       2.996   7.289  17.626  0.00  0.00    +0.000 A 
ATOM     12  C   UNL     1       2.823   6.521  18.786  0.00  0.00    +0.000 A 
ATOM     13  C   UNL     1       2.144   7.041  19.888  0.00  0.00    +0.000 A 
ATOM     14  C   UNL     1       1.609   8.332  19.810  0.00  0.00    +0.000 A 
ATOM     15  H   UNL     1       0.076  10.567  21.759  0.00  0.00    +0.000 HD
ENDBRANCH   1  12
BRANCH   1  16
ATOM     16  N   UNL     1       5.112   5.080  18.297  0.00  0.00    +0.000 N 
ATOM     17  C   UNL     1       6.218   5.186  19.271  0.00  0.00    +0.000 C 
ATOM     18  C   UNL     1       7.219   6.185  18.702  0.00  0.00    +0.000 C 
ATOM     19  O   UNL     1       7.775   5.745  17.457  0.00  0.00    +0.000 OA
ATOM     20  C   UNL     1       6.853   5.213  16.583  0.00  0.00    +0.000 A 
ATOM     21  C   UNL     1       7.328   5.025  15.283  0.00  0.00    +0.000 A 
ATOM     22  C   UNL     1       6.497   4.453  14.333  0.00  0.00    +0.000 A 
ATOM     23  F   UNL     1       6.942   4.279  13.082  0.00  0.00    +0.000 F 
ATOM     24  C   UNL     1       5.209   4.056  14.660  0.00  0.00    +0.000 A 
ATOM     25  C   UNL     1       4.728   4.252  15.960  0.00  0.00    +0.000 A 
ATOM     26  C   UNL     1       5.540   4.832  16.941  0.00  0.00    +0.000 A 
ENDBRANCH   1  16
TORSDOF 2
ENDMDL
MODEL 4
REMARK VINA RESULT:      -8.0      1.918      2.904
REMARK  Name = 
REMARK  2 active torsions:
REMARK  status: ('A' for Active; 'I' for Inactive)
REMARK    1  A    between atoms: C_9  and  S_10
REMARK    2  A    between atoms: S_10  and  N_13
REMARK                            x       y       z     vdW  Elec       q    Type
REMARK                         _______ _______ _______ _____ _____    ______ ____
ROOT
ATOM      1  S   UNL     1       2.998   3.499  17.750  0.00  0.00    +0.000 S 
ATOM      2  O   UNL     1       3.271   2.412  18.668  0.00  0.00    +0.000 OA
ATOM      3  O   UNL     1       1.991   3.353  16.722  0.00  0.00    +0.000 OA
ENDROOT
BRANCH   1  12
ATOM      4  O   UNL     1       2.448   8.846  17.250  0.00  0.00    +0.000 OA
ATOM      5  C   UNL     1       1.976   8.613  18.354  0.00  0.00    +0.000 C 
ATOM      6  N   UNL     1       1.394   9.604  19.111  0.00  0.00    +0.000 N 
ATOM      7  C   UNL     1       0.576   9.298  20.263  0.00  0.00    +0.000 C 
ATOM      8  C   UNL     1       1.234   8.238  21.140  0.00  0.00    +0.000 C 
ATOM      9  C   UNL     1       1.650   7.058  20.299  0.00  0.00    +0.000 A 
ATOM     10  C   UNL     1       1.723   5.778  20.856  0.00  0.00    +0.000 A 
ATOM     11  C   UNL     1       2.136   4.699  20.074  0.00  0.00    +0.000 A 
ATOM     12  C   UNL     1       2.499   4.899  18.735  0.00  0.00    +0.000 A 
ATOM     13  C   UNL     1       2.426   6.169  18.161  0.00  0.00    +0.000 A 
ATOM     14  C   UNL     1       2.014   7.249  18.950  0.00  0.00    +0.000 A 
ATOM     15  H   UNL     1       1.290  10.493  18.635  0.00  0.00    +0.000 HD
ENDBRANCH   1  12
BRANCH   1  16
ATOM     16  N   UNL     1       4.450   3.969  17.036  0.00  0.00    +0.000 N 
ATOM     17  C   UNL     1       4.513   4.122  15.568  0.00  0.00    +0.000 C 
ATOM     18  C   UNL     1       5.891   3.641  15.129  0.00  0.00    +0.000 C 
ATOM     19  O   UNL     1       6.945   4.429  15.695  0.00  0.00    +0.000 OA
ATOM     20  C   UNL     1       6.778   4.720  17.030  0.00  0.00    +0.000 A 
ATOM     21  C   UNL     1       7.908   5.255  17.653  0.00  0.00    +0.000 A 
ATOM     22  C   UNL     1       7.837   5.626  18.986  0.00  0.00    +0.000 A 
ATOM     23  F   UNL     1       8.920   6.130  19.592  0.00  0.00    +0.000 F 
ATOM     24  C   UNL     1       6.658   5.485  19.702  0.00  0.00    +0.000 A 
ATOM     25  C   UNL     1       5.527   4.940  19.083  0.00  0.00    +0.000 A 
ATOM     26  C   UNL     1       5.567   4.550  17.740  0.00  0.00    +0.000 A 
ENDBRANCH   1  16
TORSDOF 2
ENDMDL
MODEL 5
REMARK VINA RESULT:      -7.6      4.530      8.129
REMARK  Name = 
REMARK  2 active torsions:
REMARK  status: ('A' for Active; 'I' for Inactive)
REMARK    1  A    between atoms: C_9  and  S_10
REMARK    2  A    between atoms: S_10  and  N_13
REMARK                            x       y       z     vdW  Elec       q    Type
REMARK                         _______ _______ _______ _____ _____    ______ ____
ROOT
ATOM      1  S   UNL     1       0.681   9.292  21.476  0.00  0.00    +0.000 S 
ATOM      2  O   UNL     1      -0.623   8.733  21.766  0.00  0.00    +0.000 OA
ATOM      3  O   UNL     1       1.617   9.560  22.546  0.00  0.00    +0.000 OA
ENDROOT
BRANCH   1  12
ATOM      4  O   UNL     1       2.272   4.135  21.381  0.00  0.00    +0.000 OA
ATOM      5  C   UNL     1       2.490   4.521  20.240  0.00  0.00    +0.000 C 
ATOM      6  N   UNL     1       2.947   3.664  19.265  0.00  0.00    +0.000 N 
ATOM      7  C   UNL     1       2.922   4.024  17.866  0.00  0.00    +0.000 C 
ATOM      8  C   UNL     1       3.440   5.443  17.652  0.00  0.00    +0.000 C 
ATOM      9  C   UNL     1       2.739   6.395  18.587  0.00  0.00    +0.000 A 
ATOM     10  C   UNL     1       2.572   7.739  18.239  0.00  0.00    +0.000 A 
ATOM     11  C   UNL     1       1.946   8.616  19.125  0.00  0.00    +0.000 A 
ATOM     12  C   UNL     1       1.502   8.157  20.373  0.00  0.00    +0.000 A 
ATOM     13  C   UNL     1       1.655   6.818  20.733  0.00  0.00    +0.000 A 
ATOM     14  C   UNL     1       2.286   5.942  19.842  0.00  0.00    +0.000 A 
ATOM     15  H   UNL     1       2.974   2.689  19.539  0.00  0.00    +0.000 HD
ENDBRANCH   1  12
BRANCH   1  16
ATOM     16  N   UNL     1       0.466  10.696  20.568  0.00  0.00    +0.000 N 
ATOM     17  C   UNL     1       1.485  11.763  20.644  0.00  0.00    +0.000 C 
ATOM     18  C   UNL     1       0.742  13.093  20.573  0.00  0.00    +0.000 C 
ATOM     19  O   UNL     1       0.034  13.252  19.338  0.00  0.00    +0.000 OA
ATOM     20  C   UNL     1      -0.651  12.129  18.930  0.00  0.00    +0.000 A 
ATOM     21  C   UNL     1      -1.547  12.345  17.881  0.00  0.00    +0.000 A 
ATOM     22  C   UNL     1      -2.255  11.273  17.362  0.00  0.00    +0.000 A 
ATOM     23  F   UNL     1      -3.124  11.474  16.363  0.00  0.00    +0.000 F 
ATOM     24  C   UNL     1      -2.075   9.992  17.862  0.00  0.00    +0.000 A 
ATOM     25  C   UNL     1      -1.185   9.774  18.920  0.00  0.00    +0.000 A 
ATOM     26  C   UNL     1      -0.459  10.836  19.470  0.00  0.00    +0.000 A 
ENDBRANCH   1  16
TORSDOF 2
ENDMDL
MODEL 6
REMARK VINA RESULT:      -7.4      2.459      3.609
REMARK  Name = 
REMARK  2 active torsions:
REMARK  status: ('A' for Active; 'I' for Inactive)
REMARK    1  A    between atoms: C_9  and  S_10
REMARK    2  A    between atoms: S_10  and  N_13
REMARK                            x       y       z     vdW  Elec       q    Type
REMARK                         _______ _______ _______ _____ _____    ______ ____
ROOT
ATOM      1  S   UNL     1       1.857   4.784  20.402  0.00  0.00    +0.000 S 
ATOM      2  O   UNL     1       2.782   4.534  21.489  0.00  0.00    +0.000 OA
ATOM      3  O   UNL     1       0.544   4.179  20.406  0.00  0.00    +0.000 OA
ENDROOT
BRANCH   1  12
ATOM      4  O   UNL     1       2.699   8.919  17.037  0.00  0.00    +0.000 OA
ATOM      5  C   UNL     1       2.042   9.418  17.941  0.00  0.00    +0.000 C 
ATOM      6  N   UNL     1       1.625  10.728  17.890  0.00  0.00    +0.000 N 
ATOM      7  C   UNL     1       0.613  11.238  18.786  0.00  0.00    +0.000 C 
ATOM      8  C   UNL     1       0.870  10.788  20.221  0.00  0.00    +0.000 C 
ATOM      9  C   UNL     1       1.093   9.298  20.263  0.00  0.00    +0.000 A 
ATOM     10  C   UNL     1       0.777   8.564  21.410  0.00  0.00    +0.000 A 
ATOM     11  C   UNL     1       1.014   7.189  21.446  0.00  0.00    +0.000 A 
ATOM     12  C   UNL     1       1.589   6.546  20.340  0.00  0.00    +0.000 A 
ATOM     13  C   UNL     1       1.905   7.262  19.186  0.00  0.00    +0.000 A 
ATOM     14  C   UNL     1       1.667   8.641  19.156  0.00  0.00    +0.000 A 
ATOM     15  H   UNL     1       1.805  11.194  17.008  0.00  0.00    +0.000 HD
ENDBRANCH   1  12
BRANCH   1  16
ATOM     16  N   UNL     1       2.630   4.414  18.952  0.00  0.00    +0.000 N 
ATOM     17  C   UNL     1       1.814   4.170  17.745  0.00  0.00    +0.000 C 
ATOM     18  C   UNL     1       2.507   3.065  16.955  0.00  0.00    +0.000 C 
ATOM     19  O   UNL     1       3.819   3.447  16.526  0.00  0.00    +0.000 OA
ATOM     20  C   UNL     1       4.564   4.090  17.488  0.00  0.00    +0.000 A 
ATOM     21  C   UNL     1       5.917   4.232  17.176  0.00  0.00    +0.000 A 
ATOM     22  C   UNL     1       6.750   4.905  18.055  0.00  0.00    +0.000 A 
ATOM     23  F   UNL     1       8.051   5.036  17.767  0.00  0.00    +0.000 F 
ATOM     24  C   UNL     1       6.254   5.449  19.231  0.00  0.00    +0.000 A 
ATOM     25  C   UNL     1       4.899   5.300  19.551  0.00  0.00    +0.000 A 
ATOM     26  C   UNL     1       4.033   4.621  18.687  0.00  0.00    +0.000 A 
ENDBRANCH   1  16
TORSDOF 2
ENDMDL
MODEL 7
REMARK VINA RESULT:      -7.3      5.255      8.343
REMARK  Name = 
REMARK  2 active torsions:
REMARK  status: ('A' for Active; 'I' for Inactive)
REMARK    1  A    between atoms: C_9  and  S_10
REMARK    2  A    between atoms: S_10  and  N_13
REMARK                            x       y       z     vdW  Elec       q    Type
REMARK                         _______ _______ _______ _____ _____    ______ ____
ROOT
ATOM      1  S   UNL     1       0.026  12.101  19.746  0.00  0.00    +0.000 S 
ATOM      2  O   UNL     1       0.913  12.390  18.637  0.00  0.00    +0.000 OA
ATOM      3  O   UNL     1      -0.102  13.035  20.842  0.00  0.00    +0.000 OA
ENDROOT
BRANCH   1  12
ATOM      4  O   UNL     1      -5.114  12.767  21.250  0.00  0.00    +0.000 OA
ATOM      5  C   UNL     1      -5.199  12.505  20.058  0.00  0.00    +0.000 C 
ATOM      6  N   UNL     1      -6.408  12.518  19.402  0.00  0.00    +0.000 N 
ATOM      7  C   UNL     1      -6.489  12.509  17.959  0.00  0.00    +0.000 C 
ATOM      8  C   UNL     1      -5.539  11.476  17.361  0.00  0.00    +0.000 C 
ATOM      9  C   UNL     1      -4.158  11.648  17.939  0.00  0.00    +0.000 A 
ATOM     10  C   UNL     1      -3.028  11.280  17.203  0.00  0.00    +0.000 A 
ATOM     11  C   UNL     1      -1.756  11.419  17.761  0.00  0.00    +0.000 A 
ATOM     12  C   UNL     1      -1.611  11.908  19.067  0.00  0.00    +0.000 A 
ATOM     13  C   UNL     1      -2.727  12.287  19.812  0.00  0.00    +0.000 A 
ATOM     14  C   UNL     1      -4.001  12.143  19.250  0.00  0.00    +0.000 A 
ATOM     15  H   UNL     1      -7.183  12.869  19.952  0.00  0.00    +0.000 HD
ENDBRANCH   1  12
BRANCH   1  16
ATOM     16  N   UNL     1       0.422  10.582  20.358  0.00  0.00    +0.000 N 
ATOM     17  C   UNL     1      -0.231  10.116  21.599  0.00  0.00    +0.000 C 
ATOM     18  C   UNL     1       0.813   9.327  22.382  0.00  0.00    +0.000 C 
ATOM     19  O   UNL     1       1.268   8.172  21.666  0.00  0.00    +0.000 OA
ATOM     20  C   UNL     1       1.522   8.397  20.332  0.00  0.00    +0.000 A 
ATOM     21  C   UNL     1       2.207   7.364  19.690  0.00  0.00    +0.000 A 
ATOM     22  C   UNL     1       2.476   7.466  18.335  0.00  0.00    +0.000 A 
ATOM     23  F   UNL     1       3.141   6.484  17.715  0.00  0.00    +0.000 F 
ATOM     24  C   UNL     1       2.062   8.574  17.609  0.00  0.00    +0.000 A 
ATOM     25  C   UNL     1       1.384   9.616  18.253  0.00  0.00    +0.000 A 
ATOM     26  C   UNL     1       1.103   9.545  19.621  0.00  0.00    +0.000 A 
ENDBRANCH   1  16
TORSDOF 2
ENDMDL
MODEL 8
REMARK VINA RESULT:      -7.3      5.495      8.345
REMARK  Name = 
REMARK  2 active torsions:
REMARK  status: ('A' for Active; 'I' for Inactive)
REMARK    1  A    between atoms: C_9  and  S_10
REMARK    2  A    between atoms: S_10  and  N_13
REMARK                            x       y       z     vdW  Elec       q    Type
REMARK                         _______ _______ _______ _____ _____    ______ ____
ROOT
ATOM      1  S   UNL     1       0.036  12.369  20.374  0.00  0.00    +0.000 S 
ATOM      2  O   UNL     1       0.767  12.693  19.166  0.00  0.00    +0.000 OA
ATOM      3  O   UNL     1       0.154  13.207  21.547  0.00  0.00    +0.000 OA
ENDROOT
BRANCH   1  12
ATOM      4  O   UNL     1      -3.122  11.069  16.195  0.00  0.00    +0.000 OA
ATOM      5  C   UNL     1      -3.921  11.315  17.089  0.00  0.00    +0.000 C 
ATOM      6  N   UNL     1      -5.275  11.149  16.911  0.00  0.00    +0.000 N 
ATOM      7  C   UNL     1      -6.192  11.144  18.027  0.00  0.00    +0.000 C 
ATOM      8  C   UNL     1      -5.891  12.286  18.993  0.00  0.00    +0.000 C 
ATOM      9  C   UNL     1      -4.426  12.289  19.348  0.00  0.00    +0.000 A 
ATOM     10  C   UNL     1      -3.994  12.794  20.578  0.00  0.00    +0.000 A 
ATOM     11  C   UNL     1      -2.632  12.816  20.883  0.00  0.00    +0.000 A 
ATOM     12  C   UNL     1      -1.695  12.353  19.949  0.00  0.00    +0.000 A 
ATOM     13  C   UNL     1      -2.110  11.840  18.720  0.00  0.00    +0.000 A 
ATOM     14  C   UNL     1      -3.476  11.822  18.417  0.00  0.00    +0.000 A 
ATOM     15  H   UNL     1      -5.534  10.705  16.037  0.00  0.00    +0.000 HD
ENDBRANCH   1  12
BRANCH   1  16
ATOM     16  N   UNL     1       0.391  10.777  20.797  0.00  0.00    +0.000 N 
ATOM     17  C   UNL     1      -0.247  10.192  21.994  0.00  0.00    +0.000 C 
ATOM     18  C   UNL     1       0.786   9.283  22.651  0.00  0.00    +0.000 C 
ATOM     19  O   UNL     1       1.181   8.205  21.795  0.00  0.00    +0.000 OA
ATOM     20  C   UNL     1       1.411   8.575  20.489  0.00  0.00    +0.000 A 
ATOM     21  C   UNL     1       2.043   7.600  19.713  0.00  0.00    +0.000 A 
ATOM     22  C   UNL     1       2.282   7.850  18.371  0.00  0.00    +0.000 A 
ATOM     23  F   UNL     1       2.896   6.924  17.624  0.00  0.00    +0.000 F 
ATOM     24  C   UNL     1       1.891   9.048  17.790  0.00  0.00    +0.000 A 
ATOM     25  C   UNL     1       1.267  10.030  18.568  0.00  0.00    +0.000 A 
ATOM     26  C   UNL     1       1.016   9.810  19.927  0.00  0.00    +0.000 A 
ENDBRANCH   1  16
TORSDOF 2
ENDMDL
MODEL 9
REMARK VINA RESULT:      -7.3      5.561      9.650
REMARK  Name = 
REMARK  2 active torsions:
REMARK  status: ('A' for Active; 'I' for Inactive)
REMARK    1  A    between atoms: C_9  and  S_10
REMARK    2  A    between atoms: S_10  and  N_13
REMARK                            x       y       z     vdW  Elec       q    Type
REMARK                         _______ _______ _______ _____ _____    ______ ____
ROOT
ATOM      1  S   UNL     1       0.047  12.749  20.680  0.00  0.00    +0.000 S 
ATOM      2  O   UNL     1       0.420  13.250  21.987  0.00  0.00    +0.000 OA
ATOM      3  O   UNL     1       0.622  13.325  19.485  0.00  0.00    +0.000 OA
ENDROOT
BRANCH   1  12
ATOM      4  O   UNL     1       2.071   9.113  17.243  0.00  0.00    +0.000 OA
ATOM      5  C   UNL     1       2.012   8.502  18.301  0.00  0.00    +0.000 C 
ATOM      6  N   UNL     1       2.491   7.217  18.418  0.00  0.00    +0.000 N 
ATOM      7  C   UNL     1       2.704   6.601  19.708  0.00  0.00    +0.000 C 
ATOM      8  C   UNL     1       1.517   6.843  20.636  0.00  0.00    +0.000 C 
ATOM      9  C   UNL     1       1.171   8.310  20.659  0.00  0.00    +0.000 A 
ATOM     10  C   UNL     1       0.572   8.881  21.786  0.00  0.00    +0.000 A 
ATOM     11  C   UNL     1       0.231  10.234  21.785  0.00  0.00    +0.000 A 
ATOM     12  C   UNL     1       0.468  11.017  20.646  0.00  0.00    +0.000 A 
ATOM     13  C   UNL     1       1.070  10.465  19.516  0.00  0.00    +0.000 A 
ATOM     14  C   UNL     1       1.408   9.107  19.521  0.00  0.00    +0.000 A 
ATOM     15  H   UNL     1       2.988   6.877  17.603  0.00  0.00    +0.000 HD
ENDBRANCH   1  12
BRANCH   1  16
ATOM     16  N   UNL     1      -1.633  12.788  20.557  0.00  0.00    +0.000 N 
ATOM     17  C   UNL     1      -2.402  13.651  21.478  0.00  0.00    +0.000 C 
ATOM     18  C   UNL     1      -3.688  12.906  21.817  0.00  0.00    +0.000 C 
ATOM     19  O   UNL     1      -4.499  12.670  20.660  0.00  0.00    +0.000 OA
ATOM     20  C   UNL     1      -3.797  12.240  19.556  0.00  0.00    +0.000 A 
ATOM     21  C   UNL     1      -4.593  11.761  18.514  0.00  0.00    +0.000 A 
ATOM     22  C   UNL     1      -3.993  11.345  17.337  0.00  0.00    +0.000 A 
ATOM     23  F   UNL     1      -4.749  10.874  16.337  0.00  0.00    +0.000 F 
ATOM     24  C   UNL     1      -2.616  11.410  17.179  0.00  0.00    +0.000 A 
ATOM     25  C   UNL     1      -1.815  11.881  18.226  0.00  0.00    +0.000 A 
ATOM     26  C   UNL     1      -2.391  12.304  19.428  0.00  0.00    +0.000 A 
ENDBRANCH   1  16
TORSDOF 2
ENDMDL
