MODEL 1
REMARK VINA RESULT:      -9.1      0.000      0.000
REMARK  Name = 
REMARK  5 active torsions:
REMARK  status: ('A' for Active; 'I' for Inactive)
REMARK    1  A    between atoms: C_1  and  C_2
REMARK    2  A    between atoms: C_3  and  N_4
REMARK    3  A    between atoms: C_5  and  C_7
REMARK    4  A    between atoms: C_10  and  C_11
REMARK    5  A    between atoms: C_22  and  N_23
REMARK                            x       y       z     vdW  Elec       q    Type
REMARK                         _______ _______ _______ _____ _____    ______ ____
ROOT
ATOM      1  N   UNL     1       1.546   7.802  19.571  0.00  0.00    +0.000 N 
ATOM      2  C   UNL     1       1.288   8.684  20.601  0.00  0.00    +0.000 C 
ATOM      3  O   UNL     1       1.620   8.523  21.770  0.00  0.00    +0.000 OA
ATOM      4  H   UNL     1       0.973   7.962  18.749  0.00  0.00    +0.000 HD
ENDROOT
BRANCH   1   7
ATOM      5  C   UNL     1       3.880   7.177  17.624  0.00  0.00    +0.000 C 
ATOM      6  C   UNL     1       3.443   6.311  18.780  0.00  0.00    +0.000 A 
ATOM      7  C   UNL     1       2.318   6.610  19.587  0.00  0.00    +0.000 A 
ATOM      8  C   UNL     1       1.847   5.626  20.479  0.00  0.00    +0.000 A 
ATOM      9  C   UNL     1       2.482   4.392  20.613  0.00  0.00    +0.000 A 
ATOM     10  C   UNL     1       3.616   4.118  19.861  0.00  0.00    +0.000 A 
ATOM     11  C   UNL     1       4.119   5.076  18.973  0.00  0.00    +0.000 A 
BRANCH  11  12
ATOM     12  N   UNL     1       5.315   4.772  18.282  0.00  0.00    +0.000 N 
ATOM     13  C   UNL     1       6.562   5.073  18.758  0.00  0.00    +0.000 C 
ATOM     14  O   UNL     1       6.865   5.517  19.858  0.00  0.00    +0.000 OA
ATOM     15  C   UNL     1       7.574   4.739  17.702  0.00  0.00    +0.000 C 
ATOM     16  C   UNL     1       6.758   4.249  16.524  0.00  0.00    +0.000 C 
ATOM     17  C   UNL     1       5.329   4.333  16.981  0.00  0.00    +0.000 C 
ATOM     18  O   UNL     1       4.382   4.097  16.247  0.00  0.00    +0.000 OA
ENDBRANCH  11  12
ENDBRANCH   1   7
BRANCH   2  19
ATOM     19  C   UNL     1       0.530   9.864  20.204  0.00  0.00    +0.000 A 
ATOM     20  C   UNL     1       0.842  11.195  20.392  0.00  0.00    +0.000 A 
ATOM     21  C   UNL     1      -0.194  11.945  19.802  0.00  0.00    +0.000 A 
ATOM     22  C   UNL     1      -1.104  11.044  19.284  0.00  0.00    +0.000 A 
ATOM     23  O   UNL     1      -0.667   9.763  19.536  0.00  0.00    +0.000 OA
BRANCH  22  24
ATOM     24  C   UNL     1      -2.369  11.200  18.558  0.00  0.00    +0.000 A 
ATOM     25  C   UNL     1      -3.449  11.910  19.105  0.00  0.00    +0.000 A 
ATOM     26  C   UNL     1      -4.648  12.056  18.393  0.00  0.00    +0.000 A 
ATOM     27  C   UNL     1      -4.790  11.493  17.125  0.00  0.00    +0.000 A 
ATOM     28  C   UNL     1      -3.733  10.780  16.570  0.00  0.00    +0.000 A 
ATOM     29  C   UNL     1      -2.543  10.638  17.282  0.00  0.00    +0.000 A 
ATOM     30  F   UNL     1      -1.560   9.938  16.696  0.00  0.00    +0.000 F 
ENDBRANCH  22  24
ENDBRANCH   2  19
TORSDOF 4
ENDMDL
MODEL 2
REMARK VINA RESULT:      -9.1      0.179      1.419
REMARK  Name = 
REMARK  5 active torsions:
REMARK  status: ('A' for Active; 'I' for Inactive)
REMARK    1  A    between atoms: C_1  and  C_2
REMARK    2  A    between atoms: C_3  and  N_4
REMARK    3  A    between atoms: C_5  and  C_7
REMARK    4  A    between atoms: C_10  and  C_11
REMARK    5  A    between atoms: C_22  and  N_23
REMARK                            x       y       z     vdW  Elec       q    Type
REMARK                         _______ _______ _______ _____ _____    ______ ____
ROOT
ATOM      1  N   UNL     1       1.474   7.885  19.633  0.00  0.00    +0.000 N 
ATOM      2  C   UNL     1       1.243   8.756  20.679  0.00  0.00    +0.000 C 
ATOM      3  O   UNL     1       1.649   8.606  21.827  0.00  0.00    +0.000 OA
ATOM      4  H   UNL     1       0.848   8.025  18.847  0.00  0.00    +0.000 HD
ENDROOT
BRANCH   1   7
ATOM      5  C   UNL     1       3.777   7.397  17.612  0.00  0.00    +0.000 C 
ATOM      6  C   UNL     1       3.403   6.487  18.757  0.00  0.00    +0.000 A 
ATOM      7  C   UNL     1       2.290   6.723  19.600  0.00  0.00    +0.000 A 
ATOM      8  C   UNL     1       1.879   5.701  20.477  0.00  0.00    +0.000 A 
ATOM      9  C   UNL     1       2.563   4.489  20.565  0.00  0.00    +0.000 A 
ATOM     10  C   UNL     1       3.686   4.276  19.777  0.00  0.00    +0.000 A 
ATOM     11  C   UNL     1       4.129   5.273  18.901  0.00  0.00    +0.000 A 
BRANCH  11  12
ATOM     12  N   UNL     1       5.317   5.032  18.172  0.00  0.00    +0.000 N 
ATOM     13  C   UNL     1       5.338   4.462  16.927  0.00  0.00    +0.000 C 
ATOM     14  O   UNL     1       4.389   4.191  16.203  0.00  0.00    +0.000 OA
ATOM     15  C   UNL     1       6.765   4.229  16.529  0.00  0.00    +0.000 C 
ATOM     16  C   UNL     1       7.580   4.688  17.721  0.00  0.00    +0.000 C 
ATOM     17  C   UNL     1       6.567   5.156  18.726  0.00  0.00    +0.000 C 
ATOM     18  O   UNL     1       6.867   5.516  19.854  0.00  0.00    +0.000 OA
ENDBRANCH  11  12
ENDBRANCH   1   7
BRANCH   2  19
ATOM     19  C   UNL     1       0.420   9.906  20.332  0.00  0.00    +0.000 A 
ATOM     20  C   UNL     1       0.587  11.229  20.690  0.00  0.00    +0.000 A 
ATOM     21  C   UNL     1      -0.454  11.953  20.078  0.00  0.00    +0.000 A 
ATOM     22  C   UNL     1      -1.223  11.046  19.376  0.00  0.00    +0.000 A 
ATOM     23  O   UNL     1      -0.694   9.785  19.536  0.00  0.00    +0.000 OA
BRANCH  22  24
ATOM     24  C   UNL     1      -2.423  11.179  18.544  0.00  0.00    +0.000 A 
ATOM     25  C   UNL     1      -3.562  11.861  18.997  0.00  0.00    +0.000 A 
ATOM     26  C   UNL     1      -4.698  11.986  18.183  0.00  0.00    +0.000 A 
ATOM     27  C   UNL     1      -4.716  11.427  16.906  0.00  0.00    +0.000 A 
ATOM     28  C   UNL     1      -3.599  10.741  16.442  0.00  0.00    +0.000 A 
ATOM     29  C   UNL     1      -2.473  10.621  17.255  0.00  0.00    +0.000 A 
ATOM     30  F   UNL     1      -1.426   9.946  16.754  0.00  0.00    +0.000 F 
ENDBRANCH  22  24
ENDBRANCH   2  19
TORSDOF 4
ENDMDL
MODEL 3
REMARK VINA RESULT:      -9.1      0.876      1.255
REMARK  Name = 
REMARK  5 active torsions:
REMARK  status: ('A' for Active; 'I' for Inactive)
REMARK    1  A    between atoms: C_1  and  C_2
REMARK    2  A    between atoms: C_3  and  N_4
REMARK    3  A    between atoms: C_5  and  C_7
REMARK    4  A    between atoms: C_10  and  C_11
REMARK    5  A    between atoms: C_22  and  N_23
REMARK                            x       y       z     vdW  Elec       q    Type
REMARK                         _______ _______ _______ _____ _____    ______ ____
ROOT
ATOM      1  N   UNL     1       1.466   7.601  19.686  0.00  0.00    +0.000 N 
ATOM      2  C   UNL     1       1.305   8.542  20.683  0.00  0.00    +0.000 C 
ATOM      3  O   UNL     1       1.790   8.472  21.807  0.00  0.00    +0.000 OA
ATOM      4  H   UNL     1       0.787   7.685  18.937  0.00  0.00    +0.000 HD
ENDROOT
BRANCH   1   7
ATOM      5  C   UNL     1       3.800   7.094  17.704  0.00  0.00    +0.000 C 
ATOM      6  C   UNL     1       3.409   6.196  18.852  0.00  0.00    +0.000 A 
ATOM      7  C   UNL     1       2.283   6.439  19.676  0.00  0.00    +0.000 A 
ATOM      8  C   UNL     1       1.860   5.426  20.558  0.00  0.00    +0.000 A 
ATOM      9  C   UNL     1       2.544   4.215  20.668  0.00  0.00    +0.000 A 
ATOM     10  C   UNL     1       3.679   3.995  19.900  0.00  0.00    +0.000 A 
ATOM     11  C   UNL     1       4.134   4.984  19.020  0.00  0.00    +0.000 A 
BRANCH  11  12
ATOM     12  N   UNL     1       5.333   4.736  18.311  0.00  0.00    +0.000 N 
ATOM     13  C   UNL     1       6.574   5.074  18.781  0.00  0.00    +0.000 C 
ATOM     14  O   UNL     1       6.873   5.508  19.886  0.00  0.00    +0.000 OA
ATOM     15  C   UNL     1       7.586   4.796  17.709  0.00  0.00    +0.000 C 
ATOM     16  C   UNL     1       6.775   4.299  16.530  0.00  0.00    +0.000 C 
ATOM     17  C   UNL     1       5.350   4.323  17.002  0.00  0.00    +0.000 C 
ATOM     18  O   UNL     1       4.404   4.066  16.273  0.00  0.00    +0.000 OA
ENDBRANCH  11  12
ENDBRANCH   1   7
BRANCH   2  19
ATOM     19  C   UNL     1       0.454   9.666  20.315  0.00  0.00    +0.000 A 
ATOM     20  C   UNL     1       0.464  10.955  20.806  0.00  0.00    +0.000 A 
ATOM     21  C   UNL     1      -0.530  11.667  20.108  0.00  0.00    +0.000 A 
ATOM     22  C   UNL     1      -1.117  10.784  19.222  0.00  0.00    +0.000 A 
ATOM     23  O   UNL     1      -0.521   9.550  19.352  0.00  0.00    +0.000 OA
BRANCH  22  24
ATOM     24  C   UNL     1      -2.190  10.920  18.232  0.00  0.00    +0.000 A 
ATOM     25  C   UNL     1      -2.081  10.365  16.948  0.00  0.00    +0.000 A 
ATOM     26  C   UNL     1      -3.120  10.497  16.016  0.00  0.00    +0.000 A 
ATOM     27  C   UNL     1      -4.284  11.189  16.349  0.00  0.00    +0.000 A 
ATOM     28  C   UNL     1      -4.407  11.753  17.614  0.00  0.00    +0.000 A 
ATOM     29  C   UNL     1      -3.371  11.618  18.537  0.00  0.00    +0.000 A 
ATOM     30  F   UNL     1      -3.546  12.185  19.741  0.00  0.00    +0.000 F 
ENDBRANCH  22  24
ENDBRANCH   2  19
TORSDOF 4
ENDMDL
MODEL 4
REMARK VINA RESULT:      -9.0      0.894      1.900
REMARK  Name = 
REMARK  5 active torsions:
REMARK  status: ('A' for Active; 'I' for Inactive)
REMARK    1  A    between atoms: C_1  and  C_2
REMARK    2  A    between atoms: C_3  and  N_4
REMARK    3  A    between atoms: C_5  and  C_7
REMARK    4  A    between atoms: C_10  and  C_11
REMARK    5  A    between atoms: C_22  and  N_23
REMARK                            x       y       z     vdW  Elec       q    Type
REMARK                         _______ _______ _______ _____ _____    ______ ____
ROOT
ATOM      1  N   UNL     1       1.409   7.647  19.676  0.00  0.00    +0.000 N 
ATOM      2  C   UNL     1       1.269   8.605  20.660  0.00  0.00    +0.000 C 
ATOM      3  O   UNL     1       1.826   8.584  21.752  0.00  0.00    +0.000 OA
ATOM      4  H   UNL     1       0.681   7.684  18.970  0.00  0.00    +0.000 HD
ENDROOT
BRANCH   1   7
ATOM      5  C   UNL     1       3.729   7.263  17.651  0.00  0.00    +0.000 C 
ATOM      6  C   UNL     1       3.396   6.336  18.795  0.00  0.00    +0.000 A 
ATOM      7  C   UNL     1       2.275   6.522  19.640  0.00  0.00    +0.000 A 
ATOM      8  C   UNL     1       1.910   5.482  20.516  0.00  0.00    +0.000 A 
ATOM      9  C   UNL     1       2.646   4.301  20.601  0.00  0.00    +0.000 A 
ATOM     10  C   UNL     1       3.776   4.138  19.813  0.00  0.00    +0.000 A 
ATOM     11  C   UNL     1       4.175   5.155  18.937  0.00  0.00    +0.000 A 
BRANCH  11  12
ATOM     12  N   UNL     1       5.371   4.966  18.207  0.00  0.00    +0.000 N 
ATOM     13  C   UNL     1       5.415   4.405  16.958  0.00  0.00    +0.000 C 
ATOM     14  O   UNL     1       4.477   4.099  16.233  0.00  0.00    +0.000 OA
ATOM     15  C   UNL     1       6.850   4.232  16.559  0.00  0.00    +0.000 C 
ATOM     16  C   UNL     1       7.647   4.718  17.753  0.00  0.00    +0.000 C 
ATOM     17  C   UNL     1       6.615   5.138  18.761  0.00  0.00    +0.000 C 
ATOM     18  O   UNL     1       6.901   5.504  19.891  0.00  0.00    +0.000 OA
ENDBRANCH  11  12
ENDBRANCH   1   7
BRANCH   2  19
ATOM     19  C   UNL     1       0.347   9.682  20.322  0.00  0.00    +0.000 A 
ATOM     20  C   UNL     1       0.208  10.919  20.918  0.00  0.00    +0.000 A 
ATOM     21  C   UNL     1      -0.796  11.605  20.207  0.00  0.00    +0.000 A 
ATOM     22  C   UNL     1      -1.239  10.758  19.210  0.00  0.00    +0.000 A 
ATOM     23  O   UNL     1      -0.545   9.571  19.282  0.00  0.00    +0.000 OA
BRANCH  22  24
ATOM     24  C   UNL     1      -2.249  10.891  18.156  0.00  0.00    +0.000 A 
ATOM     25  C   UNL     1      -2.055  10.348  16.877  0.00  0.00    +0.000 A 
ATOM     26  C   UNL     1      -3.036  10.477  15.883  0.00  0.00    +0.000 A 
ATOM     27  C   UNL     1      -4.225  11.154  16.149  0.00  0.00    +0.000 A 
ATOM     28  C   UNL     1      -4.433  11.705  17.408  0.00  0.00    +0.000 A 
ATOM     29  C   UNL     1      -3.455  11.573  18.392  0.00  0.00    +0.000 A 
ATOM     30  F   UNL     1      -3.711  12.128  19.587  0.00  0.00    +0.000 F 
ENDBRANCH  22  24
ENDBRANCH   2  19
TORSDOF 4
ENDMDL
MODEL 5
REMARK VINA RESULT:      -8.8      2.778      8.873
REMARK  Name = 
REMARK  5 active torsions:
REMARK  status: ('A' for Active; 'I' for Inactive)
REMARK    1  A    between atoms: C_1  and  C_2
REMARK    2  A    between atoms: C_3  and  N_4
REMARK    3  A    between atoms: C_5  and  C_7
REMARK    4  A    between atoms: C_10  and  C_11
REMARK    5  A    between atoms: C_22  and  N_23
REMARK                            x       y       z     vdW  Elec       q    Type
REMARK                         _______ _______ _______ _____ _____    ______ ____
ROOT
ATOM      1  N   UNL     1       2.372   7.052  20.025  0.00  0.00    +0.000 N 
ATOM      2  C   UNL     1       2.106   5.704  20.161  0.00  0.00    +0.000 C 
ATOM      3  O   UNL     1       1.154   5.228  20.770  0.00  0.00    +0.000 OA
ATOM      4  H   UNL     1       3.324   7.248  19.734  0.00  0.00    +0.000 HD
ENDROOT
BRANCH   1   7
ATOM      5  C   UNL     1       1.551   9.412  18.185  0.00  0.00    +0.000 C 
ATOM      6  C   UNL     1       1.117   9.220  19.618  0.00  0.00    +0.000 A 
ATOM      7  C   UNL     1       1.589   8.163  20.434  0.00  0.00    +0.000 A 
ATOM      8  C   UNL     1       1.322   8.206  21.816  0.00  0.00    +0.000 A 
ATOM      9  C   UNL     1       0.575   9.235  22.388  0.00  0.00    +0.000 A 
ATOM     10  C   UNL     1       0.066  10.244  21.583  0.00  0.00    +0.000 A 
ATOM     11  C   UNL     1       0.303  10.228  20.203  0.00  0.00    +0.000 A 
BRANCH  11  12
ATOM     12  N   UNL     1      -0.294  11.243  19.419  0.00  0.00    +0.000 N 
ATOM     13  C   UNL     1      -1.369  11.031  18.597  0.00  0.00    +0.000 C 
ATOM     14  O   UNL     1      -2.052  10.021  18.491  0.00  0.00    +0.000 OA
ATOM     15  C   UNL     1      -1.634  12.286  17.820  0.00  0.00    +0.000 C 
ATOM     16  C   UNL     1      -0.547  13.248  18.252  0.00  0.00    +0.000 C 
ATOM     17  C   UNL     1       0.272  12.482  19.252  0.00  0.00    +0.000 C 
ATOM     18  O   UNL     1       1.297  12.924  19.748  0.00  0.00    +0.000 OA
ENDBRANCH  11  12
ENDBRANCH   1   7
BRANCH   2  19
ATOM     19  C   UNL     1       3.092   4.831  19.535  0.00  0.00    +0.000 A 
ATOM     20  C   UNL     1       3.497   3.569  19.919  0.00  0.00    +0.000 A 
ATOM     21  C   UNL     1       4.446   3.138  18.972  0.00  0.00    +0.000 A 
ATOM     22  C   UNL     1       4.592   4.156  18.050  0.00  0.00    +0.000 A 
ATOM     23  O   UNL     1       3.767   5.203  18.397  0.00  0.00    +0.000 OA
BRANCH  22  24
ATOM     24  C   UNL     1       5.413   4.309  16.845  0.00  0.00    +0.000 A 
ATOM     25  C   UNL     1       4.873   4.145  15.561  0.00  0.00    +0.000 A 
ATOM     26  C   UNL     1       5.672   4.303  14.418  0.00  0.00    +0.000 A 
ATOM     27  C   UNL     1       7.023   4.624  14.541  0.00  0.00    +0.000 A 
ATOM     28  C   UNL     1       7.578   4.784  15.806  0.00  0.00    +0.000 A 
ATOM     29  C   UNL     1       6.779   4.626  16.938  0.00  0.00    +0.000 A 
ATOM     30  F   UNL     1       7.370   4.791  18.131  0.00  0.00    +0.000 F 
ENDBRANCH  22  24
ENDBRANCH   2  19
TORSDOF 4
ENDMDL
MODEL 6
REMARK VINA RESULT:      -8.8      3.337      4.461
REMARK  Name = 
REMARK  5 active torsions:
REMARK  status: ('A' for Active; 'I' for Inactive)
REMARK    1  A    between atoms: C_1  and  C_2
REMARK    2  A    between atoms: C_3  and  N_4
REMARK    3  A    between atoms: C_5  and  C_7
REMARK    4  A    between atoms: C_10  and  C_11
REMARK    5  A    between atoms: C_22  and  N_23
REMARK                            x       y       z     vdW  Elec       q    Type
REMARK                         _______ _______ _______ _____ _____    ______ ____
ROOT
ATOM      1  N   UNL     1       1.534   8.225  20.359  0.00  0.00    +0.000 N 
ATOM      2  C   UNL     1       0.746   9.329  20.104  0.00  0.00    +0.000 C 
ATOM      3  O   UNL     1       0.599   9.855  19.005  0.00  0.00    +0.000 OA
ATOM      4  H   UNL     1       1.749   8.101  21.343  0.00  0.00    +0.000 HD
ENDROOT
BRANCH   1   7
ATOM      5  C   UNL     1       1.999   5.178  20.720  0.00  0.00    +0.000 C 
ATOM      6  C   UNL     1       2.408   5.995  19.518  0.00  0.00    +0.000 A 
ATOM      7  C   UNL     1       2.240   7.399  19.444  0.00  0.00    +0.000 A 
ATOM      8  C   UNL     1       2.868   8.100  18.397  0.00  0.00    +0.000 A 
ATOM      9  C   UNL     1       3.610   7.444  17.415  0.00  0.00    +0.000 A 
ATOM     10  C   UNL     1       3.733   6.062  17.456  0.00  0.00    +0.000 A 
ATOM     11  C   UNL     1       3.113   5.332  18.477  0.00  0.00    +0.000 A 
BRANCH  11  12
ATOM     12  N   UNL     1       3.212   3.921  18.434  0.00  0.00    +0.000 N 
ATOM     13  C   UNL     1       2.184   3.101  18.051  0.00  0.00    +0.000 C 
ATOM     14  O   UNL     1       1.099   3.417  17.582  0.00  0.00    +0.000 OA
ATOM     15  C   UNL     1       2.600   1.677  18.267  0.00  0.00    +0.000 C 
ATOM     16  C   UNL     1       3.986   1.764  18.873  0.00  0.00    +0.000 C 
ATOM     17  C   UNL     1       4.276   3.235  18.964  0.00  0.00    +0.000 C 
ATOM     18  O   UNL     1       5.283   3.682  19.493  0.00  0.00    +0.000 OA
ENDBRANCH  11  12
ENDBRANCH   1   7
BRANCH   2  19
ATOM     19  C   UNL     1       0.091   9.883  21.281  0.00  0.00    +0.000 A 
ATOM     20  C   UNL     1      -0.226   9.258  22.470  0.00  0.00    +0.000 A 
ATOM     21  C   UNL     1      -0.821  10.229  23.298  0.00  0.00    +0.000 A 
ATOM     22  C   UNL     1      -0.854  11.409  22.582  0.00  0.00    +0.000 A 
ATOM     23  O   UNL     1      -0.303  11.200  21.338  0.00  0.00    +0.000 OA
BRANCH  22  24
ATOM     24  C   UNL     1      -1.339  12.758  22.891  0.00  0.00    +0.000 A 
ATOM     25  C   UNL     1      -0.562  13.897  22.633  0.00  0.00    +0.000 A 
ATOM     26  C   UNL     1      -1.045  15.180  22.928  0.00  0.00    +0.000 A 
ATOM     27  C   UNL     1      -2.311  15.346  23.489  0.00  0.00    +0.000 A 
ATOM     28  C   UNL     1      -3.093  14.229  23.758  0.00  0.00    +0.000 A 
ATOM     29  C   UNL     1      -2.608  12.956  23.463  0.00  0.00    +0.000 A 
ATOM     30  F   UNL     1      -3.407  11.915  23.748  0.00  0.00    +0.000 F 
ENDBRANCH  22  24
ENDBRANCH   2  19
TORSDOF 4
ENDMDL
MODEL 7
REMARK VINA RESULT:      -8.7      3.301      4.275
REMARK  Name = 
REMARK  5 active torsions:
REMARK  status: ('A' for Active; 'I' for Inactive)
REMARK    1  A    between atoms: C_1  and  C_2
REMARK    2  A    between atoms: C_3  and  N_4
REMARK    3  A    between atoms: C_5  and  C_7
REMARK    4  A    between atoms: C_10  and  C_11
REMARK    5  A    between atoms: C_22  and  N_23
REMARK                            x       y       z     vdW  Elec       q    Type
REMARK                         _______ _______ _______ _____ _____    ______ ____
ROOT
ATOM      1  N   UNL     1       1.491   8.328  20.392  0.00  0.00    +0.000 N 
ATOM      2  C   UNL     1       0.552   9.303  20.118  0.00  0.00    +0.000 C 
ATOM      3  O   UNL     1       0.235   9.684  18.996  0.00  0.00    +0.000 OA
ATOM      4  H   UNL     1       1.814   8.338  21.354  0.00  0.00    +0.000 HD
ENDROOT
BRANCH   1   7
ATOM      5  C   UNL     1       1.903   5.275  20.766  0.00  0.00    +0.000 C 
ATOM      6  C   UNL     1       2.344   6.083  19.570  0.00  0.00    +0.000 A 
ATOM      7  C   UNL     1       2.199   7.490  19.490  0.00  0.00    +0.000 A 
ATOM      8  C   UNL     1       2.855   8.179  18.452  0.00  0.00    +0.000 A 
ATOM      9  C   UNL     1       3.604   7.509  17.485  0.00  0.00    +0.000 A 
ATOM     10  C   UNL     1       3.704   6.126  17.530  0.00  0.00    +0.000 A 
ATOM     11  C   UNL     1       3.056   5.407  18.541  0.00  0.00    +0.000 A 
BRANCH  11  12
ATOM     12  N   UNL     1       3.135   3.996  18.502  0.00  0.00    +0.000 N 
ATOM     13  C   UNL     1       4.252   3.289  18.859  0.00  0.00    +0.000 C 
ATOM     14  O   UNL     1       5.283   3.710  19.368  0.00  0.00    +0.000 OA
ATOM     15  C   UNL     1       4.022   1.839  18.554  0.00  0.00    +0.000 C 
ATOM     16  C   UNL     1       2.645   1.788  17.925  0.00  0.00    +0.000 C 
ATOM     17  C   UNL     1       2.173   3.214  17.911  0.00  0.00    +0.000 C 
ATOM     18  O   UNL     1       1.126   3.562  17.387  0.00  0.00    +0.000 OA
ENDBRANCH  11  12
ENDBRANCH   1   7
BRANCH   2  19
ATOM     19  C   UNL     1      -0.048   9.907  21.300  0.00  0.00    +0.000 A 
ATOM     20  C   UNL     1      -0.343   9.323  22.514  0.00  0.00    +0.000 A 
ATOM     21  C   UNL     1      -0.882  10.333  23.335  0.00  0.00    +0.000 A 
ATOM     22  C   UNL     1      -0.904  11.494  22.588  0.00  0.00    +0.000 A 
ATOM     23  O   UNL     1      -0.400  11.236  21.333  0.00  0.00    +0.000 OA
BRANCH  22  24
ATOM     24  C   UNL     1      -1.339  12.865  22.876  0.00  0.00    +0.000 A 
ATOM     25  C   UNL     1      -0.501  13.966  22.646  0.00  0.00    +0.000 A 
ATOM     26  C   UNL     1      -0.936  15.272  22.920  0.00  0.00    +0.000 A 
ATOM     27  C   UNL     1      -2.214  15.497  23.431  0.00  0.00    +0.000 A 
ATOM     28  C   UNL     1      -3.056  14.417  23.673  0.00  0.00    +0.000 A 
ATOM     29  C   UNL     1      -2.618  13.122  23.399  0.00  0.00    +0.000 A 
ATOM     30  F   UNL     1      -3.474  12.120  23.654  0.00  0.00    +0.000 F 
ENDBRANCH  22  24
ENDBRANCH   2  19
TORSDOF 4
ENDMDL
MODEL 8
REMARK VINA RESULT:      -8.7      3.225      4.272
REMARK  Name = 
REMARK  5 active torsions:
REMARK  status: ('A' for Active; 'I' for Inactive)
REMARK    1  A    between atoms: C_1  and  C_2
REMARK    2  A    between atoms: C_3  and  N_4
REMARK    3  A    between atoms: C_5  and  C_7
REMARK    4  A    between atoms: C_10  and  C_11
REMARK    5  A    between atoms: C_22  and  N_23
REMARK                            x       y       z     vdW  Elec       q    Type
REMARK                         _______ _______ _______ _____ _____    ______ ____
ROOT
ATOM      1  N   UNL     1       1.502   8.209  20.390  0.00  0.00    +0.000 N 
ATOM      2  C   UNL     1       0.660   9.274  20.137  0.00  0.00    +0.000 C 
ATOM      3  O   UNL     1       0.460   9.771  19.034  0.00  0.00    +0.000 OA
ATOM      4  H   UNL     1       1.749   8.115  21.370  0.00  0.00    +0.000 HD
ENDROOT
BRANCH   1   7
ATOM      5  C   UNL     1       1.982   5.162  20.727  0.00  0.00    +0.000 C 
ATOM      6  C   UNL     1       2.392   5.992  19.534  0.00  0.00    +0.000 A 
ATOM      7  C   UNL     1       2.216   7.396  19.471  0.00  0.00    +0.000 A 
ATOM      8  C   UNL     1       2.845   8.110  18.433  0.00  0.00    +0.000 A 
ATOM      9  C   UNL     1       3.595   7.466  17.449  0.00  0.00    +0.000 A 
ATOM     10  C   UNL     1       3.725   6.085  17.478  0.00  0.00    +0.000 A 
ATOM     11  C   UNL     1       3.105   5.342  18.489  0.00  0.00    +0.000 A 
BRANCH  11  12
ATOM     12  N   UNL     1       3.212   3.933  18.435  0.00  0.00    +0.000 N 
ATOM     13  C   UNL     1       2.188   3.110  18.050  0.00  0.00    +0.000 C 
ATOM     14  O   UNL     1       1.098   3.423  17.588  0.00  0.00    +0.000 OA
ATOM     15  C   UNL     1       2.613   1.686  18.253  0.00  0.00    +0.000 C 
ATOM     16  C   UNL     1       4.002   1.777  18.853  0.00  0.00    +0.000 C 
ATOM     17  C   UNL     1       4.283   3.249  18.955  0.00  0.00    +0.000 C 
ATOM     18  O   UNL     1       5.289   3.697  19.483  0.00  0.00    +0.000 OA
ENDBRANCH  11  12
ENDBRANCH   1   7
BRANCH   2  19
ATOM     19  C   UNL     1       0.015   9.824  21.322  0.00  0.00    +0.000 A 
ATOM     20  C   UNL     1      -0.034   9.304  22.600  0.00  0.00    +0.000 A 
ATOM     21  C   UNL     1      -0.749  10.226  23.389  0.00  0.00    +0.000 A 
ATOM     22  C   UNL     1      -1.119  11.269  22.563  0.00  0.00    +0.000 A 
ATOM     23  O   UNL     1      -0.658  11.022  21.289  0.00  0.00    +0.000 OA
BRANCH  22  24
ATOM     24  C   UNL     1      -1.863  12.512  22.787  0.00  0.00    +0.000 A 
ATOM     25  C   UNL     1      -3.246  12.509  23.023  0.00  0.00    +0.000 A 
ATOM     26  C   UNL     1      -3.941  13.708  23.244  0.00  0.00    +0.000 A 
ATOM     27  C   UNL     1      -3.267  14.928  23.229  0.00  0.00    +0.000 A 
ATOM     28  C   UNL     1      -1.897  14.951  22.990  0.00  0.00    +0.000 A 
ATOM     29  C   UNL     1      -1.212  13.757  22.771  0.00  0.00    +0.000 A 
ATOM     30  F   UNL     1       0.108  13.842  22.544  0.00  0.00    +0.000 F 
ENDBRANCH  22  24
ENDBRANCH   2  19
TORSDOF 4
ENDMDL
MODEL 9
REMARK VINA RESULT:      -8.7      2.789      8.823
REMARK  Name = 
REMARK  5 active torsions:
REMARK  status: ('A' for Active; 'I' for Inactive)
REMARK    1  A    between atoms: C_1  and  C_2
REMARK    2  A    between atoms: C_3  and  N_4
REMARK    3  A    between atoms: C_5  and  C_7
REMARK    4  A    between atoms: C_10  and  C_11
REMARK    5  A    between atoms: C_22  and  N_23
REMARK                            x       y       z     vdW  Elec       q    Type
REMARK                         _______ _______ _______ _____ _____    ______ ____
ROOT
ATOM      1  N   UNL     1       2.387   7.023  19.955  0.00  0.00    +0.000 N 
ATOM      2  C   UNL     1       2.135   5.678  20.132  0.00  0.00    +0.000 C 
ATOM      3  O   UNL     1       1.202   5.211  20.777  0.00  0.00    +0.000 OA
ATOM      4  H   UNL     1       3.330   7.219  19.636  0.00  0.00    +0.000 HD
ENDROOT
BRANCH   1   7
ATOM      5  C   UNL     1       1.733   9.465  18.156  0.00  0.00    +0.000 C 
ATOM      6  C   UNL     1       1.210   9.236  19.553  0.00  0.00    +0.000 A 
ATOM      7  C   UNL     1       1.607   8.139  20.357  0.00  0.00    +0.000 A 
ATOM      8  C   UNL     1       1.258   8.142  21.722  0.00  0.00    +0.000 A 
ATOM      9  C   UNL     1       0.501   9.169  22.284  0.00  0.00    +0.000 A 
ATOM     10  C   UNL     1       0.066  10.218  21.487  0.00  0.00    +0.000 A 
ATOM     11  C   UNL     1       0.385  10.243  20.124  0.00  0.00    +0.000 A 
BRANCH  11  12
ATOM     12  N   UNL     1      -0.140  11.298  19.343  0.00  0.00    +0.000 N 
ATOM     13  C   UNL     1       0.356  12.575  19.362  0.00  0.00    +0.000 C 
ATOM     14  O   UNL     1       1.362  12.986  19.925  0.00  0.00    +0.000 OA
ATOM     15  C   UNL     1      -0.532  13.449  18.528  0.00  0.00    +0.000 C 
ATOM     16  C   UNL     1      -1.644  12.535  18.055  0.00  0.00    +0.000 C 
ATOM     17  C   UNL     1      -1.320  11.193  18.649  0.00  0.00    +0.000 C 
ATOM     18  O   UNL     1      -2.060  10.226  18.547  0.00  0.00    +0.000 OA
ENDBRANCH  11  12
ENDBRANCH   1   7
BRANCH   2  19
ATOM     19  C   UNL     1       3.111   4.797  19.503  0.00  0.00    +0.000 A 
ATOM     20  C   UNL     1       3.499   3.527  19.880  0.00  0.00    +0.000 A 
ATOM     21  C   UNL     1       4.444   3.090  18.932  0.00  0.00    +0.000 A 
ATOM     22  C   UNL     1       4.606   4.112  18.018  0.00  0.00    +0.000 A 
ATOM     23  O   UNL     1       3.794   5.167  18.369  0.00  0.00    +0.000 OA
BRANCH  22  24
ATOM     24  C   UNL     1       5.433   4.262  16.816  0.00  0.00    +0.000 A 
ATOM     25  C   UNL     1       4.906   4.066  15.530  0.00  0.00    +0.000 A 
ATOM     26  C   UNL     1       5.709   4.222  14.391  0.00  0.00    +0.000 A 
ATOM     27  C   UNL     1       7.053   4.573  14.518  0.00  0.00    +0.000 A 
ATOM     28  C   UNL     1       7.595   4.765  15.784  0.00  0.00    +0.000 A 
ATOM     29  C   UNL     1       6.792   4.608  16.912  0.00  0.00    +0.000 A 
ATOM     30  F   UNL     1       7.371   4.805  18.107  0.00  0.00    +0.000 F 
ENDBRANCH  22  24
ENDBRANCH   2  19
TORSDOF 4
ENDMDL
