MODEL 1
REMARK VINA RESULT:      -9.0      0.000      0.000
REMARK  Name = 
REMARK  4 active torsions:
REMARK  status: ('A' for Active; 'I' for Inactive)
REMARK    1  A    between atoms: C_4  and  C_5
REMARK    2  A    between atoms: C_5  and  N_6
REMARK    3  A    between atoms: C_14  and  C_15
REMARK    4  A    between atoms: C_23  and  O_24
REMARK                            x       y       z     vdW  Elec       q    Type
REMARK                         _______ _______ _______ _____ _____    ______ ____
ROOT
ATOM      1  C   UNL     1       1.534   8.916  17.922  0.00  0.00    +0.000 C 
ENDROOT
BRANCH   1   5
ATOM      2  O   UNL     1       0.965  11.991  21.596  0.00  0.00    +0.000 OA
ATOM      3  C   UNL     1       0.492  11.543  20.558  0.00  0.00    +0.000 A 
ATOM      4  C   UNL     1       1.168  10.453  19.836  0.00  0.00    +0.000 A 
ATOM      5  C   UNL     1       0.669   9.856  18.744  0.00  0.00    +0.000 A 
ATOM      6  C   UNL     1      -0.663  10.299  18.280  0.00  0.00    +0.000 A 
ATOM      7  C   UNL     1      -1.399   9.671  17.265  0.00  0.00    +0.000 A 
ATOM      8  C   UNL     1      -2.610  10.208  16.806  0.00  0.00    +0.000 A 
ATOM      9  C   UNL     1      -3.093  11.392  17.353  0.00  0.00    +0.000 A 
ATOM     10  C   UNL     1      -2.425  12.005  18.399  0.00  0.00    +0.000 A 
ATOM     11  C   UNL     1      -1.233  11.435  18.864  0.00  0.00    +0.000 A 
ATOM     12  O   UNL     1      -0.639  12.073  19.968  0.00  0.00    +0.000 OA
BRANCH   9  13
ATOM     13  O   UNL     1      -4.230  11.979  16.888  0.00  0.00    +0.000 OA
ATOM     14  H   UNL     1      -4.753  11.318  16.406  0.00  0.00    +0.000 HD
ENDBRANCH   9  13
ENDBRANCH   1   5
BRANCH   1  15
ATOM     15  N   UNL     1       2.551   8.163  18.647  0.00  0.00    +0.000 NA
ATOM     16  C   UNL     1       3.520   7.440  17.834  0.00  0.00    +0.000 C 
ATOM     17  C   UNL     1       3.207   5.965  17.539  0.00  0.00    +0.000 C 
ATOM     18  C   UNL     1       2.728   5.191  18.743  0.00  0.00    +0.000 A 
ATOM     19  C   UNL     1       2.202   5.917  19.825  0.00  0.00    +0.000 A 
ATOM     20  C   UNL     1       1.773   5.236  20.978  0.00  0.00    +0.000 A 
ATOM     21  C   UNL     1       1.849   3.851  21.063  0.00  0.00    +0.000 A 
ATOM     22  C   UNL     1       2.325   3.126  19.978  0.00  0.00    +0.000 A 
ATOM     23  C   UNL     1       2.747   3.772  18.797  0.00  0.00    +0.000 A 
ATOM     24  C   UNL     1       2.016   7.419  19.791  0.00  0.00    +0.000 C 
BRANCH  23  25
ATOM     25  C   UNL     1       3.170   2.874  17.653  0.00  0.00    +0.000 C 
ATOM     26  F   UNL     1       3.115   1.538  17.902  0.00  0.00    +0.000 F 
ATOM     27  F   UNL     1       2.423   3.074  16.530  0.00  0.00    +0.000 F 
ATOM     28  F   UNL     1       4.462   3.113  17.276  0.00  0.00    +0.000 F 
ENDBRANCH  23  25
ENDBRANCH   1  15
TORSDOF 4
ENDMDL
MODEL 2
REMARK VINA RESULT:      -8.9      5.210      8.277
REMARK  Name = 
REMARK  4 active torsions:
REMARK  status: ('A' for Active; 'I' for Inactive)
REMARK    1  A    between atoms: C_4  and  C_5
REMARK    2  A    between atoms: C_5  and  N_6
REMARK    3  A    between atoms: C_14  and  C_15
REMARK    4  A    between atoms: C_23  and  O_24
REMARK                            x       y       z     vdW  Elec       q    Type
REMARK                         _______ _______ _______ _____ _____    ______ ____
ROOT
ATOM      1  C   UNL     1       1.854   6.314  17.971  0.00  0.00    +0.000 C 
ENDROOT
BRANCH   1   5
ATOM      2  O   UNL     1       2.761   1.607  18.520  0.00  0.00    +0.000 OA
ATOM      3  C   UNL     1       3.142   2.671  18.046  0.00  0.00    +0.000 A 
ATOM      4  C   UNL     1       2.395   3.914  18.299  0.00  0.00    +0.000 A 
ATOM      5  C   UNL     1       2.795   5.125  17.885  0.00  0.00    +0.000 A 
ATOM      6  C   UNL     1       4.091   5.205  17.177  0.00  0.00    +0.000 A 
ATOM      7  C   UNL     1       4.734   6.402  16.830  0.00  0.00    +0.000 A 
ATOM      8  C   UNL     1       5.911   6.400  16.068  0.00  0.00    +0.000 A 
ATOM      9  C   UNL     1       6.452   5.195  15.634  0.00  0.00    +0.000 A 
ATOM     10  C   UNL     1       5.879   3.993  16.010  0.00  0.00    +0.000 A 
ATOM     11  C   UNL     1       4.722   4.015  16.799  0.00  0.00    +0.000 A 
ATOM     12  O   UNL     1       4.228   2.759  17.197  0.00  0.00    +0.000 OA
BRANCH   9  13
ATOM     13  O   UNL     1       7.556   5.157  14.836  0.00  0.00    +0.000 OA
ATOM     14  H   UNL     1       7.853   4.236  14.753  0.00  0.00    +0.000 HD
ENDBRANCH   9  13
ENDBRANCH   1   5
BRANCH   1  15
ATOM     15  N   UNL     1       2.360   7.498  18.658  0.00  0.00    +0.000 NA
ATOM     16  C   UNL     1       2.512   7.391  20.102  0.00  0.00    +0.000 C 
ATOM     17  C   UNL     1       1.336   7.886  20.957  0.00  0.00    +0.000 C 
ATOM     18  C   UNL     1       0.768   9.209  20.505  0.00  0.00    +0.000 A 
ATOM     19  C   UNL     1       1.020   9.616  19.183  0.00  0.00    +0.000 A 
ATOM     20  C   UNL     1       0.534  10.856  18.731  0.00  0.00    +0.000 A 
ATOM     21  C   UNL     1      -0.203  11.685  19.568  0.00  0.00    +0.000 A 
ATOM     22  C   UNL     1      -0.495  11.267  20.860  0.00  0.00    +0.000 A 
ATOM     23  C   UNL     1      -0.041  10.021  21.343  0.00  0.00    +0.000 A 
ATOM     24  C   UNL     1       1.753   8.746  18.184  0.00  0.00    +0.000 C 
BRANCH  23  25
ATOM     25  C   UNL     1      -0.489   9.638  22.739  0.00  0.00    +0.000 C 
ATOM     26  F   UNL     1       0.501   9.528  23.665  0.00  0.00    +0.000 F 
ATOM     27  F   UNL     1      -1.389  10.521  23.258  0.00  0.00    +0.000 F 
ATOM     28  F   UNL     1      -1.122   8.426  22.750  0.00  0.00    +0.000 F 
ENDBRANCH  23  25
ENDBRANCH   1  15
TORSDOF 4
ENDMDL
MODEL 3
REMARK VINA RESULT:      -8.9      4.945      7.974
REMARK  Name = 
REMARK  4 active torsions:
REMARK  status: ('A' for Active; 'I' for Inactive)
REMARK    1  A    between atoms: C_4  and  C_5
REMARK    2  A    between atoms: C_5  and  N_6
REMARK    3  A    between atoms: C_14  and  C_15
REMARK    4  A    between atoms: C_23  and  O_24
REMARK                            x       y       z     vdW  Elec       q    Type
REMARK                         _______ _______ _______ _____ _____    ______ ____
ROOT
ATOM      1  C   UNL     1       1.900   6.666  17.716  0.00  0.00    +0.000 C 
ENDROOT
BRANCH   1   5
ATOM      2  O   UNL     1       5.954   4.148  17.010  0.00  0.00    +0.000 OA
ATOM      3  C   UNL     1       4.934   4.272  17.677  0.00  0.00    +0.000 A 
ATOM      4  C   UNL     1       3.936   5.298  17.334  0.00  0.00    +0.000 A 
ATOM      5  C   UNL     1       2.760   5.439  17.963  0.00  0.00    +0.000 A 
ATOM      6  C   UNL     1       2.441   4.464  19.029  0.00  0.00    +0.000 A 
ATOM      7  C   UNL     1       1.197   4.363  19.666  0.00  0.00    +0.000 A 
ATOM      8  C   UNL     1       0.999   3.483  20.740  0.00  0.00    +0.000 A 
ATOM      9  C   UNL     1       2.054   2.701  21.197  0.00  0.00    +0.000 A 
ATOM     10  C   UNL     1       3.279   2.731  20.552  0.00  0.00    +0.000 A 
ATOM     11  C   UNL     1       3.447   3.592  19.461  0.00  0.00    +0.000 A 
ATOM     12  O   UNL     1       4.695   3.527  18.815  0.00  0.00    +0.000 OA
BRANCH   9  13
ATOM     13  O   UNL     1       1.920   1.886  22.279  0.00  0.00    +0.000 OA
ATOM     14  H   UNL     1       2.802   1.643  22.603  0.00  0.00    +0.000 HD
ENDBRANCH   9  13
ENDBRANCH   1   5
BRANCH   1  15
ATOM     15  N   UNL     1       2.306   7.894  18.391  0.00  0.00    +0.000 NA
ATOM     16  C   UNL     1       2.572   7.788  19.819  0.00  0.00    +0.000 C 
ATOM     17  C   UNL     1       1.408   8.124  20.763  0.00  0.00    +0.000 C 
ATOM     18  C   UNL     1       0.653   9.374  20.380  0.00  0.00    +0.000 A 
ATOM     19  C   UNL     1       0.759   9.825  19.052  0.00  0.00    +0.000 A 
ATOM     20  C   UNL     1       0.095  11.002  18.661  0.00  0.00    +0.000 A 
ATOM     21  C   UNL     1      -0.676  11.723  19.564  0.00  0.00    +0.000 A 
ATOM     22  C   UNL     1      -0.822  11.256  20.864  0.00  0.00    +0.000 A 
ATOM     23  C   UNL     1      -0.187  10.069  21.288  0.00  0.00    +0.000 A 
ATOM     24  C   UNL     1       1.519   9.064  17.987  0.00  0.00    +0.000 C 
BRANCH  23  25
ATOM     25  C   UNL     1      -0.485   9.616  22.703  0.00  0.00    +0.000 C 
ATOM     26  F   UNL     1       0.590   9.533  23.532  0.00  0.00    +0.000 F 
ATOM     27  F   UNL     1      -1.379  10.430  23.333  0.00  0.00    +0.000 F 
ATOM     28  F   UNL     1      -1.049   8.371  22.726  0.00  0.00    +0.000 F 
ENDBRANCH  23  25
ENDBRANCH   1  15
TORSDOF 4
ENDMDL
MODEL 4
REMARK VINA RESULT:      -8.6      0.871      1.143
REMARK  Name = 
REMARK  4 active torsions:
REMARK  status: ('A' for Active; 'I' for Inactive)
REMARK    1  A    between atoms: C_4  and  C_5
REMARK    2  A    between atoms: C_5  and  N_6
REMARK    3  A    between atoms: C_14  and  C_15
REMARK    4  A    between atoms: C_23  and  O_24
REMARK                            x       y       z     vdW  Elec       q    Type
REMARK                         _______ _______ _______ _____ _____    ______ ____
ROOT
ATOM      1  C   UNL     1       1.610   8.813  17.758  0.00  0.00    +0.000 C 
ENDROOT
BRANCH   1   5
ATOM      2  O   UNL     1       2.435  13.164  19.674  0.00  0.00    +0.000 OA
ATOM      3  C   UNL     1       1.605  12.403  19.190  0.00  0.00    +0.000 A 
ATOM      4  C   UNL     1       1.979  11.031  18.811  0.00  0.00    +0.000 A 
ATOM      5  C   UNL     1       1.110  10.117  18.356  0.00  0.00    +0.000 A 
ATOM      6  C   UNL     1      -0.314  10.513  18.285  0.00  0.00    +0.000 A 
ATOM      7  C   UNL     1      -1.368   9.635  17.996  0.00  0.00    +0.000 A 
ATOM      8  C   UNL     1      -2.682  10.102  17.843  0.00  0.00    +0.000 A 
ATOM      9  C   UNL     1      -2.952  11.460  17.967  0.00  0.00    +0.000 A 
ATOM     10  C   UNL     1      -1.946  12.347  18.313  0.00  0.00    +0.000 A 
ATOM     11  C   UNL     1      -0.647  11.856  18.492  0.00  0.00    +0.000 A 
ATOM     12  O   UNL     1       0.314  12.799  18.902  0.00  0.00    +0.000 OA
BRANCH   9  13
ATOM     13  O   UNL     1      -4.202  11.960  17.760  0.00  0.00    +0.000 OA
ATOM     14  H   UNL     1      -4.195  12.913  17.943  0.00  0.00    +0.000 HD
ENDBRANCH   9  13
ENDBRANCH   1   5
BRANCH   1  15
ATOM     15  N   UNL     1       2.610   8.083  18.530  0.00  0.00    +0.000 NA
ATOM     16  C   UNL     1       3.587   7.322  17.764  0.00  0.00    +0.000 C 
ATOM     17  C   UNL     1       3.269   5.839  17.521  0.00  0.00    +0.000 C 
ATOM     18  C   UNL     1       2.764   5.116  18.746  0.00  0.00    +0.000 A 
ATOM     19  C   UNL     1       2.225   5.888  19.790  0.00  0.00    +0.000 A 
ATOM     20  C   UNL     1       1.771   5.255  20.961  0.00  0.00    +0.000 A 
ATOM     21  C   UNL     1       1.836   3.874  21.101  0.00  0.00    +0.000 A 
ATOM     22  C   UNL     1       2.326   3.104  20.055  0.00  0.00    +0.000 A 
ATOM     23  C   UNL     1       2.772   3.700  18.856  0.00  0.00    +0.000 A 
ATOM     24  C   UNL     1       2.049   7.388  19.693  0.00  0.00    +0.000 C 
BRANCH  23  25
ATOM     25  C   UNL     1       3.209   2.755  17.756  0.00  0.00    +0.000 C 
ATOM     26  F   UNL     1       4.448   2.980  17.244  0.00  0.00    +0.000 F 
ATOM     27  F   UNL     1       3.203   1.452  18.157  0.00  0.00    +0.000 F 
ATOM     28  F   UNL     1       2.364   2.807  16.682  0.00  0.00    +0.000 F 
ENDBRANCH  23  25
ENDBRANCH   1  15
TORSDOF 4
ENDMDL
MODEL 5
REMARK VINA RESULT:      -8.4      1.464      2.050
REMARK  Name = 
REMARK  4 active torsions:
REMARK  status: ('A' for Active; 'I' for Inactive)
REMARK    1  A    between atoms: C_4  and  C_5
REMARK    2  A    between atoms: C_5  and  N_6
REMARK    3  A    between atoms: C_14  and  C_15
REMARK    4  A    between atoms: C_23  and  O_24
REMARK                            x       y       z     vdW  Elec       q    Type
REMARK                         _______ _______ _______ _____ _____    ______ ____
ROOT
ATOM      1  C   UNL     1       1.542   8.716  17.775  0.00  0.00    +0.000 C 
ENDROOT
BRANCH   1   5
ATOM      2  O   UNL     1       0.807  11.420  21.703  0.00  0.00    +0.000 OA
ATOM      3  C   UNL     1       0.388  11.087  20.601  0.00  0.00    +0.000 A 
ATOM      4  C   UNL     1       1.089  10.061  19.811  0.00  0.00    +0.000 A 
ATOM      5  C   UNL     1       0.645   9.585  18.639  0.00  0.00    +0.000 A 
ATOM      6  C   UNL     1      -0.653  10.097  18.148  0.00  0.00    +0.000 A 
ATOM      7  C   UNL     1      -1.338   9.587  17.037  0.00  0.00    +0.000 A 
ATOM      8  C   UNL     1      -2.514  10.191  16.568  0.00  0.00    +0.000 A 
ATOM      9  C   UNL     1      -3.011  11.323  17.204  0.00  0.00    +0.000 A 
ATOM     10  C   UNL     1      -2.395  11.816  18.341  0.00  0.00    +0.000 A 
ATOM     11  C   UNL     1      -1.240  11.180  18.812  0.00  0.00    +0.000 A 
ATOM     12  O   UNL     1      -0.700  11.694  20.005  0.00  0.00    +0.000 OA
BRANCH   9  13
ATOM     13  O   UNL     1      -4.112  11.976  16.738  0.00  0.00    +0.000 OA
ATOM     14  H   UNL     1      -3.831  12.655  16.104  0.00  0.00    +0.000 HD
ENDBRANCH   9  13
ENDBRANCH   1   5
BRANCH   1  15
ATOM     15  N   UNL     1       2.550   7.923  18.472  0.00  0.00    +0.000 NA
ATOM     16  C   UNL     1       3.906   7.997  17.945  0.00  0.00    +0.000 C 
ATOM     17  C   UNL     1       4.316   6.907  16.942  0.00  0.00    +0.000 C 
ATOM     18  C   UNL     1       3.900   5.515  17.351  0.00  0.00    +0.000 A 
ATOM     19  C   UNL     1       2.858   5.388  18.286  0.00  0.00    +0.000 A 
ATOM     20  C   UNL     1       2.460   4.109  18.716  0.00  0.00    +0.000 A 
ATOM     21  C   UNL     1       3.073   2.964  18.223  0.00  0.00    +0.000 A 
ATOM     22  C   UNL     1       4.072   3.083  17.265  0.00  0.00    +0.000 A 
ATOM     23  C   UNL     1       4.484   4.347  16.794  0.00  0.00    +0.000 A 
ATOM     24  C   UNL     1       2.088   6.576  18.821  0.00  0.00    +0.000 C 
BRANCH  23  25
ATOM     25  C   UNL     1       5.523   4.349  15.691  0.00  0.00    +0.000 C 
ATOM     26  F   UNL     1       5.115   4.860  14.499  0.00  0.00    +0.000 F 
ATOM     27  F   UNL     1       6.643   5.047  16.032  0.00  0.00    +0.000 F 
ATOM     28  F   UNL     1       5.957   3.084  15.406  0.00  0.00    +0.000 F 
ENDBRANCH  23  25
ENDBRANCH   1  15
TORSDOF 4
ENDMDL
MODEL 6
REMARK VINA RESULT:      -8.4      5.396      7.951
REMARK  Name = 
REMARK  4 active torsions:
REMARK  status: ('A' for Active; 'I' for Inactive)
REMARK    1  A    between atoms: C_4  and  C_5
REMARK    2  A    between atoms: C_5  and  N_6
REMARK    3  A    between atoms: C_14  and  C_15
REMARK    4  A    between atoms: C_23  and  O_24
REMARK                            x       y       z     vdW  Elec       q    Type
REMARK                         _______ _______ _______ _____ _____    ______ ____
ROOT
ATOM      1  C   UNL     1       3.668   7.511  17.888  0.00  0.00    +0.000 C 
ENDROOT
BRANCH   1   5
ATOM      2  O   UNL     1       7.621   4.844  18.621  0.00  0.00    +0.000 OA
ATOM      3  C   UNL     1       6.399   4.854  18.537  0.00  0.00    +0.000 A 
ATOM      4  C   UNL     1       5.682   6.093  18.191  0.00  0.00    +0.000 A 
ATOM      5  C   UNL     1       4.357   6.162  17.999  0.00  0.00    +0.000 A 
ATOM      6  C   UNL     1       3.592   4.900  18.095  0.00  0.00    +0.000 A 
ATOM      7  C   UNL     1       2.238   4.765  17.758  0.00  0.00    +0.000 A 
ATOM      8  C   UNL     1       1.551   3.561  17.973  0.00  0.00    +0.000 A 
ATOM      9  C   UNL     1       2.215   2.479  18.541  0.00  0.00    +0.000 A 
ATOM     10  C   UNL     1       3.567   2.557  18.828  0.00  0.00    +0.000 A 
ATOM     11  C   UNL     1       4.242   3.758  18.575  0.00  0.00    +0.000 A 
ATOM     12  O   UNL     1       5.625   3.749  18.832  0.00  0.00    +0.000 OA
BRANCH   9  13
ATOM     13  O   UNL     1       1.566   1.316  18.827  0.00  0.00    +0.000 OA
ATOM     14  H   UNL     1       0.826   1.207  18.206  0.00  0.00    +0.000 HD
ENDBRANCH   9  13
ENDBRANCH   1   5
BRANCH   1  15
ATOM     15  N   UNL     1       2.265   7.561  18.285  0.00  0.00    +0.000 NA
ATOM     16  C   UNL     1       1.425   8.511  17.568  0.00  0.00    +0.000 C 
ATOM     17  C   UNL     1       1.245   9.894  18.212  0.00  0.00    +0.000 C 
ATOM     18  C   UNL     1       0.973   9.846  19.696  0.00  0.00    +0.000 A 
ATOM     19  C   UNL     1       1.341   8.682  20.394  0.00  0.00    +0.000 A 
ATOM     20  C   UNL     1       1.078   8.585  21.772  0.00  0.00    +0.000 A 
ATOM     21  C   UNL     1       0.468   9.626  22.461  0.00  0.00    +0.000 A 
ATOM     22  C   UNL     1       0.144  10.795  21.785  0.00  0.00    +0.000 A 
ATOM     23  C   UNL     1       0.410  10.938  20.407  0.00  0.00    +0.000 A 
ATOM     24  C   UNL     1       2.073   7.531  19.739  0.00  0.00    +0.000 C 
BRANCH  23  25
ATOM     25  C   UNL     1       0.088  12.287  19.796  0.00  0.00    +0.000 C 
ATOM     26  F   UNL     1       1.131  12.933  19.211  0.00  0.00    +0.000 F 
ATOM     27  F   UNL     1      -0.883  12.207  18.842  0.00  0.00    +0.000 F 
ATOM     28  F   UNL     1      -0.393  13.161  20.730  0.00  0.00    +0.000 F 
ENDBRANCH  23  25
ENDBRANCH   1  15
TORSDOF 4
ENDMDL
MODEL 7
REMARK VINA RESULT:      -8.3      5.170      8.473
REMARK  Name = 
REMARK  4 active torsions:
REMARK  status: ('A' for Active; 'I' for Inactive)
REMARK    1  A    between atoms: C_4  and  C_5
REMARK    2  A    between atoms: C_5  and  N_6
REMARK    3  A    between atoms: C_14  and  C_15
REMARK    4  A    between atoms: C_23  and  O_24
REMARK                            x       y       z     vdW  Elec       q    Type
REMARK                         _______ _______ _______ _____ _____    ______ ____
ROOT
ATOM      1  C   UNL     1       1.706   8.608  19.530  0.00  0.00    +0.000 C 
ENDROOT
BRANCH   1   5
ATOM      2  O   UNL     1       4.810   6.994  16.207  0.00  0.00    +0.000 OA
ATOM      3  C   UNL     1       4.179   6.735  17.225  0.00  0.00    +0.000 A 
ATOM      4  C   UNL     1       3.243   7.716  17.796  0.00  0.00    +0.000 A 
ATOM      5  C   UNL     1       2.458   7.473  18.855  0.00  0.00    +0.000 A 
ATOM      6  C   UNL     1       2.512   6.116  19.441  0.00  0.00    +0.000 A 
ATOM      7  C   UNL     1       1.643   5.645  20.435  0.00  0.00    +0.000 A 
ATOM      8  C   UNL     1       1.820   4.382  21.017  0.00  0.00    +0.000 A 
ATOM      9  C   UNL     1       2.882   3.578  20.616  0.00  0.00    +0.000 A 
ATOM     10  C   UNL     1       3.722   3.986  19.594  0.00  0.00    +0.000 A 
ATOM     11  C   UNL     1       3.509   5.237  19.004  0.00  0.00    +0.000 A 
ATOM     12  O   UNL     1       4.360   5.562  17.931  0.00  0.00    +0.000 OA
BRANCH   9  13
ATOM     13  O   UNL     1       3.126   2.375  21.204  0.00  0.00    +0.000 OA
ATOM     14  H   UNL     1       3.783   2.496  21.909  0.00  0.00    +0.000 HD
ENDBRANCH   9  13
ENDBRANCH   1   5
BRANCH   1  15
ATOM     15  N   UNL     1       1.276   9.706  18.672  0.00  0.00    +0.000 NA
ATOM     16  C   UNL     1       1.209  11.022  19.293  0.00  0.00    +0.000 C 
ATOM     17  C   UNL     1      -0.156  11.451  19.853  0.00  0.00    +0.000 C 
ATOM     18  C   UNL     1      -1.313  11.158  18.929  0.00  0.00    +0.000 A 
ATOM     19  C   UNL     1      -1.129  10.182  17.934  0.00  0.00    +0.000 A 
ATOM     20  C   UNL     1      -2.173   9.900  17.034  0.00  0.00    +0.000 A 
ATOM     21  C   UNL     1      -3.390  10.564  17.117  0.00  0.00    +0.000 A 
ATOM     22  C   UNL     1      -3.592  11.496  18.127  0.00  0.00    +0.000 A 
ATOM     23  C   UNL     1      -2.577  11.792  19.061  0.00  0.00    +0.000 A 
ATOM     24  C   UNL     1       0.137   9.361  17.816  0.00  0.00    +0.000 C 
BRANCH  23  25
ATOM     25  C   UNL     1      -2.940  12.764  20.164  0.00  0.00    +0.000 C 
ATOM     26  F   UNL     1      -2.829  12.284  21.432  0.00  0.00    +0.000 F 
ATOM     27  F   UNL     1      -2.183  13.898  20.128  0.00  0.00    +0.000 F 
ATOM     28  F   UNL     1      -4.235  13.188  20.056  0.00  0.00    +0.000 F 
ENDBRANCH  23  25
ENDBRANCH   1  15
TORSDOF 4
ENDMDL
MODEL 8
REMARK VINA RESULT:      -8.3      5.458      7.325
REMARK  Name = 
REMARK  4 active torsions:
REMARK  status: ('A' for Active; 'I' for Inactive)
REMARK    1  A    between atoms: C_4  and  C_5
REMARK    2  A    between atoms: C_5  and  N_6
REMARK    3  A    between atoms: C_14  and  C_15
REMARK    4  A    between atoms: C_23  and  O_24
REMARK                            x       y       z     vdW  Elec       q    Type
REMARK                         _______ _______ _______ _____ _____    ______ ____
ROOT
ATOM      1  C   UNL     1       4.497   7.503  17.813  0.00  0.00    +0.000 C 
ENDROOT
BRANCH   1   5
ATOM      2  O   UNL     1       8.202   5.060  19.707  0.00  0.00    +0.000 OA
ATOM      3  C   UNL     1       7.468   5.210  18.737  0.00  0.00    +0.000 A 
ATOM      4  C   UNL     1       6.455   6.278  18.722  0.00  0.00    +0.000 A 
ATOM      5  C   UNL     1       5.676   6.556  17.668  0.00  0.00    +0.000 A 
ATOM      6  C   UNL     1       5.894   5.765  16.437  0.00  0.00    +0.000 A 
ATOM      7  C   UNL     1       5.290   6.036  15.201  0.00  0.00    +0.000 A 
ATOM      8  C   UNL     1       5.464   5.181  14.104  0.00  0.00    +0.000 A 
ATOM      9  C   UNL     1       6.240   4.035  14.237  0.00  0.00    +0.000 A 
ATOM     10  C   UNL     1       6.901   3.769  15.423  0.00  0.00    +0.000 A 
ATOM     11  C   UNL     1       6.740   4.652  16.498  0.00  0.00    +0.000 A 
ATOM     12  O   UNL     1       7.488   4.356  17.652  0.00  0.00    +0.000 OA
BRANCH   9  13
ATOM     13  O   UNL     1       6.377   3.146  13.214  0.00  0.00    +0.000 OA
ATOM     14  H   UNL     1       6.468   3.636  12.380  0.00  0.00    +0.000 HD
ENDBRANCH   9  13
ENDBRANCH   1   5
BRANCH   1  15
ATOM     15  N   UNL     1       3.175   6.891  17.891  0.00  0.00    +0.000 NA
ATOM     16  C   UNL     1       2.522   6.930  19.193  0.00  0.00    +0.000 C 
ATOM     17  C   UNL     1       2.707   5.699  20.093  0.00  0.00    +0.000 C 
ATOM     18  C   UNL     1       2.540   4.384  19.371  0.00  0.00    +0.000 A 
ATOM     19  C   UNL     1       2.685   4.379  17.972  0.00  0.00    +0.000 A 
ATOM     20  C   UNL     1       2.508   3.181  17.258  0.00  0.00    +0.000 A 
ATOM     21  C   UNL     1       2.201   1.995  17.913  0.00  0.00    +0.000 A 
ATOM     22  C   UNL     1       2.102   1.985  19.299  0.00  0.00    +0.000 A 
ATOM     23  C   UNL     1       2.293   3.163  20.052  0.00  0.00    +0.000 A 
ATOM     24  C   UNL     1       3.088   5.609  17.186  0.00  0.00    +0.000 C 
BRANCH  23  25
ATOM     25  C   UNL     1       2.241   3.014  21.558  0.00  0.00    +0.000 C 
ATOM     26  F   UNL     1       2.455   4.153  22.270  0.00  0.00    +0.000 F 
ATOM     27  F   UNL     1       1.044   2.524  21.991  0.00  0.00    +0.000 F 
ATOM     28  F   UNL     1       3.180   2.130  22.010  0.00  0.00    +0.000 F 
ENDBRANCH  23  25
ENDBRANCH   1  15
TORSDOF 4
ENDMDL
MODEL 9
REMARK VINA RESULT:      -8.2      5.497      8.062
REMARK  Name = 
REMARK  4 active torsions:
REMARK  status: ('A' for Active; 'I' for Inactive)
REMARK    1  A    between atoms: C_4  and  C_5
REMARK    2  A    between atoms: C_5  and  N_6
REMARK    3  A    between atoms: C_14  and  C_15
REMARK    4  A    between atoms: C_23  and  O_24
REMARK                            x       y       z     vdW  Elec       q    Type
REMARK                         _______ _______ _______ _____ _____    ______ ____
ROOT
ATOM      1  C   UNL     1       3.556   7.842  18.156  0.00  0.00    +0.000 C 
ENDROOT
BRANCH   1   5
ATOM      2  O   UNL     1       6.838   5.635  15.392  0.00  0.00    +0.000 OA
ATOM      3  C   UNL     1       5.855   5.502  16.111  0.00  0.00    +0.000 A 
ATOM      4  C   UNL     1       5.178   6.679  16.680  0.00  0.00    +0.000 A 
ATOM      5  C   UNL     1       4.052   6.618  17.404  0.00  0.00    +0.000 A 
ATOM      6  C   UNL     1       3.438   5.286  17.591  0.00  0.00    +0.000 A 
ATOM      7  C   UNL     1       2.182   5.064  18.172  0.00  0.00    +0.000 A 
ATOM      8  C   UNL     1       1.710   3.766  18.411  0.00  0.00    +0.000 A 
ATOM      9  C   UNL     1       2.500   2.671  18.081  0.00  0.00    +0.000 A 
ATOM     10  C   UNL     1       3.719   2.851  17.450  0.00  0.00    +0.000 A 
ATOM     11  C   UNL     1       4.158   4.155  17.190  0.00  0.00    +0.000 A 
ATOM     12  O   UNL     1       5.375   4.264  16.492  0.00  0.00    +0.000 OA
BRANCH   9  13
ATOM     13  O   UNL     1       2.105   1.397  18.359  0.00  0.00    +0.000 OA
ATOM     14  H   UNL     1       1.486   1.102  17.672  0.00  0.00    +0.000 HD
ENDBRANCH   9  13
ENDBRANCH   1   5
BRANCH   1  15
ATOM     15  N   UNL     1       2.134   7.878  18.477  0.00  0.00    +0.000 NA
ATOM     16  C   UNL     1       1.333   8.857  17.755  0.00  0.00    +0.000 C 
ATOM     17  C   UNL     1       1.117  10.213  18.443  0.00  0.00    +0.000 C 
ATOM     18  C   UNL     1       0.764  10.105  19.907  0.00  0.00    +0.000 A 
ATOM     19  C   UNL     1       1.095   8.914  20.576  0.00  0.00    +0.000 A 
ATOM     20  C   UNL     1       0.757   8.760  21.933  0.00  0.00    +0.000 A 
ATOM     21  C   UNL     1       0.109   9.774  22.629  0.00  0.00    +0.000 A 
ATOM     22  C   UNL     1      -0.178  10.970  21.984  0.00  0.00    +0.000 A 
ATOM     23  C   UNL     1       0.163  11.168  20.630  0.00  0.00    +0.000 A 
ATOM     24  C   UNL     1       1.863   7.789  19.916  0.00  0.00    +0.000 C 
BRANCH  23  25
ATOM     25  C   UNL     1      -0.127  12.541  20.057  0.00  0.00    +0.000 C 
ATOM     26  F   UNL     1       0.933  13.181  19.496  0.00  0.00    +0.000 F 
ATOM     27  F   UNL     1      -1.094  12.510  19.097  0.00  0.00    +0.000 F 
ATOM     28  F   UNL     1      -0.594  13.398  21.015  0.00  0.00    +0.000 F 
ENDBRANCH  23  25
ENDBRANCH   1  15
TORSDOF 4
ENDMDL
