MODEL 1
REMARK VINA RESULT:      -8.9      0.000      0.000
REMARK  Name = 
REMARK  4 active torsions:
REMARK  status: ('A' for Active; 'I' for Inactive)
REMARK    1  A    between atoms: C_1  and  C_2
REMARK    2  A    between atoms: C_7  and  N_8
REMARK    3  A    between atoms: N_17  and  C_18
REMARK    4  A    between atoms: C_18  and  C_19
REMARK                            x       y       z     vdW  Elec       q    Type
REMARK                         _______ _______ _______ _____ _____    ______ ____
ROOT
ATOM      1  N   UNL     1       0.849   9.564  20.083  0.00  0.00    +0.000 N 
ATOM      2  C   UNL     1       1.327   8.278  20.210  0.00  0.00    +0.000 C 
ATOM      3  O   UNL     1       1.066   7.523  21.144  0.00  0.00    +0.000 OA
ATOM      4  N   UNL     1       2.177   7.867  19.205  0.00  0.00    +0.000 N 
ATOM      5  C   UNL     1       2.620   8.576  18.028  0.00  0.00    +0.000 C 
ATOM      6  C   UNL     1       3.139   7.485  17.107  0.00  0.00    +0.000 C 
ATOM      7  C   UNL     1       3.574   6.325  18.029  0.00  0.00    +0.000 C 
ATOM      8  C   UNL     1       5.095   6.154  18.086  0.00  0.00    +0.000 C 
ATOM      9  C   UNL     1       5.293   4.664  18.294  0.00  0.00    +0.000 C 
ATOM     10  N   UNL     1       4.233   4.066  17.485  0.00  0.00    +0.000 NA
ATOM     11  C   UNL     1       3.063   4.953  17.555  0.00  0.00    +0.000 C 
ATOM     12  C   UNL     1       2.974   6.671  19.404  0.00  0.00    +0.000 C 
ATOM     13  H   UNL     1       1.247  10.097  19.327  0.00  0.00    +0.000 HD
ENDROOT
BRANCH   1  20
ATOM     14  C   UNL     1      -3.926  14.388  22.426  0.00  0.00    +0.000 C 
ATOM     15  C   UNL     1      -2.940  13.306  22.224  0.00  0.00    +0.000 A 
ATOM     16  N   UNL     1      -2.529  12.514  23.259  0.00  0.00    +0.000 NA
ATOM     17  C   UNL     1      -1.680  11.699  22.682  0.00  0.00    +0.000 A 
ATOM     18  C   UNL     1      -0.898  10.632  23.189  0.00  0.00    +0.000 A 
ATOM     19  C   UNL     1      -0.096   9.942  22.358  0.00  0.00    +0.000 A 
ATOM     20  C   UNL     1       0.007  10.255  20.932  0.00  0.00    +0.000 A 
ATOM     21  C   UNL     1      -0.746  11.266  20.460  0.00  0.00    +0.000 A 
ATOM     22  N   UNL     1      -1.578  11.985  21.321  0.00  0.00    +0.000 N 
ATOM     23  N   UNL     1      -2.395  13.032  21.034  0.00  0.00    +0.000 NA
ENDBRANCH   1  20
BRANCH  10  24
ATOM     24  C   UNL     1       3.938   2.685  17.905  0.00  0.00    +0.000 C 
BRANCH  24  25
ATOM     25  C   UNL     1       3.008   2.610  19.098  0.00  0.00    +0.000 A 
ATOM     26  C   UNL     1       1.618   2.578  18.916  0.00  0.00    +0.000 A 
ATOM     27  C   UNL     1       0.761   2.604  20.017  0.00  0.00    +0.000 A 
ATOM     28  C   UNL     1       1.283   2.649  21.309  0.00  0.00    +0.000 A 
ATOM     29  C   UNL     1       2.663   2.647  21.503  0.00  0.00    +0.000 A 
ATOM     30  C   UNL     1       3.521   2.625  20.404  0.00  0.00    +0.000 A 
ENDBRANCH  24  25
ENDBRANCH  10  24
TORSDOF 3
ENDMDL
MODEL 2
REMARK VINA RESULT:      -8.7      2.750      9.637
REMARK  Name = 
REMARK  4 active torsions:
REMARK  status: ('A' for Active; 'I' for Inactive)
REMARK    1  A    between atoms: C_1  and  C_2
REMARK    2  A    between atoms: C_7  and  N_8
REMARK    3  A    between atoms: N_17  and  C_18
REMARK    4  A    between atoms: C_18  and  C_19
REMARK                            x       y       z     vdW  Elec       q    Type
REMARK                         _______ _______ _______ _____ _____    ______ ____
ROOT
ATOM      1  N   UNL     1       2.813   6.764  18.743  0.00  0.00    +0.000 N 
ATOM      2  C   UNL     1       2.210   7.975  18.480  0.00  0.00    +0.000 C 
ATOM      3  O   UNL     1       2.246   8.556  17.398  0.00  0.00    +0.000 OA
ATOM      4  N   UNL     1       1.556   8.548  19.550  0.00  0.00    +0.000 N 
ATOM      5  C   UNL     1       1.389   8.055  20.897  0.00  0.00    +0.000 C 
ATOM      6  C   UNL     1       0.228   8.864  21.451  0.00  0.00    +0.000 C 
ATOM      7  C   UNL     1       0.226  10.192  20.664  0.00  0.00    +0.000 C 
ATOM      8  C   UNL     1       0.669  11.386  21.516  0.00  0.00    +0.000 C 
ATOM      9  C   UNL     1      -0.110  12.557  20.947  0.00  0.00    +0.000 C 
ATOM     10  N   UNL     1      -1.408  11.972  20.615  0.00  0.00    +0.000 NA
ATOM     11  C   UNL     1      -1.173  10.594  20.161  0.00  0.00    +0.000 C 
ATOM     12  C   UNL     1       1.170   9.945  19.472  0.00  0.00    +0.000 C 
ATOM     13  H   UNL     1       2.795   6.477  19.708  0.00  0.00    +0.000 HD
ENDROOT
BRANCH   1  20
ATOM     14  C   UNL     1       7.449   4.832  13.612  0.00  0.00    +0.000 C 
ATOM     15  C   UNL     1       6.441   4.940  14.687  0.00  0.00    +0.000 A 
ATOM     16  N   UNL     1       5.820   3.835  15.196  0.00  0.00    +0.000 NA
ATOM     17  C   UNL     1       5.024   4.342  16.106  0.00  0.00    +0.000 A 
ATOM     18  C   UNL     1       4.105   3.742  17.001  0.00  0.00    +0.000 A 
ATOM     19  C   UNL     1       3.404   4.513  17.852  0.00  0.00    +0.000 A 
ATOM     20  C   UNL     1       3.550   5.969  17.888  0.00  0.00    +0.000 A 
ATOM     21  C   UNL     1       4.432   6.528  17.039  0.00  0.00    +0.000 A 
ATOM     22  N   UNL     1       5.160   5.729  16.154  0.00  0.00    +0.000 N 
ATOM     23  N   UNL     1       6.078   6.109  15.227  0.00  0.00    +0.000 NA
ENDBRANCH   1  20
BRANCH  10  24
ATOM     24  C   UNL     1      -2.140  12.788  19.631  0.00  0.00    +0.000 C 
BRANCH  24  25
ATOM     25  C   UNL     1      -2.741  11.972  18.506  0.00  0.00    +0.000 A 
ATOM     26  C   UNL     1      -1.950  11.558  17.425  0.00  0.00    +0.000 A 
ATOM     27  C   UNL     1      -2.527  10.888  16.345  0.00  0.00    +0.000 A 
ATOM     28  C   UNL     1      -3.893  10.612  16.341  0.00  0.00    +0.000 A 
ATOM     29  C   UNL     1      -4.682  10.989  17.426  0.00  0.00    +0.000 A 
ATOM     30  C   UNL     1      -4.109  11.662  18.505  0.00  0.00    +0.000 A 
ENDBRANCH  24  25
ENDBRANCH  10  24
TORSDOF 3
ENDMDL
MODEL 3
REMARK VINA RESULT:      -8.7      2.650      9.928
REMARK  Name = 
REMARK  4 active torsions:
REMARK  status: ('A' for Active; 'I' for Inactive)
REMARK    1  A    between atoms: C_1  and  C_2
REMARK    2  A    between atoms: C_7  and  N_8
REMARK    3  A    between atoms: N_17  and  C_18
REMARK    4  A    between atoms: C_18  and  C_19
REMARK                            x       y       z     vdW  Elec       q    Type
REMARK                         _______ _______ _______ _____ _____    ______ ____
ROOT
ATOM      1  N   UNL     1       2.869   6.785  18.723  0.00  0.00    +0.000 N 
ATOM      2  C   UNL     1       2.213   7.959  18.422  0.00  0.00    +0.000 C 
ATOM      3  O   UNL     1       2.196   8.488  17.313  0.00  0.00    +0.000 OA
ATOM      4  N   UNL     1       1.566   8.558  19.482  0.00  0.00    +0.000 N 
ATOM      5  C   UNL     1       1.456   8.125  20.855  0.00  0.00    +0.000 C 
ATOM      6  C   UNL     1       0.281   8.915  21.405  0.00  0.00    +0.000 C 
ATOM      7  C   UNL     1       0.206  10.203  20.557  0.00  0.00    +0.000 C 
ATOM      8  C   UNL     1       0.626  11.452  21.339  0.00  0.00    +0.000 C 
ATOM      9  C   UNL     1      -0.213  12.565  20.738  0.00  0.00    +0.000 C 
ATOM     10  N   UNL     1      -1.496  11.917  20.473  0.00  0.00    +0.000 NA
ATOM     11  C   UNL     1      -1.220  10.528  20.077  0.00  0.00    +0.000 C 
ATOM     12  C   UNL     1       1.125   9.934  19.351  0.00  0.00    +0.000 C 
ATOM     13  H   UNL     1       2.889   6.544  19.700  0.00  0.00    +0.000 HD
ENDROOT
BRANCH   1  20
ATOM     14  C   UNL     1       7.429   4.783  13.552  0.00  0.00    +0.000 C 
ATOM     15  C   UNL     1       6.449   4.905  14.650  0.00  0.00    +0.000 A 
ATOM     16  N   UNL     1       5.886   3.803  15.229  0.00  0.00    +0.000 NA
ATOM     17  C   UNL     1       5.097   4.324  16.138  0.00  0.00    +0.000 A 
ATOM     18  C   UNL     1       4.228   3.733  17.087  0.00  0.00    +0.000 A 
ATOM     19  C   UNL     1       3.521   4.518  17.922  0.00  0.00    +0.000 A 
ATOM     20  C   UNL     1       3.612   5.978  17.885  0.00  0.00    +0.000 A 
ATOM     21  C   UNL     1       4.447   6.528  16.984  0.00  0.00    +0.000 A 
ATOM     22  N   UNL     1       5.180   5.715  16.116  0.00  0.00    +0.000 N 
ATOM     23  N   UNL     1       6.055   6.084  15.145  0.00  0.00    +0.000 NA
ENDBRANCH   1  20
BRANCH  10  24
ATOM     24  C   UNL     1      -2.285  12.657  19.474  0.00  0.00    +0.000 C 
BRANCH  24  25
ATOM     25  C   UNL     1      -3.767  12.350  19.537  0.00  0.00    +0.000 A 
ATOM     26  C   UNL     1      -4.515  12.675  20.678  0.00  0.00    +0.000 A 
ATOM     27  C   UNL     1      -5.858  12.306  20.771  0.00  0.00    +0.000 A 
ATOM     28  C   UNL     1      -6.469  11.622  19.721  0.00  0.00    +0.000 A 
ATOM     29  C   UNL     1      -5.745  11.323  18.569  0.00  0.00    +0.000 A 
ATOM     30  C   UNL     1      -4.402  11.688  18.475  0.00  0.00    +0.000 A 
ENDBRANCH  24  25
ENDBRANCH  10  24
TORSDOF 3
ENDMDL
MODEL 4
REMARK VINA RESULT:      -8.7      1.933      3.930
REMARK  Name = 
REMARK  4 active torsions:
REMARK  status: ('A' for Active; 'I' for Inactive)
REMARK    1  A    between atoms: C_1  and  C_2
REMARK    2  A    between atoms: C_7  and  N_8
REMARK    3  A    between atoms: N_17  and  C_18
REMARK    4  A    between atoms: C_18  and  C_19
REMARK                            x       y       z     vdW  Elec       q    Type
REMARK                         _______ _______ _______ _____ _____    ______ ____
ROOT
ATOM      1  N   UNL     1       0.878   8.101  21.254  0.00  0.00    +0.000 N 
ATOM      2  C   UNL     1       1.656   7.827  20.151  0.00  0.00    +0.000 C 
ATOM      3  O   UNL     1       2.019   8.661  19.324  0.00  0.00    +0.000 OA
ATOM      4  N   UNL     1       2.004   6.502  19.992  0.00  0.00    +0.000 N 
ATOM      5  C   UNL     1       1.693   5.365  20.825  0.00  0.00    +0.000 C 
ATOM      6  C   UNL     1       2.704   4.309  20.410  0.00  0.00    +0.000 C 
ATOM      7  C   UNL     1       3.089   4.644  18.953  0.00  0.00    +0.000 C 
ATOM      8  C   UNL     1       2.532   3.632  17.946  0.00  0.00    +0.000 C 
ATOM      9  C   UNL     1       3.568   3.605  16.838  0.00  0.00    +0.000 C 
ATOM     10  N   UNL     1       4.835   3.732  17.554  0.00  0.00    +0.000 NA
ATOM     11  C   UNL     1       4.609   4.614  18.708  0.00  0.00    +0.000 C 
ATOM     12  C   UNL     1       2.540   6.063  18.718  0.00  0.00    +0.000 C 
ATOM     13  H   UNL     1       0.566   7.294  21.770  0.00  0.00    +0.000 HD
ENDROOT
BRANCH   1  20
ATOM     14  C   UNL     1      -0.314  15.173  21.592  0.00  0.00    +0.000 C 
ATOM     15  C   UNL     1      -0.256  13.706  21.750  0.00  0.00    +0.000 A 
ATOM     16  N   UNL     1      -0.974  13.063  22.718  0.00  0.00    +0.000 NA
ATOM     17  C   UNL     1      -0.660  11.805  22.528  0.00  0.00    +0.000 A 
ATOM     18  C   UNL     1      -1.060  10.619  23.190  0.00  0.00    +0.000 A 
ATOM     19  C   UNL     1      -0.577   9.432  22.778  0.00  0.00    +0.000 A 
ATOM     20  C   UNL     1       0.362   9.315  21.661  0.00  0.00    +0.000 A 
ATOM     21  C   UNL     1       0.729  10.448  21.035  0.00  0.00    +0.000 A 
ATOM     22  N   UNL     1       0.230  11.681  21.462  0.00  0.00    +0.000 N 
ATOM     23  N   UNL     1       0.490  12.919  20.966  0.00  0.00    +0.000 NA
ENDBRANCH   1  20
BRANCH  10  24
ATOM     24  C   UNL     1       5.917   4.201  16.672  0.00  0.00    +0.000 C 
BRANCH  24  25
ATOM     25  C   UNL     1       6.747   5.312  17.281  0.00  0.00    +0.000 A 
ATOM     26  C   UNL     1       7.534   5.072  18.417  0.00  0.00    +0.000 A 
ATOM     27  C   UNL     1       8.223   6.118  19.032  0.00  0.00    +0.000 A 
ATOM     28  C   UNL     1       8.143   7.409  18.513  0.00  0.00    +0.000 A 
ATOM     29  C   UNL     1       7.391   7.653  17.366  0.00  0.00    +0.000 A 
ATOM     30  C   UNL     1       6.699   6.609  16.750  0.00  0.00    +0.000 A 
ENDBRANCH  24  25
ENDBRANCH  10  24
TORSDOF 3
ENDMDL
MODEL 5
REMARK VINA RESULT:      -8.5      1.163      1.497
REMARK  Name = 
REMARK  4 active torsions:
REMARK  status: ('A' for Active; 'I' for Inactive)
REMARK    1  A    between atoms: C_1  and  C_2
REMARK    2  A    between atoms: C_7  and  N_8
REMARK    3  A    between atoms: N_17  and  C_18
REMARK    4  A    between atoms: C_18  and  C_19
REMARK                            x       y       z     vdW  Elec       q    Type
REMARK                         _______ _______ _______ _____ _____    ______ ____
ROOT
ATOM      1  N   UNL     1       1.334   9.664  19.069  0.00  0.00    +0.000 N 
ATOM      2  C   UNL     1       1.632   8.361  19.405  0.00  0.00    +0.000 C 
ATOM      3  O   UNL     1       1.112   7.739  20.329  0.00  0.00    +0.000 OA
ATOM      4  N   UNL     1       2.610   7.766  18.636  0.00  0.00    +0.000 N 
ATOM      5  C   UNL     1       3.351   8.299  17.517  0.00  0.00    +0.000 C 
ATOM      6  C   UNL     1       3.914   7.072  16.822  0.00  0.00    +0.000 C 
ATOM      7  C   UNL     1       4.030   5.985  17.913  0.00  0.00    +0.000 C 
ATOM      8  C   UNL     1       5.483   5.683  18.296  0.00  0.00    +0.000 C 
ATOM      9  C   UNL     1       5.469   4.213  18.672  0.00  0.00    +0.000 C 
ATOM     10  N   UNL     1       4.528   3.629  17.719  0.00  0.00    +0.000 NA
ATOM     11  C   UNL     1       3.472   4.621  17.468  0.00  0.00    +0.000 C 
ATOM     12  C   UNL     1       3.216   6.533  19.100  0.00  0.00    +0.000 C 
ATOM     13  H   UNL     1       1.929  10.072  18.366  0.00  0.00    +0.000 HD
ENDROOT
BRANCH   1  20
ATOM     14  C   UNL     1      -1.661  14.079  23.873  0.00  0.00    +0.000 C 
ATOM     15  C   UNL     1      -1.294  13.215  22.733  0.00  0.00    +0.000 A 
ATOM     16  N   UNL     1      -2.136  13.037  21.673  0.00  0.00    +0.000 NA
ATOM     17  C   UNL     1      -1.459  12.226  20.896  0.00  0.00    +0.000 A 
ATOM     18  C   UNL     1      -1.760  11.649  19.638  0.00  0.00    +0.000 A 
ATOM     19  C   UNL     1      -0.864  10.838  19.047  0.00  0.00    +0.000 A 
ATOM     20  C   UNL     1       0.425  10.517  19.662  0.00  0.00    +0.000 A 
ATOM     21  C   UNL     1       0.703  11.076  20.854  0.00  0.00    +0.000 A 
ATOM     22  N   UNL     1      -0.227  11.918  21.470  0.00  0.00    +0.000 N 
ATOM     23  N   UNL     1      -0.129  12.560  22.663  0.00  0.00    +0.000 NA
ENDBRANCH   1  20
BRANCH  10  24
ATOM     24  C   UNL     1       4.005   2.335  18.192  0.00  0.00    +0.000 C 
BRANCH  24  25
ATOM     25  C   UNL     1       2.981   2.473  19.300  0.00  0.00    +0.000 A 
ATOM     26  C   UNL     1       1.617   2.597  18.998  0.00  0.00    +0.000 A 
ATOM     27  C   UNL     1       0.687   2.818  20.014  0.00  0.00    +0.000 A 
ATOM     28  C   UNL     1       1.107   2.905  21.341  0.00  0.00    +0.000 A 
ATOM     29  C   UNL     1       2.456   2.750  21.655  0.00  0.00    +0.000 A 
ATOM     30  C   UNL     1       3.388   2.532  20.641  0.00  0.00    +0.000 A 
ENDBRANCH  24  25
ENDBRANCH  10  24
TORSDOF 3
ENDMDL
MODEL 6
REMARK VINA RESULT:      -8.5      0.990      1.039
REMARK  Name = 
REMARK  4 active torsions:
REMARK  status: ('A' for Active; 'I' for Inactive)
REMARK    1  A    between atoms: C_1  and  C_2
REMARK    2  A    between atoms: C_7  and  N_8
REMARK    3  A    between atoms: N_17  and  C_18
REMARK    4  A    between atoms: C_18  and  C_19
REMARK                            x       y       z     vdW  Elec       q    Type
REMARK                         _______ _______ _______ _____ _____    ______ ____
ROOT
ATOM      1  N   UNL     1       1.229   9.663  19.312  0.00  0.00    +0.000 N 
ATOM      2  C   UNL     1       1.550   8.354  19.597  0.00  0.00    +0.000 C 
ATOM      3  O   UNL     1       1.064   7.697  20.515  0.00  0.00    +0.000 OA
ATOM      4  N   UNL     1       2.510   7.795  18.781  0.00  0.00    +0.000 N 
ATOM      5  C   UNL     1       3.211   8.371  17.657  0.00  0.00    +0.000 C 
ATOM      6  C   UNL     1       3.766   7.172  16.907  0.00  0.00    +0.000 C 
ATOM      7  C   UNL     1       3.925   6.053  17.958  0.00  0.00    +0.000 C 
ATOM      8  C   UNL     1       5.392   5.755  18.287  0.00  0.00    +0.000 C 
ATOM      9  C   UNL     1       5.404   4.274  18.616  0.00  0.00    +0.000 C 
ATOM     10  N   UNL     1       4.440   3.710  17.673  0.00  0.00    +0.000 NA
ATOM     11  C   UNL     1       3.368   4.698  17.486  0.00  0.00    +0.000 C 
ATOM     12  C   UNL     1       3.142   6.553  19.186  0.00  0.00    +0.000 C 
ATOM     13  H   UNL     1       1.798  10.100  18.605  0.00  0.00    +0.000 HD
ENDROOT
BRANCH   1  20
ATOM     14  C   UNL     1      -4.632  13.614  20.569  0.00  0.00    +0.000 C 
ATOM     15  C   UNL     1      -3.343  12.895  20.577  0.00  0.00    +0.000 A 
ATOM     16  N   UNL     1      -2.488  12.976  21.639  0.00  0.00    +0.000 NA
ATOM     17  C   UNL     1      -1.488  12.213  21.267  0.00  0.00    +0.000 A 
ATOM     18  C   UNL     1      -0.274  11.864  21.907  0.00  0.00    +0.000 A 
ATOM     19  C   UNL     1       0.592  11.041  21.288  0.00  0.00    +0.000 A 
ATOM     20  C   UNL     1       0.330  10.487  19.959  0.00  0.00    +0.000 A 
ATOM     21  C   UNL     1      -0.830  10.819  19.363  0.00  0.00    +0.000 A 
ATOM     22  N   UNL     1      -1.730  11.675  20.004  0.00  0.00    +0.000 N 
ATOM     23  N   UNL     1      -2.933  12.126  19.562  0.00  0.00    +0.000 NA
ENDBRANCH   1  20
BRANCH  10  24
ATOM     24  C   UNL     1       3.945   2.396  18.119  0.00  0.00    +0.000 C 
BRANCH  24  25
ATOM     25  C   UNL     1       2.953   2.488  19.261  0.00  0.00    +0.000 A 
ATOM     26  C   UNL     1       1.577   2.563  19.004  0.00  0.00    +0.000 A 
ATOM     27  C   UNL     1       0.672   2.741  20.052  0.00  0.00    +0.000 A 
ATOM     28  C   UNL     1       1.132   2.834  21.365  0.00  0.00    +0.000 A 
ATOM     29  C   UNL     1       2.494   2.727  21.635  0.00  0.00    +0.000 A 
ATOM     30  C   UNL     1       3.401   2.551  20.589  0.00  0.00    +0.000 A 
ENDBRANCH  24  25
ENDBRANCH  10  24
TORSDOF 3
ENDMDL
MODEL 7
REMARK VINA RESULT:      -8.4      1.765      3.837
REMARK  Name = 
REMARK  4 active torsions:
REMARK  status: ('A' for Active; 'I' for Inactive)
REMARK    1  A    between atoms: C_1  and  C_2
REMARK    2  A    between atoms: C_7  and  N_8
REMARK    3  A    between atoms: N_17  and  C_18
REMARK    4  A    between atoms: C_18  and  C_19
REMARK                            x       y       z     vdW  Elec       q    Type
REMARK                         _______ _______ _______ _____ _____    ______ ____
ROOT
ATOM      1  N   UNL     1       0.880   8.555  21.038  0.00  0.00    +0.000 N 
ATOM      2  C   UNL     1       1.635   8.147  19.960  0.00  0.00    +0.000 C 
ATOM      3  O   UNL     1       2.048   8.889  19.072  0.00  0.00    +0.000 OA
ATOM      4  N   UNL     1       1.896   6.794  19.906  0.00  0.00    +0.000 N 
ATOM      5  C   UNL     1       1.515   5.747  20.824  0.00  0.00    +0.000 C 
ATOM      6  C   UNL     1       2.453   4.599  20.493  0.00  0.00    +0.000 C 
ATOM      7  C   UNL     1       2.854   4.794  19.015  0.00  0.00    +0.000 C 
ATOM      8  C   UNL     1       2.229   3.745  18.089  0.00  0.00    +0.000 C 
ATOM      9  C   UNL     1       3.257   3.564  16.988  0.00  0.00    +0.000 C 
ATOM     10  N   UNL     1       4.533   3.664  17.694  0.00  0.00    +0.000 NA
ATOM     11  C   UNL     1       4.368   4.646  18.776  0.00  0.00    +0.000 C 
ATOM     12  C   UNL     1       2.397   6.223  18.670  0.00  0.00    +0.000 C 
ATOM     13  H   UNL     1       0.518   7.812  21.614  0.00  0.00    +0.000 HD
ENDROOT
BRANCH   1  20
ATOM     14  C   UNL     1      -2.940  13.865  23.998  0.00  0.00    +0.000 C 
ATOM     15  C   UNL     1      -2.014  12.991  23.250  0.00  0.00    +0.000 A 
ATOM     16  N   UNL     1      -1.082  13.506  22.394  0.00  0.00    +0.000 NA
ATOM     17  C   UNL     1      -0.474  12.434  21.945  0.00  0.00    +0.000 A 
ATOM     18  C   UNL     1       0.591  12.264  21.029  0.00  0.00    +0.000 A 
ATOM     19  C   UNL     1       1.033  11.025  20.744  0.00  0.00    +0.000 A 
ATOM     20  C   UNL     1       0.445   9.828  21.348  0.00  0.00    +0.000 A 
ATOM     21  C   UNL     1      -0.561  10.002  22.224  0.00  0.00    +0.000 A 
ATOM     22  N   UNL     1      -1.022  11.288  22.519  0.00  0.00    +0.000 N 
ATOM     23  N   UNL     1      -2.023  11.658  23.360  0.00  0.00    +0.000 NA
ENDBRANCH   1  20
BRANCH  10  24
ATOM     24  C   UNL     1       5.639   3.992  16.779  0.00  0.00    +0.000 C 
BRANCH  24  25
ATOM     25  C   UNL     1       6.506   5.131  17.274  0.00  0.00    +0.000 A 
ATOM     26  C   UNL     1       7.435   4.924  18.305  0.00  0.00    +0.000 A 
ATOM     27  C   UNL     1       8.165   5.994  18.823  0.00  0.00    +0.000 A 
ATOM     28  C   UNL     1       7.985   7.278  18.309  0.00  0.00    +0.000 A 
ATOM     29  C   UNL     1       7.090   7.489  17.262  0.00  0.00    +0.000 A 
ATOM     30  C   UNL     1       6.357   6.421  16.744  0.00  0.00    +0.000 A 
ENDBRANCH  24  25
ENDBRANCH  10  24
TORSDOF 3
ENDMDL
MODEL 8
REMARK VINA RESULT:      -8.4      2.348      9.950
REMARK  Name = 
REMARK  4 active torsions:
REMARK  status: ('A' for Active; 'I' for Inactive)
REMARK    1  A    between atoms: C_1  and  C_2
REMARK    2  A    between atoms: C_7  and  N_8
REMARK    3  A    between atoms: N_17  and  C_18
REMARK    4  A    between atoms: C_18  and  C_19
REMARK                            x       y       z     vdW  Elec       q    Type
REMARK                         _______ _______ _______ _____ _____    ______ ____
ROOT
ATOM      1  N   UNL     1       2.586   7.198  19.112  0.00  0.00    +0.000 N 
ATOM      2  C   UNL     1       1.848   8.313  18.783  0.00  0.00    +0.000 C 
ATOM      3  O   UNL     1       1.674   8.728  17.640  0.00  0.00    +0.000 OA
ATOM      4  N   UNL     1       1.307   8.995  19.854  0.00  0.00    +0.000 N 
ATOM      5  C   UNL     1       1.382   8.697  21.265  0.00  0.00    +0.000 C 
ATOM      6  C   UNL     1       0.247   9.501  21.877  0.00  0.00    +0.000 C 
ATOM      7  C   UNL     1       0.014  10.694  20.926  0.00  0.00    +0.000 C 
ATOM      8  C   UNL     1       0.469  12.028  21.528  0.00  0.00    +0.000 C 
ATOM      9  C   UNL     1      -0.485  13.047  20.932  0.00  0.00    +0.000 C 
ATOM     10  N   UNL     1      -1.760  12.335  20.891  0.00  0.00    +0.000 NA
ATOM     11  C   UNL     1      -1.473  10.923  20.598  0.00  0.00    +0.000 C 
ATOM     12  C   UNL     1       0.793  10.335  19.647  0.00  0.00    +0.000 C 
ATOM     13  H   UNL     1       2.734   7.056  20.098  0.00  0.00    +0.000 HD
ENDROOT
BRANCH   1  20
ATOM     14  C   UNL     1       7.106   4.827  14.062  0.00  0.00    +0.000 C 
ATOM     15  C   UNL     1       6.094   5.032  15.118  0.00  0.00    +0.000 A 
ATOM     16  N   UNL     1       5.360   3.992  15.614  0.00  0.00    +0.000 NA
ATOM     17  C   UNL     1       4.600   4.574  16.511  0.00  0.00    +0.000 A 
ATOM     18  C   UNL     1       3.612   4.065  17.388  0.00  0.00    +0.000 A 
ATOM     19  C   UNL     1       2.973   4.900  18.227  0.00  0.00    +0.000 A 
ATOM     20  C   UNL     1       3.259   6.335  18.269  0.00  0.00    +0.000 A 
ATOM     21  C   UNL     1       4.205   6.806  17.437  0.00  0.00    +0.000 A 
ATOM     22  N   UNL     1       4.868   5.941  16.563  0.00  0.00    +0.000 N 
ATOM     23  N   UNL     1       5.835   6.230  15.654  0.00  0.00    +0.000 NA
ENDBRANCH   1  20
BRANCH  10  24
ATOM     24  C   UNL     1      -2.696  12.946  19.931  0.00  0.00    +0.000 C 
BRANCH  24  25
ATOM     25  C   UNL     1      -4.148  12.654  20.245  0.00  0.00    +0.000 A 
ATOM     26  C   UNL     1      -5.016  12.196  19.243  0.00  0.00    +0.000 A 
ATOM     27  C   UNL     1      -6.374  12.018  19.511  0.00  0.00    +0.000 A 
ATOM     28  C   UNL     1      -6.875  12.283  20.785  0.00  0.00    +0.000 A 
ATOM     29  C   UNL     1      -6.017  12.706  21.797  0.00  0.00    +0.000 A 
ATOM     30  C   UNL     1      -4.660  12.887  21.531  0.00  0.00    +0.000 A 
ENDBRANCH  24  25
ENDBRANCH  10  24
TORSDOF 3
ENDMDL
MODEL 9
REMARK VINA RESULT:      -8.4      2.695      9.941
REMARK  Name = 
REMARK  4 active torsions:
REMARK  status: ('A' for Active; 'I' for Inactive)
REMARK    1  A    between atoms: C_1  and  C_2
REMARK    2  A    between atoms: C_7  and  N_8
REMARK    3  A    between atoms: N_17  and  C_18
REMARK    4  A    between atoms: C_18  and  C_19
REMARK                            x       y       z     vdW  Elec       q    Type
REMARK                         _______ _______ _______ _____ _____    ______ ____
ROOT
ATOM      1  N   UNL     1       0.604   9.803  20.413  0.00  0.00    +0.000 N 
ATOM      2  C   UNL     1      -0.542  10.455  20.016  0.00  0.00    +0.000 C 
ATOM      3  O   UNL     1      -1.102  10.294  18.934  0.00  0.00    +0.000 OA
ATOM      4  N   UNL     1      -1.043  11.365  20.923  0.00  0.00    +0.000 N 
ATOM      5  C   UNL     1      -0.556  11.717  22.236  0.00  0.00    +0.000 C 
ATOM      6  C   UNL     1      -1.740  12.394  22.906  0.00  0.00    +0.000 C 
ATOM      7  C   UNL     1      -2.595  12.978  21.760  0.00  0.00    +0.000 C 
ATOM      8  C   UNL     1      -2.535  14.508  21.699  0.00  0.00    +0.000 C 
ATOM      9  C   UNL     1      -3.900  14.911  21.172  0.00  0.00    +0.000 C 
ATOM     10  N   UNL     1      -4.804  13.955  21.808  0.00  0.00    +0.000 NA
ATOM     11  C   UNL     1      -4.096  12.671  21.910  0.00  0.00    +0.000 C 
ATOM     12  C   UNL     1      -2.041  12.321  20.482  0.00  0.00    +0.000 C 
ATOM     13  H   UNL     1       1.007  10.130  21.276  0.00  0.00    +0.000 HD
ENDROOT
BRANCH   1  20
ATOM     14  C   UNL     1       4.238   3.783  18.961  0.00  0.00    +0.000 C 
ATOM     15  C   UNL     1       3.564   5.097  18.985  0.00  0.00    +0.000 A 
ATOM     16  N   UNL     1       3.585   5.928  17.901  0.00  0.00    +0.000 NA
ATOM     17  C   UNL     1       2.890   6.961  18.313  0.00  0.00    +0.000 A 
ATOM     18  C   UNL     1       2.530   8.174  17.678  0.00  0.00    +0.000 A 
ATOM     19  C   UNL     1       1.791   9.080  18.343  0.00  0.00    +0.000 A 
ATOM     20  C   UNL     1       1.341   8.863  19.719  0.00  0.00    +0.000 A 
ATOM     21  C   UNL     1       1.682   7.703  20.311  0.00  0.00    +0.000 A 
ATOM     22  N   UNL     1       2.451   6.762  19.621  0.00  0.00    +0.000 N 
ATOM     23  N   UNL     1       2.897   5.552  20.051  0.00  0.00    +0.000 NA
ENDBRANCH   1  20
BRANCH  10  24
ATOM     24  C   UNL     1      -6.085  13.853  21.088  0.00  0.00    +0.000 C 
BRANCH  24  25
ATOM     25  C   UNL     1      -6.269  12.526  20.380  0.00  0.00    +0.000 A 
ATOM     26  C   UNL     1      -5.665  12.293  19.136  0.00  0.00    +0.000 A 
ATOM     27  C   UNL     1      -5.912  11.108  18.442  0.00  0.00    +0.000 A 
ATOM     28  C   UNL     1      -6.752  10.139  18.990  0.00  0.00    +0.000 A 
ATOM     29  C   UNL     1      -7.330  10.346  20.241  0.00  0.00    +0.000 A 
ATOM     30  C   UNL     1      -7.088  11.531  20.934  0.00  0.00    +0.000 A 
ENDBRANCH  24  25
ENDBRANCH  10  24
TORSDOF 3
ENDMDL
