MODEL 1
REMARK VINA RESULT:      -9.2      0.000      0.000
REMARK  Name = 
REMARK  3 active torsions:
REMARK  status: ('A' for Active; 'I' for Inactive)
REMARK    1  A    between atoms: C_2  and  C_17
REMARK    2  A    between atoms: C_6  and  C_7
REMARK    3  A    between atoms: C_21  and  N_22
REMARK                            x       y       z     vdW  Elec       q    Type
REMARK                         _______ _______ _______ _____ _____    ______ ____
ROOT
ATOM      1  O   UNL     1       2.299   9.522  17.367  0.00  0.00    +0.000 OA
ATOM      2  C   UNL     1       1.640   9.515  18.400  0.00  0.00    +0.000 C 
ATOM      3  N   UNL     1       1.615   8.539  19.370  0.00  0.00    +0.000 N 
ATOM      4  C   UNL     1       2.362   7.400  19.254  0.00  0.00    +0.000 A 
ATOM      5  N   UNL     1       3.310   7.116  18.402  0.00  0.00    +0.000 NA
ATOM      6  C   UNL     1       3.777   5.832  18.625  0.00  0.00    +0.000 A 
ATOM      7  C   UNL     1       3.116   5.150  19.630  0.00  0.00    +0.000 A 
ATOM      8  S   UNL     1       1.960   6.180  20.375  0.00  0.00    +0.000 S 
ATOM      9  H   UNL     1       0.944   8.560  20.123  0.00  0.00    +0.000 HD
ENDROOT
BRANCH   6  10
ATOM     10  C   UNL     1       4.861   5.293  17.812  0.00  0.00    +0.000 A 
ATOM     11  C   UNL     1       4.600   4.923  16.484  0.00  0.00    +0.000 A 
ATOM     12  C   UNL     1       5.624   4.422  15.684  0.00  0.00    +0.000 A 
ATOM     13  F   UNL     1       5.362   4.072  14.418  0.00  0.00    +0.000 F 
ATOM     14  C   UNL     1       6.918   4.286  16.172  0.00  0.00    +0.000 A 
ATOM     15  C   UNL     1       7.194   4.657  17.485  0.00  0.00    +0.000 A 
ATOM     16  C   UNL     1       6.170   5.157  18.292  0.00  0.00    +0.000 A 
ATOM     17  F   UNL     1       6.491   5.524  19.542  0.00  0.00    +0.000 F 
ENDBRANCH   6  10
BRANCH   2  18
ATOM     18  C   UNL     1       0.682  10.629  18.618  0.00  0.00    +0.000 A 
ATOM     19  C   UNL     1       1.165  11.813  19.177  0.00  0.00    +0.000 A 
ATOM     20  C   UNL     1       0.305  12.886  19.367  0.00  0.00    +0.000 A 
ATOM     21  C   UNL     1      -1.039  12.780  18.995  0.00  0.00    +0.000 A 
ATOM     22  C   UNL     1      -1.556  11.604  18.424  0.00  0.00    +0.000 A 
ATOM     23  C   UNL     1      -0.675  10.521  18.268  0.00  0.00    +0.000 A 
BRANCH  22  24
ATOM     24  N   UNL     1      -2.913  11.533  17.973  0.00  0.00    +0.000 N 
ATOM     25  C   UNL     1      -4.009  11.860  18.736  0.00  0.00    +0.000 C 
ATOM     26  O   UNL     1      -4.066  12.146  19.926  0.00  0.00    +0.000 OA
ATOM     27  C   UNL     1      -5.244  11.800  17.893  0.00  0.00    +0.000 C 
ATOM     28  C   UNL     1      -4.770  11.303  16.551  0.00  0.00    +0.000 C 
ATOM     29  C   UNL     1      -3.282  11.190  16.690  0.00  0.00    +0.000 C 
ATOM     30  O   UNL     1      -2.573  10.877  15.741  0.00  0.00    +0.000 OA
ENDBRANCH  22  24
ENDBRANCH   2  18
TORSDOF 3
ENDMDL
MODEL 2
REMARK VINA RESULT:      -9.1      2.366      3.291
REMARK  Name = 
REMARK  3 active torsions:
REMARK  status: ('A' for Active; 'I' for Inactive)
REMARK    1  A    between atoms: C_2  and  C_17
REMARK    2  A    between atoms: C_6  and  C_7
REMARK    3  A    between atoms: C_21  and  N_22
REMARK                            x       y       z     vdW  Elec       q    Type
REMARK                         _______ _______ _______ _____ _____    ______ ____
ROOT
ATOM      1  O   UNL     1       2.431   8.447  18.720  0.00  0.00    +0.000 OA
ATOM      2  C   UNL     1       1.973   8.025  19.775  0.00  0.00    +0.000 C 
ATOM      3  N   UNL     1       2.151   6.776  20.324  0.00  0.00    +0.000 N 
ATOM      4  C   UNL     1       2.890   5.817  19.690  0.00  0.00    +0.000 A 
ATOM      5  N   UNL     1       3.671   5.930  18.649  0.00  0.00    +0.000 NA
ATOM      6  C   UNL     1       4.202   4.694  18.321  0.00  0.00    +0.000 A 
ATOM      7  C   UNL     1       3.753   3.651  19.111  0.00  0.00    +0.000 A 
ATOM      8  S   UNL     1       2.730   4.255  20.353  0.00  0.00    +0.000 S 
ATOM      9  H   UNL     1       1.628   6.476  21.134  0.00  0.00    +0.000 HD
ENDROOT
BRANCH   6  10
ATOM     10  C   UNL     1       5.130   4.566  17.204  0.00  0.00    +0.000 A 
ATOM     11  C   UNL     1       4.620   4.389  15.909  0.00  0.00    +0.000 A 
ATOM     12  C   UNL     1       5.488   4.282  14.825  0.00  0.00    +0.000 A 
ATOM     13  F   UNL     1       4.989   4.112  13.593  0.00  0.00    +0.000 F 
ATOM     14  C   UNL     1       6.865   4.356  14.994  0.00  0.00    +0.000 A 
ATOM     15  C   UNL     1       7.386   4.541  16.272  0.00  0.00    +0.000 A 
ATOM     16  C   UNL     1       6.520   4.646  17.363  0.00  0.00    +0.000 A 
ATOM     17  F   UNL     1       7.068   4.847  18.571  0.00  0.00    +0.000 F 
ENDBRANCH   6  10
BRANCH   2  18
ATOM     18  C   UNL     1       1.046   8.907  20.529  0.00  0.00    +0.000 A 
ATOM     19  C   UNL     1       0.380   8.372  21.633  0.00  0.00    +0.000 A 
ATOM     20  C   UNL     1      -0.471   9.175  22.380  0.00  0.00    +0.000 A 
ATOM     21  C   UNL     1      -0.655  10.516  22.029  0.00  0.00    +0.000 A 
ATOM     22  C   UNL     1       0.004  11.087  20.927  0.00  0.00    +0.000 A 
ATOM     23  C   UNL     1       0.838  10.249  20.168  0.00  0.00    +0.000 A 
BRANCH  22  24
ATOM     24  N   UNL     1      -0.128  12.480  20.624  0.00  0.00    +0.000 N 
ATOM     25  C   UNL     1       0.824  13.434  20.901  0.00  0.00    +0.000 C 
ATOM     26  O   UNL     1       1.867  13.326  21.533  0.00  0.00    +0.000 OA
ATOM     27  C   UNL     1       0.401  14.747  20.319  0.00  0.00    +0.000 C 
ATOM     28  C   UNL     1      -0.966  14.490  19.740  0.00  0.00    +0.000 C 
ATOM     29  C   UNL     1      -1.203  13.026  19.957  0.00  0.00    +0.000 C 
ATOM     30  O   UNL     1      -2.209  12.471  19.529  0.00  0.00    +0.000 OA
ENDBRANCH  22  24
ENDBRANCH   2  18
TORSDOF 3
ENDMDL
MODEL 3
REMARK VINA RESULT:      -9.1      0.153      1.416
REMARK  Name = 
REMARK  3 active torsions:
REMARK  status: ('A' for Active; 'I' for Inactive)
REMARK    1  A    between atoms: C_2  and  C_17
REMARK    2  A    between atoms: C_6  and  C_7
REMARK    3  A    between atoms: C_21  and  N_22
REMARK                            x       y       z     vdW  Elec       q    Type
REMARK                         _______ _______ _______ _____ _____    ______ ____
ROOT
ATOM      1  O   UNL     1       2.287   9.483  17.465  0.00  0.00    +0.000 OA
ATOM      2  C   UNL     1       1.637   9.437  18.502  0.00  0.00    +0.000 C 
ATOM      3  N   UNL     1       1.629   8.431  19.440  0.00  0.00    +0.000 N 
ATOM      4  C   UNL     1       2.385   7.303  19.282  0.00  0.00    +0.000 A 
ATOM      5  N   UNL     1       3.329   7.055  18.414  0.00  0.00    +0.000 NA
ATOM      6  C   UNL     1       3.809   5.769  18.592  0.00  0.00    +0.000 A 
ATOM      7  C   UNL     1       3.162   5.049  19.580  0.00  0.00    +0.000 A 
ATOM      8  S   UNL     1       2.003   6.044  20.367  0.00  0.00    +0.000 S 
ATOM      9  H   UNL     1       0.963   8.421  20.199  0.00  0.00    +0.000 HD
ENDROOT
BRANCH   6  10
ATOM     10  C   UNL     1       4.892   5.267  17.754  0.00  0.00    +0.000 A 
ATOM     11  C   UNL     1       4.619   4.917  16.423  0.00  0.00    +0.000 A 
ATOM     12  C   UNL     1       5.641   4.452  15.599  0.00  0.00    +0.000 A 
ATOM     13  F   UNL     1       5.368   4.120  14.330  0.00  0.00    +0.000 F 
ATOM     14  C   UNL     1       6.944   4.331  16.066  0.00  0.00    +0.000 A 
ATOM     15  C   UNL     1       7.232   4.683  17.382  0.00  0.00    +0.000 A 
ATOM     16  C   UNL     1       6.210   5.147  18.213  0.00  0.00    +0.000 A 
ATOM     17  F   UNL     1       6.541   5.496  19.465  0.00  0.00    +0.000 F 
ENDBRANCH   6  10
BRANCH   2  18
ATOM     18  C   UNL     1       0.670  10.534  18.763  0.00  0.00    +0.000 A 
ATOM     19  C   UNL     1       1.118  11.652  19.470  0.00  0.00    +0.000 A 
ATOM     20  C   UNL     1       0.250  12.710  19.705  0.00  0.00    +0.000 A 
ATOM     21  C   UNL     1      -1.064  12.656  19.232  0.00  0.00    +0.000 A 
ATOM     22  C   UNL     1      -1.545  11.548  18.513  0.00  0.00    +0.000 A 
ATOM     23  C   UNL     1      -0.659  10.476  18.311  0.00  0.00    +0.000 A 
BRANCH  22  24
ATOM     24  N   UNL     1      -2.866  11.538  17.963  0.00  0.00    +0.000 N 
ATOM     25  C   UNL     1      -3.179  11.137  16.685  0.00  0.00    +0.000 C 
ATOM     26  O   UNL     1      -2.430  10.838  15.763  0.00  0.00    +0.000 OA
ATOM     27  C   UNL     1      -4.666  11.127  16.511  0.00  0.00    +0.000 C 
ATOM     28  C   UNL     1      -5.209  11.663  17.811  0.00  0.00    +0.000 C 
ATOM     29  C   UNL     1      -4.000  11.869  18.674  0.00  0.00    +0.000 C 
ATOM     30  O   UNL     1      -4.102  12.233  19.839  0.00  0.00    +0.000 OA
ENDBRANCH  22  24
ENDBRANCH   2  18
TORSDOF 3
ENDMDL
MODEL 4
REMARK VINA RESULT:      -9.1      2.372      3.329
REMARK  Name = 
REMARK  3 active torsions:
REMARK  status: ('A' for Active; 'I' for Inactive)
REMARK    1  A    between atoms: C_2  and  C_17
REMARK    2  A    between atoms: C_6  and  C_7
REMARK    3  A    between atoms: C_21  and  N_22
REMARK                            x       y       z     vdW  Elec       q    Type
REMARK                         _______ _______ _______ _____ _____    ______ ____
ROOT
ATOM      1  O   UNL     1       2.410   8.468  18.724  0.00  0.00    +0.000 OA
ATOM      2  C   UNL     1       1.939   8.039  19.771  0.00  0.00    +0.000 C 
ATOM      3  N   UNL     1       2.104   6.784  20.311  0.00  0.00    +0.000 N 
ATOM      4  C   UNL     1       2.843   5.827  19.675  0.00  0.00    +0.000 A 
ATOM      5  N   UNL     1       3.636   5.944  18.643  0.00  0.00    +0.000 NA
ATOM      6  C   UNL     1       4.162   4.708  18.309  0.00  0.00    +0.000 A 
ATOM      7  C   UNL     1       3.699   3.661  19.085  0.00  0.00    +0.000 A 
ATOM      8  S   UNL     1       2.668   4.259  20.322  0.00  0.00    +0.000 S 
ATOM      9  H   UNL     1       1.572   6.480  21.113  0.00  0.00    +0.000 HD
ENDROOT
BRANCH   6  10
ATOM     10  C   UNL     1       5.101   4.584  17.200  0.00  0.00    +0.000 A 
ATOM     11  C   UNL     1       4.604   4.384  15.903  0.00  0.00    +0.000 A 
ATOM     12  C   UNL     1       5.480   4.281  14.826  0.00  0.00    +0.000 A 
ATOM     13  F   UNL     1       4.994   4.089  13.593  0.00  0.00    +0.000 F 
ATOM     14  C   UNL     1       6.855   4.382  15.005  0.00  0.00    +0.000 A 
ATOM     15  C   UNL     1       7.363   4.590  16.284  0.00  0.00    +0.000 A 
ATOM     16  C   UNL     1       6.488   4.691  17.368  0.00  0.00    +0.000 A 
ATOM     17  F   UNL     1       7.023   4.915  18.577  0.00  0.00    +0.000 F 
ENDBRANCH   6  10
BRANCH   2  18
ATOM     18  C   UNL     1       1.010   8.919  20.525  0.00  0.00    +0.000 A 
ATOM     19  C   UNL     1       0.341   8.382  21.626  0.00  0.00    +0.000 A 
ATOM     20  C   UNL     1      -0.512   9.184  22.371  0.00  0.00    +0.000 A 
ATOM     21  C   UNL     1      -0.696  10.526  22.022  0.00  0.00    +0.000 A 
ATOM     22  C   UNL     1      -0.033  11.099  20.923  0.00  0.00    +0.000 A 
ATOM     23  C   UNL     1       0.803  10.262  20.165  0.00  0.00    +0.000 A 
BRANCH  22  24
ATOM     24  N   UNL     1      -0.165  12.492  20.622  0.00  0.00    +0.000 N 
ATOM     25  C   UNL     1      -1.273  13.066  20.044  0.00  0.00    +0.000 C 
ATOM     26  O   UNL     1      -2.270  12.527  19.580  0.00  0.00    +0.000 OA
ATOM     27  C   UNL     1      -1.109  14.554  20.011  0.00  0.00    +0.000 C 
ATOM     28  C   UNL     1       0.275  14.800  20.554  0.00  0.00    +0.000 C 
ATOM     29  C   UNL     1       0.782  13.442  20.938  0.00  0.00    +0.000 C 
ATOM     30  O   UNL     1       1.867  13.297  21.487  0.00  0.00    +0.000 OA
ENDBRANCH  22  24
ENDBRANCH   2  18
TORSDOF 3
ENDMDL
MODEL 5
REMARK VINA RESULT:      -9.0      4.149      9.903
REMARK  Name = 
REMARK  3 active torsions:
REMARK  status: ('A' for Active; 'I' for Inactive)
REMARK    1  A    between atoms: C_2  and  C_17
REMARK    2  A    between atoms: C_6  and  C_7
REMARK    3  A    between atoms: C_21  and  N_22
REMARK                            x       y       z     vdW  Elec       q    Type
REMARK                         _______ _______ _______ _____ _____    ______ ____
ROOT
ATOM      1  O   UNL     1       0.599   7.046  21.252  0.00  0.00    +0.000 OA
ATOM      2  C   UNL     1       1.512   7.102  20.436  0.00  0.00    +0.000 C 
ATOM      3  N   UNL     1       1.855   8.167  19.636  0.00  0.00    +0.000 N 
ATOM      4  C   UNL     1       1.148   9.337  19.665  0.00  0.00    +0.000 A 
ATOM      5  N   UNL     1       0.231   9.728  20.509  0.00  0.00    +0.000 NA
ATOM      6  C   UNL     1      -0.246  10.975  20.144  0.00  0.00    +0.000 A 
ATOM      7  C   UNL     1       0.302  11.478  18.978  0.00  0.00    +0.000 A 
ATOM      8  S   UNL     1       1.512  10.409  18.390  0.00  0.00    +0.000 S 
ATOM      9  H   UNL     1       2.541   8.077  18.901  0.00  0.00    +0.000 HD
ENDROOT
BRANCH   6  10
ATOM     10  C   UNL     1      -1.263  11.638  20.952  0.00  0.00    +0.000 A 
ATOM     11  C   UNL     1      -2.294  12.341  20.309  0.00  0.00    +0.000 A 
ATOM     12  C   UNL     1      -3.286  12.967  21.060  0.00  0.00    +0.000 A 
ATOM     13  F   UNL     1      -4.265  13.635  20.435  0.00  0.00    +0.000 F 
ATOM     14  C   UNL     1      -3.286  12.905  22.448  0.00  0.00    +0.000 A 
ATOM     15  C   UNL     1      -2.275  12.204  23.099  0.00  0.00    +0.000 A 
ATOM     16  C   UNL     1      -1.276  11.577  22.351  0.00  0.00    +0.000 A 
ATOM     17  F   UNL     1      -0.337  10.894  23.023  0.00  0.00    +0.000 F 
ENDBRANCH   6  10
BRANCH   2  18
ATOM     18  C   UNL     1       2.303   5.868  20.196  0.00  0.00    +0.000 A 
ATOM     19  C   UNL     1       1.823   4.665  20.718  0.00  0.00    +0.000 A 
ATOM     20  C   UNL     1       2.520   3.487  20.487  0.00  0.00    +0.000 A 
ATOM     21  C   UNL     1       3.696   3.507  19.731  0.00  0.00    +0.000 A 
ATOM     22  C   UNL     1       4.203   4.699  19.186  0.00  0.00    +0.000 A 
ATOM     23  C   UNL     1       3.498   5.884  19.456  0.00  0.00    +0.000 A 
BRANCH  22  24
ATOM     24  N   UNL     1       5.362   4.695  18.346  0.00  0.00    +0.000 N 
ATOM     25  C   UNL     1       6.641   4.964  18.776  0.00  0.00    +0.000 C 
ATOM     26  O   UNL     1       7.022   5.356  19.872  0.00  0.00    +0.000 OA
ATOM     27  C   UNL     1       7.606   4.730  17.657  0.00  0.00    +0.000 C 
ATOM     28  C   UNL     1       6.744   4.381  16.471  0.00  0.00    +0.000 C 
ATOM     29  C   UNL     1       5.345   4.357  17.010  0.00  0.00    +0.000 C 
ATOM     30  O   UNL     1       4.396   4.029  16.309  0.00  0.00    +0.000 OA
ENDBRANCH  22  24
ENDBRANCH   2  18
TORSDOF 3
ENDMDL
MODEL 6
REMARK VINA RESULT:      -9.0      4.463      9.959
REMARK  Name = 
REMARK  3 active torsions:
REMARK  status: ('A' for Active; 'I' for Inactive)
REMARK    1  A    between atoms: C_2  and  C_17
REMARK    2  A    between atoms: C_6  and  C_7
REMARK    3  A    between atoms: C_21  and  N_22
REMARK                            x       y       z     vdW  Elec       q    Type
REMARK                         _______ _______ _______ _____ _____    ______ ____
ROOT
ATOM      1  O   UNL     1       1.145   7.418  21.538  0.00  0.00    +0.000 OA
ATOM      2  C   UNL     1       1.725   7.338  20.462  0.00  0.00    +0.000 C 
ATOM      3  N   UNL     1       1.829   8.311  19.493  0.00  0.00    +0.000 N 
ATOM      4  C   UNL     1       1.238   9.534  19.645  0.00  0.00    +0.000 A 
ATOM      5  N   UNL     1       0.689  10.060  20.707  0.00  0.00    +0.000 NA
ATOM      6  C   UNL     1       0.183  11.313  20.405  0.00  0.00    +0.000 A 
ATOM      7  C   UNL     1       0.323  11.682  19.079  0.00  0.00    +0.000 A 
ATOM      8  S   UNL     1       1.200  10.476  18.225  0.00  0.00    +0.000 S 
ATOM      9  H   UNL     1       2.216   8.110  18.583  0.00  0.00    +0.000 HD
ENDROOT
BRANCH   6  10
ATOM     10  C   UNL     1      -0.459  12.115  21.439  0.00  0.00    +0.000 A 
ATOM     11  C   UNL     1      -1.532  11.569  22.161  0.00  0.00    +0.000 A 
ATOM     12  C   UNL     1      -2.148  12.310  23.165  0.00  0.00    +0.000 A 
ATOM     13  F   UNL     1      -3.172  11.779  23.845  0.00  0.00    +0.000 F 
ATOM     14  C   UNL     1      -1.716  13.593  23.483  0.00  0.00    +0.000 A 
ATOM     15  C   UNL     1      -0.647  14.144  22.782  0.00  0.00    +0.000 A 
ATOM     16  C   UNL     1      -0.027  13.406  21.772  0.00  0.00    +0.000 A 
ATOM     17  F   UNL     1       1.014  13.971  21.142  0.00  0.00    +0.000 F 
ENDBRANCH   6  10
BRANCH   2  18
ATOM     18  C   UNL     1       2.319   6.029  20.090  0.00  0.00    +0.000 A 
ATOM     19  C   UNL     1       1.614   4.869  20.418  0.00  0.00    +0.000 A 
ATOM     20  C   UNL     1       2.124   3.629  20.059  0.00  0.00    +0.000 A 
ATOM     21  C   UNL     1       3.336   3.544  19.367  0.00  0.00    +0.000 A 
ATOM     22  C   UNL     1       4.068   4.692  19.016  0.00  0.00    +0.000 A 
ATOM     23  C   UNL     1       3.548   5.935  19.415  0.00  0.00    +0.000 A 
BRANCH  22  24
ATOM     24  N   UNL     1       5.265   4.599  18.238  0.00  0.00    +0.000 N 
ATOM     25  C   UNL     1       5.304   4.295  16.897  0.00  0.00    +0.000 C 
ATOM     26  O   UNL     1       4.395   3.942  16.157  0.00  0.00    +0.000 OA
ATOM     27  C   UNL     1       6.708   4.425  16.393  0.00  0.00    +0.000 C 
ATOM     28  C   UNL     1       7.526   4.753  17.615  0.00  0.00    +0.000 C 
ATOM     29  C   UNL     1       6.525   4.868  18.726  0.00  0.00    +0.000 C 
ATOM     30  O   UNL     1       6.860   5.203  19.856  0.00  0.00    +0.000 OA
ENDBRANCH  22  24
ENDBRANCH   2  18
TORSDOF 3
ENDMDL
MODEL 7
REMARK VINA RESULT:      -9.0      4.140      9.944
REMARK  Name = 
REMARK  3 active torsions:
REMARK  status: ('A' for Active; 'I' for Inactive)
REMARK    1  A    between atoms: C_2  and  C_17
REMARK    2  A    between atoms: C_6  and  C_7
REMARK    3  A    between atoms: C_21  and  N_22
REMARK                            x       y       z     vdW  Elec       q    Type
REMARK                         _______ _______ _______ _____ _____    ______ ____
ROOT
ATOM      1  O   UNL     1       0.636   7.011  21.272  0.00  0.00    +0.000 OA
ATOM      2  C   UNL     1       1.541   7.047  20.446  0.00  0.00    +0.000 C 
ATOM      3  N   UNL     1       1.879   8.095  19.621  0.00  0.00    +0.000 N 
ATOM      4  C   UNL     1       1.177   9.268  19.634  0.00  0.00    +0.000 A 
ATOM      5  N   UNL     1       0.271   9.679  20.480  0.00  0.00    +0.000 NA
ATOM      6  C   UNL     1      -0.205  10.921  20.096  0.00  0.00    +0.000 A 
ATOM      7  C   UNL     1       0.332  11.398  18.914  0.00  0.00    +0.000 A 
ATOM      8  S   UNL     1       1.532  10.313  18.335  0.00  0.00    +0.000 S 
ATOM      9  H   UNL     1       2.557   7.987  18.881  0.00  0.00    +0.000 HD
ENDROOT
BRANCH   6  10
ATOM     10  C   UNL     1      -1.210  11.604  20.901  0.00  0.00    +0.000 A 
ATOM     11  C   UNL     1      -2.242  12.304  20.256  0.00  0.00    +0.000 A 
ATOM     12  C   UNL     1      -3.224  12.949  21.004  0.00  0.00    +0.000 A 
ATOM     13  F   UNL     1      -4.202  13.614  20.378  0.00  0.00    +0.000 F 
ATOM     14  C   UNL     1      -3.212  12.909  22.394  0.00  0.00    +0.000 A 
ATOM     15  C   UNL     1      -2.201  12.211  23.048  0.00  0.00    +0.000 A 
ATOM     16  C   UNL     1      -1.212  11.565  22.301  0.00  0.00    +0.000 A 
ATOM     17  F   UNL     1      -0.273  10.886  22.976  0.00  0.00    +0.000 F 
ENDBRANCH   6  10
BRANCH   2  18
ATOM     18  C   UNL     1       2.324   5.805  20.222  0.00  0.00    +0.000 A 
ATOM     19  C   UNL     1       1.844   4.615  20.771  0.00  0.00    +0.000 A 
ATOM     20  C   UNL     1       2.534   3.430  20.556  0.00  0.00    +0.000 A 
ATOM     21  C   UNL     1       3.702   3.430  19.788  0.00  0.00    +0.000 A 
ATOM     22  C   UNL     1       4.210   4.609  19.216  0.00  0.00    +0.000 A 
ATOM     23  C   UNL     1       3.512   5.802  19.470  0.00  0.00    +0.000 A 
BRANCH  22  24
ATOM     24  N   UNL     1       5.360   4.585  18.364  0.00  0.00    +0.000 N 
ATOM     25  C   UNL     1       5.335   4.273  17.025  0.00  0.00    +0.000 C 
ATOM     26  O   UNL     1       4.405   3.859  16.344  0.00  0.00    +0.000 OA
ATOM     27  C   UNL     1       6.694   4.487  16.435  0.00  0.00    +0.000 C 
ATOM     28  C   UNL     1       7.564   4.874  17.602  0.00  0.00    +0.000 C 
ATOM     29  C   UNL     1       6.629   4.935  18.772  0.00  0.00    +0.000 C 
ATOM     30  O   UNL     1       7.011   5.299  19.878  0.00  0.00    +0.000 OA
ENDBRANCH  22  24
ENDBRANCH   2  18
TORSDOF 3
ENDMDL
MODEL 8
REMARK VINA RESULT:      -9.0      1.972      3.232
REMARK  Name = 
REMARK  3 active torsions:
REMARK  status: ('A' for Active; 'I' for Inactive)
REMARK    1  A    between atoms: C_2  and  C_17
REMARK    2  A    between atoms: C_6  and  C_7
REMARK    3  A    between atoms: C_21  and  N_22
REMARK                            x       y       z     vdW  Elec       q    Type
REMARK                         _______ _______ _______ _____ _____    ______ ____
ROOT
ATOM      1  O   UNL     1       2.046   9.173  17.449  0.00  0.00    +0.000 OA
ATOM      2  C   UNL     1       1.403   9.104  18.490  0.00  0.00    +0.000 C 
ATOM      3  N   UNL     1       1.490   8.135  19.464  0.00  0.00    +0.000 N 
ATOM      4  C   UNL     1       2.348   7.079  19.344  0.00  0.00    +0.000 A 
ATOM      5  N   UNL     1       3.311   6.890  18.482  0.00  0.00    +0.000 NA
ATOM      6  C   UNL     1       3.911   5.662  18.704  0.00  0.00    +0.000 A 
ATOM      7  C   UNL     1       3.334   4.920  19.719  0.00  0.00    +0.000 A 
ATOM      8  S   UNL     1       2.087   5.830  20.474  0.00  0.00    +0.000 S 
ATOM      9  H   UNL     1       0.828   8.091  20.224  0.00  0.00    +0.000 HD
ENDROOT
BRANCH   6  10
ATOM     10  C   UNL     1       5.035   5.233  17.881  0.00  0.00    +0.000 A 
ATOM     11  C   UNL     1       4.813   4.916  16.532  0.00  0.00    +0.000 A 
ATOM     12  C   UNL     1       5.875   4.521  15.723  0.00  0.00    +0.000 A 
ATOM     13  F   UNL     1       5.650   4.220  14.437  0.00  0.00    +0.000 F 
ATOM     14  C   UNL     1       7.170   4.441  16.222  0.00  0.00    +0.000 A 
ATOM     15  C   UNL     1       7.407   4.761  17.555  0.00  0.00    +0.000 A 
ATOM     16  C   UNL     1       6.345   5.155  18.372  0.00  0.00    +0.000 A 
ATOM     17  F   UNL     1       6.628   5.477  19.643  0.00  0.00    +0.000 F 
ENDBRANCH   6  10
BRANCH   2  18
ATOM     18  C   UNL     1       0.337  10.114  18.715  0.00  0.00    +0.000 A 
ATOM     19  C   UNL     1      -0.750  10.131  17.840  0.00  0.00    +0.000 A 
ATOM     20  C   UNL     1      -1.779  11.041  18.038  0.00  0.00    +0.000 A 
ATOM     21  C   UNL     1      -1.727  11.933  19.113  0.00  0.00    +0.000 A 
ATOM     22  C   UNL     1      -0.649  11.939  20.016  0.00  0.00    +0.000 A 
ATOM     23  C   UNL     1       0.395  11.029  19.780  0.00  0.00    +0.000 A 
BRANCH  22  24
ATOM     24  N   UNL     1      -0.645  12.800  21.159  0.00  0.00    +0.000 N 
ATOM     25  C   UNL     1      -0.227  14.111  21.149  0.00  0.00    +0.000 C 
ATOM     26  O   UNL     1       0.310  14.745  20.249  0.00  0.00    +0.000 OA
ATOM     27  C   UNL     1      -0.495  14.734  22.483  0.00  0.00    +0.000 C 
ATOM     28  C   UNL     1      -1.039  13.612  23.329  0.00  0.00    +0.000 C 
ATOM     29  C   UNL     1      -1.122  12.438  22.400  0.00  0.00    +0.000 C 
ATOM     30  O   UNL     1      -1.601  11.369  22.761  0.00  0.00    +0.000 OA
ENDBRANCH  22  24
ENDBRANCH   2  18
TORSDOF 3
ENDMDL
MODEL 9
REMARK VINA RESULT:      -8.9      4.428      9.918
REMARK  Name = 
REMARK  3 active torsions:
REMARK  status: ('A' for Active; 'I' for Inactive)
REMARK    1  A    between atoms: C_2  and  C_17
REMARK    2  A    between atoms: C_6  and  C_7
REMARK    3  A    between atoms: C_21  and  N_22
REMARK                            x       y       z     vdW  Elec       q    Type
REMARK                         _______ _______ _______ _____ _____    ______ ____
ROOT
ATOM      1  O   UNL     1       1.226   7.503  21.564  0.00  0.00    +0.000 OA
ATOM      2  C   UNL     1       1.732   7.413  20.452  0.00  0.00    +0.000 C 
ATOM      3  N   UNL     1       1.729   8.359  19.453  0.00  0.00    +0.000 N 
ATOM      4  C   UNL     1       1.103   9.563  19.613  0.00  0.00    +0.000 A 
ATOM      5  N   UNL     1       0.609  10.101  20.696  0.00  0.00    +0.000 NA
ATOM      6  C   UNL     1       0.034  11.324  20.397  0.00  0.00    +0.000 A 
ATOM      7  C   UNL     1       0.067  11.658  19.056  0.00  0.00    +0.000 A 
ATOM      8  S   UNL     1       0.929  10.462  18.174  0.00  0.00    +0.000 S 
ATOM      9  H   UNL     1       2.059   8.146  18.523  0.00  0.00    +0.000 HD
ENDROOT
BRANCH   6  10
ATOM     10  C   UNL     1      -0.565  12.132  21.453  0.00  0.00    +0.000 A 
ATOM     11  C   UNL     1      -1.644  11.611  22.183  0.00  0.00    +0.000 A 
ATOM     12  C   UNL     1      -2.220  12.358  23.208  0.00  0.00    +0.000 A 
ATOM     13  F   UNL     1      -3.250  11.850  23.897  0.00  0.00    +0.000 F 
ATOM     14  C   UNL     1      -1.741  13.621  23.536  0.00  0.00    +0.000 A 
ATOM     15  C   UNL     1      -0.665  14.147  22.826  0.00  0.00    +0.000 A 
ATOM     16  C   UNL     1      -0.086  13.403  21.796  0.00  0.00    +0.000 A 
ATOM     17  F   UNL     1       0.964  13.943  21.157  0.00  0.00    +0.000 F 
ENDBRANCH   6  10
BRANCH   2  18
ATOM     18  C   UNL     1       2.349   6.116  20.074  0.00  0.00    +0.000 A 
ATOM     19  C   UNL     1       1.665   4.943  20.397  0.00  0.00    +0.000 A 
ATOM     20  C   UNL     1       2.197   3.713  20.032  0.00  0.00    +0.000 A 
ATOM     21  C   UNL     1       3.411   3.654  19.341  0.00  0.00    +0.000 A 
ATOM     22  C   UNL     1       4.122   4.816  18.996  0.00  0.00    +0.000 A 
ATOM     23  C   UNL     1       3.580   6.048  19.400  0.00  0.00    +0.000 A 
BRANCH  22  24
ATOM     24  N   UNL     1       5.322   4.748  18.218  0.00  0.00    +0.000 N 
ATOM     25  C   UNL     1       6.589   4.950  18.715  0.00  0.00    +0.000 C 
ATOM     26  O   UNL     1       6.932   5.327  19.829  0.00  0.00    +0.000 OA
ATOM     27  C   UNL     1       7.598   4.661  17.648  0.00  0.00    +0.000 C 
ATOM     28  C   UNL     1       6.782   4.353  16.420  0.00  0.00    +0.000 C 
ATOM     29  C   UNL     1       5.358   4.406  16.884  0.00  0.00    +0.000 C 
ATOM     30  O   UNL     1       4.430   4.125  16.134  0.00  0.00    +0.000 OA
ENDBRANCH  22  24
ENDBRANCH   2  18
TORSDOF 3
ENDMDL
