MODEL 1
REMARK VINA RESULT:     -10.0      0.000      0.000
REMARK  Name = 
REMARK  7 active torsions:
REMARK  status: ('A' for Active; 'I' for Inactive)
REMARK    1  A    between atoms: C_1  and  C_2
REMARK    2  A    between atoms: C_6  and  C_7
REMARK    3  A    between atoms: N_13  and  C_14
REMARK    4  A    between atoms: C_18  and  C_19
REMARK    5  A    between atoms: C_19  and  C_20
REMARK    6  A    between atoms: C_19  and  N_21
REMARK    7  A    between atoms: N_26  and  C_27
REMARK                            x       y       z     vdW  Elec       q    Type
REMARK                         _______ _______ _______ _____ _____    ______ ____
ROOT
ATOM      1  C   UNL     1       2.679   6.553  18.490  0.00  0.00    +0.000 A 
ATOM      2  C   UNL     1       2.044   5.322  18.722  0.00  0.00    +0.000 A 
ATOM      3  C   UNL     1       2.636   4.113  18.375  0.00  0.00    +0.000 A 
ATOM      4  C   UNL     1       3.884   4.114  17.774  0.00  0.00    +0.000 A 
ATOM      5  C   UNL     1       4.531   5.323  17.462  0.00  0.00    +0.000 A 
ATOM      6  C   UNL     1       3.905   6.546  17.807  0.00  0.00    +0.000 A 
ENDROOT
BRANCH   1  15
ATOM      7  C   UNL     1      -0.456  13.220  19.227  0.00  0.00    +0.000 C 
ATOM      8  C   UNL     1       0.045  11.857  19.606  0.00  0.00    +0.000 A 
ATOM      9  C   UNL     1       0.773  11.106  18.690  0.00  0.00    +0.000 A 
ATOM     10  C   UNL     1       1.193   9.845  19.076  0.00  0.00    +0.000 A 
ATOM     11  C   UNL     1       0.921   9.272  20.313  0.00  0.00    +0.000 A 
ATOM     12  C   UNL     1       0.229  10.020  21.263  0.00  0.00    +0.000 A 
ATOM     13  C   UNL     1      -0.208  11.319  20.887  0.00  0.00    +0.000 A 
ATOM     14  C   UNL     1       1.456   7.862  20.326  0.00  0.00    +0.000 C 
ATOM     15  N   UNL     1       2.102   7.738  19.023  0.00  0.00    +0.000 N 
ATOM     16  C   UNL     1       1.944   8.901  18.265  0.00  0.00    +0.000 C 
ATOM     17  O   UNL     1       2.272   9.171  17.122  0.00  0.00    +0.000 OA
BRANCH  12  18
ATOM     18  C   UNL     1      -0.061   9.526  22.655  0.00  0.00    +0.000 C 
ATOM     19  F   UNL     1       1.056   9.194  23.360  0.00  0.00    +0.000 F 
ATOM     20  F   UNL     1      -0.715  10.455  23.407  0.00  0.00    +0.000 F 
ATOM     21  F   UNL     1      -0.850   8.417  22.661  0.00  0.00    +0.000 F 
ENDBRANCH  12  18
ENDBRANCH   1  15
BRANCH   5  22
ATOM     22  C   UNL     1       5.914   5.220  16.824  0.00  0.00    +0.000 C 
ATOM     23  C   UNL     1       6.949   4.534  17.714  0.00  0.00    +0.000 C 
BRANCH  22  24
ATOM     24  N   UNL     1       5.794   4.525  15.534  0.00  0.00    +0.000 N 
ATOM     25  C   UNL     1       6.706   4.827  14.573  0.00  0.00    +0.000 A 
ATOM     26  N   UNL     1       7.777   5.589  14.664  0.00  0.00    +0.000 NA
ATOM     27  N   UNL     1       8.389   5.641  13.434  0.00  0.00    +0.000 NA
ATOM     28  C   UNL     1       7.694   4.885  12.621  0.00  0.00    +0.000 A 
ATOM     29  N   UNL     1       6.635   4.347  13.289  0.00  0.00    +0.000 N 
ATOM     30  C   UNL     1       5.704   3.411  12.723  0.00  0.00    +0.000 C 
ATOM     31  H   UNL     1       4.830   4.393  15.247  0.00  0.00    +0.000 HD
ENDBRANCH  22  24
ENDBRANCH   5  22
TORSDOF 4
ENDMDL
MODEL 2
REMARK VINA RESULT:      -9.5      3.884      8.729
REMARK  Name = 
REMARK  7 active torsions:
REMARK  status: ('A' for Active; 'I' for Inactive)
REMARK    1  A    between atoms: C_1  and  C_2
REMARK    2  A    between atoms: C_6  and  C_7
REMARK    3  A    between atoms: N_13  and  C_14
REMARK    4  A    between atoms: C_18  and  C_19
REMARK    5  A    between atoms: C_19  and  C_20
REMARK    6  A    between atoms: C_19  and  N_21
REMARK    7  A    between atoms: N_26  and  C_27
REMARK                            x       y       z     vdW  Elec       q    Type
REMARK                         _______ _______ _______ _____ _____    ______ ____
ROOT
ATOM      1  C   UNL     1       1.737   8.068  19.622  0.00  0.00    +0.000 A 
ATOM      2  C   UNL     1       1.501   7.902  20.997  0.00  0.00    +0.000 A 
ATOM      3  C   UNL     1       0.762   8.823  21.731  0.00  0.00    +0.000 A 
ATOM      4  C   UNL     1       0.249   9.944  21.099  0.00  0.00    +0.000 A 
ATOM      5  C   UNL     1       0.515  10.187  19.740  0.00  0.00    +0.000 A 
ATOM      6  C   UNL     1       1.283   9.247  19.011  0.00  0.00    +0.000 A 
ENDROOT
BRANCH   1  15
ATOM      7  C   UNL     1       6.252   4.092  15.306  0.00  0.00    +0.000 C 
ATOM      8  C   UNL     1       5.163   4.393  16.295  0.00  0.00    +0.000 A 
ATOM      9  C   UNL     1       4.795   5.711  16.541  0.00  0.00    +0.000 A 
ATOM     10  C   UNL     1       3.804   5.941  17.478  0.00  0.00    +0.000 A 
ATOM     11  C   UNL     1       3.163   4.943  18.204  0.00  0.00    +0.000 A 
ATOM     12  C   UNL     1       3.484   3.612  17.946  0.00  0.00    +0.000 A 
ATOM     13  C   UNL     1       4.497   3.355  16.984  0.00  0.00    +0.000 A 
ATOM     14  C   UNL     1       2.219   5.586  19.190  0.00  0.00    +0.000 C 
ATOM     15  N   UNL     1       2.347   7.010  18.894  0.00  0.00    +0.000 N 
ATOM     16  C   UNL     1       3.292   7.238  17.892  0.00  0.00    +0.000 C 
ATOM     17  O   UNL     1       3.729   8.271  17.413  0.00  0.00    +0.000 OA
BRANCH  12  18
ATOM     18  C   UNL     1       2.806   2.451  18.622  0.00  0.00    +0.000 C 
ATOM     19  F   UNL     1       3.309   1.239  18.256  0.00  0.00    +0.000 F 
ATOM     20  F   UNL     1       2.916   2.507  19.978  0.00  0.00    +0.000 F 
ATOM     21  F   UNL     1       1.473   2.398  18.355  0.00  0.00    +0.000 F 
ENDBRANCH  12  18
ENDBRANCH   1  15
BRANCH   5  22
ATOM     22  C   UNL     1      -0.116  11.435  19.127  0.00  0.00    +0.000 C 
ATOM     23  C   UNL     1       0.892  12.542  18.819  0.00  0.00    +0.000 C 
BRANCH  22  24
ATOM     24  N   UNL     1      -0.854  11.051  17.914  0.00  0.00    +0.000 N 
ATOM     25  C   UNL     1      -2.197  11.253  17.908  0.00  0.00    +0.000 A 
ATOM     26  N   UNL     1      -2.943  11.860  18.809  0.00  0.00    +0.000 NA
ATOM     27  N   UNL     1      -4.257  11.801  18.409  0.00  0.00    +0.000 NA
ATOM     28  C   UNL     1      -4.285  11.182  17.255  0.00  0.00    +0.000 A 
ATOM     29  N   UNL     1      -3.019  10.826  16.895  0.00  0.00    +0.000 N 
ATOM     30  C   UNL     1      -2.671  10.195  15.652  0.00  0.00    +0.000 C 
ATOM     31  H   UNL     1      -0.502  10.198  17.494  0.00  0.00    +0.000 HD
ENDBRANCH  22  24
ENDBRANCH   5  22
TORSDOF 4
ENDMDL
MODEL 3
REMARK VINA RESULT:      -9.4      4.446      8.990
REMARK  Name = 
REMARK  7 active torsions:
REMARK  status: ('A' for Active; 'I' for Inactive)
REMARK    1  A    between atoms: C_1  and  C_2
REMARK    2  A    between atoms: C_6  and  C_7
REMARK    3  A    between atoms: N_13  and  C_14
REMARK    4  A    between atoms: C_18  and  C_19
REMARK    5  A    between atoms: C_19  and  C_20
REMARK    6  A    between atoms: C_19  and  N_21
REMARK    7  A    between atoms: N_26  and  C_27
REMARK                            x       y       z     vdW  Elec       q    Type
REMARK                         _______ _______ _______ _____ _____    ______ ____
ROOT
ATOM      1  C   UNL     1       1.508   8.499  19.971  0.00  0.00    +0.000 A 
ATOM      2  C   UNL     1       1.082   8.406  21.306  0.00  0.00    +0.000 A 
ATOM      3  C   UNL     1       0.234   9.351  21.874  0.00  0.00    +0.000 A 
ATOM      4  C   UNL     1      -0.200  10.422  21.111  0.00  0.00    +0.000 A 
ATOM      5  C   UNL     1       0.252  10.594  19.790  0.00  0.00    +0.000 A 
ATOM      6  C   UNL     1       1.128   9.632  19.234  0.00  0.00    +0.000 A 
ENDROOT
BRANCH   1  15
ATOM      7  C   UNL     1       3.720   1.749  17.884  0.00  0.00    +0.000 C 
ATOM      8  C   UNL     1       3.661   3.247  17.947  0.00  0.00    +0.000 A 
ATOM      9  C   UNL     1       2.850   3.870  18.890  0.00  0.00    +0.000 A 
ATOM     10  C   UNL     1       2.809   5.253  18.894  0.00  0.00    +0.000 A 
ATOM     11  C   UNL     1       3.510   6.062  18.006  0.00  0.00    +0.000 A 
ATOM     12  C   UNL     1       4.360   5.464  17.079  0.00  0.00    +0.000 A 
ATOM     13  C   UNL     1       4.420   4.044  17.062  0.00  0.00    +0.000 A 
ATOM     14  C   UNL     1       3.136   7.501  18.258  0.00  0.00    +0.000 C 
ATOM     15  N   UNL     1       2.230   7.416  19.400  0.00  0.00    +0.000 N 
ATOM     16  C   UNL     1       2.015   6.089  19.780  0.00  0.00    +0.000 C 
ATOM     17  O   UNL     1       1.289   5.600  20.628  0.00  0.00    +0.000 OA
BRANCH  12  18
ATOM     18  C   UNL     1       5.216   6.243  16.117  0.00  0.00    +0.000 C 
ATOM     19  F   UNL     1       4.512   7.115  15.344  0.00  0.00    +0.000 F 
ATOM     20  F   UNL     1       6.162   6.987  16.754  0.00  0.00    +0.000 F 
ATOM     21  F   UNL     1       5.893   5.439  15.252  0.00  0.00    +0.000 F 
ENDBRANCH  12  18
ENDBRANCH   1  15
BRANCH   5  22
ATOM     22  C   UNL     1      -0.303  11.791  19.023  0.00  0.00    +0.000 C 
ATOM     23  C   UNL     1       0.758  12.827  18.653  0.00  0.00    +0.000 C 
BRANCH  22  24
ATOM     24  N   UNL     1      -0.999  11.307  17.821  0.00  0.00    +0.000 N 
ATOM     25  C   UNL     1      -2.356  11.365  17.816  0.00  0.00    +0.000 A 
ATOM     26  N   UNL     1      -3.160  11.908  18.708  0.00  0.00    +0.000 NA
ATOM     27  N   UNL     1      -4.461  11.701  18.315  0.00  0.00    +0.000 NA
ATOM     28  C   UNL     1      -4.426  11.060  17.173  0.00  0.00    +0.000 A 
ATOM     29  N   UNL     1      -3.130  10.833  16.815  0.00  0.00    +0.000 N 
ATOM     30  C   UNL     1      -2.720  10.218  15.583  0.00  0.00    +0.000 C 
ATOM     31  H   UNL     1      -0.559  10.487  17.415  0.00  0.00    +0.000 HD
ENDBRANCH  22  24
ENDBRANCH   5  22
TORSDOF 4
ENDMDL
MODEL 4
REMARK VINA RESULT:      -9.4      4.003      8.581
REMARK  Name = 
REMARK  7 active torsions:
REMARK  status: ('A' for Active; 'I' for Inactive)
REMARK    1  A    between atoms: C_1  and  C_2
REMARK    2  A    between atoms: C_6  and  C_7
REMARK    3  A    between atoms: N_13  and  C_14
REMARK    4  A    between atoms: C_18  and  C_19
REMARK    5  A    between atoms: C_19  and  C_20
REMARK    6  A    between atoms: C_19  and  N_21
REMARK    7  A    between atoms: N_26  and  C_27
REMARK                            x       y       z     vdW  Elec       q    Type
REMARK                         _______ _______ _______ _____ _____    ______ ____
ROOT
ATOM      1  C   UNL     1       1.089   9.097  20.316  0.00  0.00    +0.000 A 
ATOM      2  C   UNL     1       0.814   9.255  21.685  0.00  0.00    +0.000 A 
ATOM      3  C   UNL     1       0.145  10.370  22.175  0.00  0.00    +0.000 A 
ATOM      4  C   UNL     1      -0.258  11.364  21.299  0.00  0.00    +0.000 A 
ATOM      5  C   UNL     1       0.053  11.283  19.929  0.00  0.00    +0.000 A 
ATOM      6  C   UNL     1       0.750  10.148  19.449  0.00  0.00    +0.000 A 
ENDROOT
BRANCH   1  15
ATOM      7  C   UNL     1       5.050   3.941  16.774  0.00  0.00    +0.000 C 
ATOM      8  C   UNL     1       4.106   4.542  17.775  0.00  0.00    +0.000 A 
ATOM      9  C   UNL     1       3.740   5.879  17.667  0.00  0.00    +0.000 A 
ATOM     10  C   UNL     1       2.887   6.395  18.628  0.00  0.00    +0.000 A 
ATOM     11  C   UNL     1       2.386   5.670  19.704  0.00  0.00    +0.000 A 
ATOM     12  C   UNL     1       2.705   4.318  19.811  0.00  0.00    +0.000 A 
ATOM     13  C   UNL     1       3.576   3.768  18.832  0.00  0.00    +0.000 A 
ATOM     14  C   UNL     1       1.576   6.593  20.579  0.00  0.00    +0.000 C 
ATOM     15  N   UNL     1       1.619   7.861  19.857  0.00  0.00    +0.000 N 
ATOM     16  C   UNL     1       2.403   7.763  18.705  0.00  0.00    +0.000 C 
ATOM     17  O   UNL     1       2.736   8.599  17.882  0.00  0.00    +0.000 OA
BRANCH  12  18
ATOM     18  C   UNL     1       2.166   3.423  20.894  0.00  0.00    +0.000 C 
ATOM     19  F   UNL     1       2.431   3.870  22.152  0.00  0.00    +0.000 F 
ATOM     20  F   UNL     1       0.812   3.285  20.823  0.00  0.00    +0.000 F 
ATOM     21  F   UNL     1       2.674   2.162  20.829  0.00  0.00    +0.000 F 
ENDBRANCH  12  18
ENDBRANCH   1  15
BRANCH   5  22
ATOM     22  C   UNL     1      -0.456  12.414  19.040  0.00  0.00    +0.000 C 
ATOM     23  C   UNL     1       0.632  13.406  18.629  0.00  0.00    +0.000 C 
BRANCH  22  24
ATOM     24  N   UNL     1      -1.105  11.834  17.854  0.00  0.00    +0.000 N 
ATOM     25  C   UNL     1      -2.449  11.643  17.907  0.00  0.00    +0.000 A 
ATOM     26  N   UNL     1      -3.297  12.013  18.846  0.00  0.00    +0.000 NA
ATOM     27  N   UNL     1      -4.555  11.580  18.501  0.00  0.00    +0.000 NA
ATOM     28  C   UNL     1      -4.457  10.978  17.342  0.00  0.00    +0.000 A 
ATOM     29  N   UNL     1      -3.159  10.999  16.925  0.00  0.00    +0.000 N 
ATOM     30  C   UNL     1      -2.700  10.493  15.661  0.00  0.00    +0.000 C 
ATOM     31  H   UNL     1      -0.543  11.117  17.409  0.00  0.00    +0.000 HD
ENDBRANCH  22  24
ENDBRANCH   5  22
TORSDOF 4
ENDMDL
MODEL 5
REMARK VINA RESULT:      -9.2      3.891      8.668
REMARK  Name = 
REMARK  7 active torsions:
REMARK  status: ('A' for Active; 'I' for Inactive)
REMARK    1  A    between atoms: C_1  and  C_2
REMARK    2  A    between atoms: C_6  and  C_7
REMARK    3  A    between atoms: N_13  and  C_14
REMARK    4  A    between atoms: C_18  and  C_19
REMARK    5  A    between atoms: C_19  and  C_20
REMARK    6  A    between atoms: C_19  and  N_21
REMARK    7  A    between atoms: N_26  and  C_27
REMARK                            x       y       z     vdW  Elec       q    Type
REMARK                         _______ _______ _______ _____ _____    ______ ____
ROOT
ATOM      1  C   UNL     1       1.324   8.547  20.129  0.00  0.00    +0.000 A 
ATOM      2  C   UNL     1       0.948   8.495  21.482  0.00  0.00    +0.000 A 
ATOM      3  C   UNL     1       0.188   9.498  22.072  0.00  0.00    +0.000 A 
ATOM      4  C   UNL     1      -0.206  10.589  21.315  0.00  0.00    +0.000 A 
ATOM      5  C   UNL     1       0.201  10.718  19.975  0.00  0.00    +0.000 A 
ATOM      6  C   UNL     1       0.989   9.695  19.395  0.00  0.00    +0.000 A 
ENDROOT
BRANCH   1  15
ATOM      7  C   UNL     1       5.654   4.132  16.058  0.00  0.00    +0.000 C 
ATOM      8  C   UNL     1       4.678   4.545  17.121  0.00  0.00    +0.000 A 
ATOM      9  C   UNL     1       4.199   5.851  17.152  0.00  0.00    +0.000 A 
ATOM     10  C   UNL     1       3.319   6.192  18.164  0.00  0.00    +0.000 A 
ATOM     11  C   UNL     1       2.895   5.322  19.163  0.00  0.00    +0.000 A 
ATOM     12  C   UNL     1       3.328   3.998  19.129  0.00  0.00    +0.000 A 
ATOM     13  C   UNL     1       4.229   3.627  18.095  0.00  0.00    +0.000 A 
ATOM     14  C   UNL     1       2.023   6.079  20.132  0.00  0.00    +0.000 C 
ATOM     15  N   UNL     1       1.950   7.413  19.543  0.00  0.00    +0.000 N 
ATOM     16  C   UNL     1       2.723   7.500  18.384  0.00  0.00    +0.000 C 
ATOM     17  O   UNL     1       2.974   8.440  17.649  0.00  0.00    +0.000 OA
BRANCH  12  18
ATOM     18  C   UNL     1       2.881   2.955  20.118  0.00  0.00    +0.000 C 
ATOM     19  F   UNL     1       1.624   2.486  19.884  0.00  0.00    +0.000 F 
ATOM     20  F   UNL     1       3.693   1.862  20.119  0.00  0.00    +0.000 F 
ATOM     21  F   UNL     1       2.875   3.418  21.398  0.00  0.00    +0.000 F 
ENDBRANCH  12  18
ENDBRANCH   1  15
BRANCH   5  22
ATOM     22  C   UNL     1      -0.305  11.942  19.216  0.00  0.00    +0.000 C 
ATOM     23  C   UNL     1       0.791  12.955  18.886  0.00  0.00    +0.000 C 
BRANCH  22  24
ATOM     24  N   UNL     1      -0.987  11.496  17.991  0.00  0.00    +0.000 N 
ATOM     25  C   UNL     1      -2.346  11.498  17.995  0.00  0.00    +0.000 A 
ATOM     26  N   UNL     1      -3.166  11.958  18.918  0.00  0.00    +0.000 NA
ATOM     27  N   UNL     1      -4.459  11.719  18.519  0.00  0.00    +0.000 NA
ATOM     28  C   UNL     1      -4.405  11.144  17.343  0.00  0.00    +0.000 A 
ATOM     29  N   UNL     1      -3.103  10.991  16.969  0.00  0.00    +0.000 N 
ATOM     30  C   UNL     1      -2.675  10.461  15.704  0.00  0.00    +0.000 C 
ATOM     31  H   UNL     1      -0.516  10.719  17.540  0.00  0.00    +0.000 HD
ENDBRANCH  22  24
ENDBRANCH   5  22
TORSDOF 4
ENDMDL
MODEL 6
REMARK VINA RESULT:      -9.1      1.677      2.801
REMARK  Name = 
REMARK  7 active torsions:
REMARK  status: ('A' for Active; 'I' for Inactive)
REMARK    1  A    between atoms: C_1  and  C_2
REMARK    2  A    between atoms: C_6  and  C_7
REMARK    3  A    between atoms: N_13  and  C_14
REMARK    4  A    between atoms: C_18  and  C_19
REMARK    5  A    between atoms: C_19  and  C_20
REMARK    6  A    between atoms: C_19  and  N_21
REMARK    7  A    between atoms: N_26  and  C_27
REMARK                            x       y       z     vdW  Elec       q    Type
REMARK                         _______ _______ _______ _____ _____    ______ ____
ROOT
ATOM      1  C   UNL     1       2.410   6.343  18.406  0.00  0.00    +0.000 A 
ATOM      2  C   UNL     1       1.698   5.168  18.700  0.00  0.00    +0.000 A 
ATOM      3  C   UNL     1       2.162   3.914  18.320  0.00  0.00    +0.000 A 
ATOM      4  C   UNL     1       3.354   3.812  17.622  0.00  0.00    +0.000 A 
ATOM      5  C   UNL     1       4.069   4.964  17.247  0.00  0.00    +0.000 A 
ATOM      6  C   UNL     1       3.573   6.234  17.628  0.00  0.00    +0.000 A 
ENDROOT
BRANCH   1  15
ATOM      7  C   UNL     1       0.071  13.308  19.322  0.00  0.00    +0.000 C 
ATOM      8  C   UNL     1       0.410  11.887  19.666  0.00  0.00    +0.000 A 
ATOM      9  C   UNL     1       1.047  11.080  18.728  0.00  0.00    +0.000 A 
ATOM     10  C   UNL     1       1.317   9.769  19.081  0.00  0.00    +0.000 A 
ATOM     11  C   UNL     1       0.978   9.200  20.304  0.00  0.00    +0.000 A 
ATOM     12  C   UNL     1       0.378   9.998  21.274  0.00  0.00    +0.000 A 
ATOM     13  C   UNL     1       0.096  11.348  20.933  0.00  0.00    +0.000 A 
ATOM     14  C   UNL     1       1.346   7.737  20.278  0.00  0.00    +0.000 C 
ATOM     15  N   UNL     1       1.975   7.573  18.971  0.00  0.00    +0.000 N 
ATOM     16  C   UNL     1       1.953   8.765  18.244  0.00  0.00    +0.000 C 
ATOM     17  O   UNL     1       2.311   9.025  17.107  0.00  0.00    +0.000 OA
BRANCH  12  18
ATOM     18  C   UNL     1       0.031   9.505  22.653  0.00  0.00    +0.000 C 
ATOM     19  F   UNL     1      -0.604  10.434  23.420  0.00  0.00    +0.000 F 
ATOM     20  F   UNL     1      -0.791   8.420  22.622  0.00  0.00    +0.000 F 
ATOM     21  F   UNL     1       1.128   9.123  23.362  0.00  0.00    +0.000 F 
ENDBRANCH  12  18
ENDBRANCH   1  15
BRANCH   5  22
ATOM     22  C   UNL     1       5.383   4.747  16.503  0.00  0.00    +0.000 C 
ATOM     23  C   UNL     1       5.207   4.518  15.002  0.00  0.00    +0.000 C 
BRANCH  22  24
ATOM     24  N   UNL     1       6.269   5.894  16.754  0.00  0.00    +0.000 N 
ATOM     25  C   UNL     1       7.040   5.858  17.871  0.00  0.00    +0.000 A 
ATOM     26  N   UNL     1       7.199   4.871  18.730  0.00  0.00    +0.000 NA
ATOM     27  N   UNL     1       8.045   5.287  19.731  0.00  0.00    +0.000 NA
ATOM     28  C   UNL     1       8.411   6.513  19.448  0.00  0.00    +0.000 A 
ATOM     29  N   UNL     1       7.814   6.912  18.288  0.00  0.00    +0.000 N 
ATOM     30  C   UNL     1       8.047   8.174  17.644  0.00  0.00    +0.000 C 
ATOM     31  H   UNL     1       5.846   6.780  16.500  0.00  0.00    +0.000 HD
ENDBRANCH  22  24
ENDBRANCH   5  22
TORSDOF 4
ENDMDL
MODEL 7
REMARK VINA RESULT:      -9.0      2.126      2.830
REMARK  Name = 
REMARK  7 active torsions:
REMARK  status: ('A' for Active; 'I' for Inactive)
REMARK    1  A    between atoms: C_1  and  C_2
REMARK    2  A    between atoms: C_6  and  C_7
REMARK    3  A    between atoms: N_13  and  C_14
REMARK    4  A    between atoms: C_18  and  C_19
REMARK    5  A    between atoms: C_19  and  C_20
REMARK    6  A    between atoms: C_19  and  N_21
REMARK    7  A    between atoms: N_26  and  C_27
REMARK                            x       y       z     vdW  Elec       q    Type
REMARK                         _______ _______ _______ _____ _____    ______ ____
ROOT
ATOM      1  C   UNL     1       2.878   5.673  18.161  0.00  0.00    +0.000 A 
ATOM      2  C   UNL     1       2.353   4.371  18.227  0.00  0.00    +0.000 A 
ATOM      3  C   UNL     1       3.030   3.279  17.696  0.00  0.00    +0.000 A 
ATOM      4  C   UNL     1       4.252   3.472  17.072  0.00  0.00    +0.000 A 
ATOM      5  C   UNL     1       4.786   4.765  16.923  0.00  0.00    +0.000 A 
ATOM      6  C   UNL     1       4.075   5.867  17.456  0.00  0.00    +0.000 A 
ENDROOT
BRANCH   1  15
ATOM      7  C   UNL     1      -0.131   9.839  23.491  0.00  0.00    +0.000 C 
ATOM      8  C   UNL     1       0.400   9.461  22.139  0.00  0.00    +0.000 A 
ATOM      9  C   UNL     1       0.775   8.146  21.884  0.00  0.00    +0.000 A 
ATOM     10  C   UNL     1       1.281   7.850  20.631  0.00  0.00    +0.000 A 
ATOM     11  C   UNL     1       1.457   8.783  19.614  0.00  0.00    +0.000 A 
ATOM     12  C   UNL     1       1.050  10.098  19.831  0.00  0.00    +0.000 A 
ATOM     13  C   UNL     1       0.524  10.421  21.111  0.00  0.00    +0.000 A 
ATOM     14  C   UNL     1       2.118   8.107  18.440  0.00  0.00    +0.000 C 
ATOM     15  N   UNL     1       2.225   6.716  18.872  0.00  0.00    +0.000 N 
ATOM     16  C   UNL     1       1.745   6.551  20.173  0.00  0.00    +0.000 C 
ATOM     17  O   UNL     1       1.720   5.577  20.907  0.00  0.00    +0.000 OA
BRANCH  12  18
ATOM     18  C   UNL     1       1.130  11.173  18.781  0.00  0.00    +0.000 C 
ATOM     19  F   UNL     1       2.218  11.062  17.970  0.00  0.00    +0.000 F 
ATOM     20  F   UNL     1       0.047  11.171  17.956  0.00  0.00    +0.000 F 
ATOM     21  F   UNL     1       1.190  12.422  19.318  0.00  0.00    +0.000 F 
ENDBRANCH  12  18
ENDBRANCH   1  15
BRANCH   5  22
ATOM     22  C   UNL     1       6.149   4.872  16.245  0.00  0.00    +0.000 C 
ATOM     23  C   UNL     1       7.307   4.390  17.118  0.00  0.00    +0.000 C 
BRANCH  22  24
ATOM     24  N   UNL     1       6.111   4.131  14.975  0.00  0.00    +0.000 N 
ATOM     25  C   UNL     1       6.857   4.612  13.947  0.00  0.00    +0.000 A 
ATOM     26  N   UNL     1       7.720   5.608  13.951  0.00  0.00    +0.000 NA
ATOM     27  N   UNL     1       8.216   5.767  12.679  0.00  0.00    +0.000 NA
ATOM     28  C   UNL     1       7.668   4.845  11.927  0.00  0.00    +0.000 A 
ATOM     29  N   UNL     1       6.814   4.091  12.677  0.00  0.00    +0.000 N 
ATOM     30  C   UNL     1       6.097   2.945  12.192  0.00  0.00    +0.000 C 
ATOM     31  H   UNL     1       5.189   3.766  14.761  0.00  0.00    +0.000 HD
ENDBRANCH  22  24
ENDBRANCH   5  22
TORSDOF 4
ENDMDL
MODEL 8
REMARK VINA RESULT:      -9.0      2.032      2.834
REMARK  Name = 
REMARK  7 active torsions:
REMARK  status: ('A' for Active; 'I' for Inactive)
REMARK    1  A    between atoms: C_1  and  C_2
REMARK    2  A    between atoms: C_6  and  C_7
REMARK    3  A    between atoms: N_13  and  C_14
REMARK    4  A    between atoms: C_18  and  C_19
REMARK    5  A    between atoms: C_19  and  C_20
REMARK    6  A    between atoms: C_19  and  N_21
REMARK    7  A    between atoms: N_26  and  C_27
REMARK                            x       y       z     vdW  Elec       q    Type
REMARK                         _______ _______ _______ _____ _____    ______ ____
ROOT
ATOM      1  C   UNL     1       1.898   5.551  20.175  0.00  0.00    +0.000 A 
ATOM      2  C   UNL     1       0.860   4.636  20.414  0.00  0.00    +0.000 A 
ATOM      3  C   UNL     1       1.089   3.266  20.480  0.00  0.00    +0.000 A 
ATOM      4  C   UNL     1       2.373   2.781  20.297  0.00  0.00    +0.000 A 
ATOM      5  C   UNL     1       3.434   3.652  19.990  0.00  0.00    +0.000 A 
ATOM      6  C   UNL     1       3.179   5.042  19.909  0.00  0.00    +0.000 A 
ENDROOT
BRANCH   1  15
ATOM      7  C   UNL     1       0.767  12.717  18.697  0.00  0.00    +0.000 C 
ATOM      8  C   UNL     1       0.804  11.436  19.478  0.00  0.00    +0.000 A 
ATOM      9  C   UNL     1       1.385  10.301  18.921  0.00  0.00    +0.000 A 
ATOM     10  C   UNL     1       1.373   9.137  19.668  0.00  0.00    +0.000 A 
ATOM     11  C   UNL     1       0.803   9.020  20.932  0.00  0.00    +0.000 A 
ATOM     12  C   UNL     1       0.252  10.152  21.528  0.00  0.00    +0.000 A 
ATOM     13  C   UNL     1       0.258  11.359  20.778  0.00  0.00    +0.000 A 
ATOM     14  C   UNL     1       0.901   7.584  21.381  0.00  0.00    +0.000 C 
ATOM     15  N   UNL     1       1.632   6.942  20.291  0.00  0.00    +0.000 N 
ATOM     16  C   UNL     1       1.907   7.847  19.263  0.00  0.00    +0.000 C 
ATOM     17  O   UNL     1       2.430   7.694  18.172  0.00  0.00    +0.000 OA
BRANCH  12  18
ATOM     18  C   UNL     1      -0.329  10.157  22.916  0.00  0.00    +0.000 C 
ATOM     19  F   UNL     1       0.535   9.714  23.870  0.00  0.00    +0.000 F 
ATOM     20  F   UNL     1      -0.714  11.403  23.310  0.00  0.00    +0.000 F 
ATOM     21  F   UNL     1      -1.437   9.373  23.020  0.00  0.00    +0.000 F 
ENDBRANCH  12  18
ENDBRANCH   1  15
BRANCH   5  22
ATOM     22  C   UNL     1       4.816   3.025  19.831  0.00  0.00    +0.000 C 
ATOM     23  C   UNL     1       4.817   1.502  19.957  0.00  0.00    +0.000 C 
BRANCH  22  24
ATOM     24  N   UNL     1       5.384   3.440  18.539  0.00  0.00    +0.000 N 
ATOM     25  C   UNL     1       6.263   4.476  18.545  0.00  0.00    +0.000 A 
ATOM     26  N   UNL     1       6.783   5.109  19.577  0.00  0.00    +0.000 NA
ATOM     27  N   UNL     1       7.598   6.114  19.114  0.00  0.00    +0.000 NA
ATOM     28  C   UNL     1       7.584   6.057  17.805  0.00  0.00    +0.000 A 
ATOM     29  N   UNL     1       6.768   5.042  17.401  0.00  0.00    +0.000 N 
ATOM     30  C   UNL     1       6.574   4.647  16.033  0.00  0.00    +0.000 C 
ATOM     31  H   UNL     1       4.710   3.396  17.782  0.00  0.00    +0.000 HD
ENDBRANCH  22  24
ENDBRANCH   5  22
TORSDOF 4
ENDMDL
MODEL 9
REMARK VINA RESULT:      -8.9      2.664      3.928
REMARK  Name = 
REMARK  7 active torsions:
REMARK  status: ('A' for Active; 'I' for Inactive)
REMARK    1  A    between atoms: C_1  and  C_2
REMARK    2  A    between atoms: C_6  and  C_7
REMARK    3  A    between atoms: N_13  and  C_14
REMARK    4  A    between atoms: C_18  and  C_19
REMARK    5  A    between atoms: C_19  and  C_20
REMARK    6  A    between atoms: C_19  and  N_21
REMARK    7  A    between atoms: N_26  and  C_27
REMARK                            x       y       z     vdW  Elec       q    Type
REMARK                         _______ _______ _______ _____ _____    ______ ____
ROOT
ATOM      1  C   UNL     1       2.764   5.360  17.995  0.00  0.00    +0.000 A 
ATOM      2  C   UNL     1       2.158   4.092  18.003  0.00  0.00    +0.000 A 
ATOM      3  C   UNL     1       2.774   2.981  17.438  0.00  0.00    +0.000 A 
ATOM      4  C   UNL     1       4.015   3.121  16.839  0.00  0.00    +0.000 A 
ATOM      5  C   UNL     1       4.630   4.382  16.747  0.00  0.00    +0.000 A 
ATOM      6  C   UNL     1       3.982   5.506  17.313  0.00  0.00    +0.000 A 
ENDROOT
BRANCH   1  15
ATOM      7  C   UNL     1       0.181   9.615  23.476  0.00  0.00    +0.000 C 
ATOM      8  C   UNL     1       0.601   9.214  22.092  0.00  0.00    +0.000 A 
ATOM      9  C   UNL     1       0.960   7.895  21.831  0.00  0.00    +0.000 A 
ATOM     10  C   UNL     1       1.364   7.578  20.546  0.00  0.00    +0.000 A 
ATOM     11  C   UNL     1       1.452   8.493  19.502  0.00  0.00    +0.000 A 
ATOM     12  C   UNL     1       1.058   9.810  19.728  0.00  0.00    +0.000 A 
ATOM     13  C   UNL     1       0.636  10.155  21.040  0.00  0.00    +0.000 A 
ATOM     14  C   UNL     1       2.018   7.797  18.290  0.00  0.00    +0.000 C 
ATOM     15  N   UNL     1       2.166   6.414  18.738  0.00  0.00    +0.000 N 
ATOM     16  C   UNL     1       1.795   6.272  20.076  0.00  0.00    +0.000 C 
ATOM     17  O   UNL     1       1.834   5.311  20.827  0.00  0.00    +0.000 OA
BRANCH  12  18
ATOM     18  C   UNL     1       1.047  10.866  18.655  0.00  0.00    +0.000 C 
ATOM     19  F   UNL     1       0.808  12.120  19.128  0.00  0.00    +0.000 F 
ATOM     20  F   UNL     1       2.233  10.937  17.989  0.00  0.00    +0.000 F 
ATOM     21  F   UNL     1       0.099  10.636  17.707  0.00  0.00    +0.000 F 
ENDBRANCH  12  18
ENDBRANCH   1  15
BRANCH   5  22
ATOM     22  C   UNL     1       6.008   4.430  16.092  0.00  0.00    +0.000 C 
ATOM     23  C   UNL     1       5.969   4.273  14.572  0.00  0.00    +0.000 C 
BRANCH  22  24
ATOM     24  N   UNL     1       6.673   5.687  16.469  0.00  0.00    +0.000 N 
ATOM     25  C   UNL     1       7.293   5.730  17.677  0.00  0.00    +0.000 A 
ATOM     26  N   UNL     1       7.487   4.751  18.538  0.00  0.00    +0.000 NA
ATOM     27  N   UNL     1       8.128   5.256  19.644  0.00  0.00    +0.000 NA
ATOM     28  C   UNL     1       8.338   6.531  19.425  0.00  0.00    +0.000 A 
ATOM     29  N   UNL     1       7.840   6.873  18.203  0.00  0.00    +0.000 N 
ATOM     30  C   UNL     1       7.962   8.175  17.609  0.00  0.00    +0.000 C 
ATOM     31  H   UNL     1       6.157   6.508  16.172  0.00  0.00    +0.000 HD
ENDBRANCH  22  24
ENDBRANCH   5  22
TORSDOF 4
ENDMDL
