MODEL 1
REMARK VINA RESULT:      -8.5      0.000      0.000
REMARK  Name = 
REMARK  11 active torsions:
REMARK  status: ('A' for Active; 'I' for Inactive)
REMARK    1  A    between atoms: C_1  and  C_2
REMARK    2  A    between atoms: C_2  and  N_3
REMARK    3  A    between atoms: C_2  and  C_30
REMARK    4  A    between atoms: N_3  and  S_4
REMARK    5  A    between atoms: S_4  and  C_7
REMARK    6  A    between atoms: C_11  and  C_12
REMARK    7  A    between atoms: N_14  and  C_15
REMARK    8  A    between atoms: N_14  and  C_16
REMARK    9  A    between atoms: C_16  and  C_17
REMARK   10  A    between atoms: N_20  and  C_21
REMARK   11  A    between atoms: C_21  and  C_22
REMARK                            x       y       z     vdW  Elec       q    Type
REMARK                         _______ _______ _______ _____ _____    ______ ____
ROOT
ATOM      1  C   UNL     1       2.687   4.263  18.950  0.00  0.00    +0.000 A 
ATOM      2  C   UNL     1       2.501   3.740  20.232  0.00  0.00    +0.000 A 
ATOM      3  C   UNL     1       2.090   4.577  21.268  0.00  0.00    +0.000 A 
ATOM      4  C   UNL     1       1.867   5.934  21.025  0.00  0.00    +0.000 A 
ATOM      5  C   UNL     1       2.013   6.462  19.735  0.00  0.00    +0.000 A 
ATOM      6  C   UNL     1       2.443   5.620  18.696  0.00  0.00    +0.000 A 
ENDROOT
BRANCH   5   7
ATOM      7  C   UNL     1       1.868   7.922  19.460  0.00  0.00    +0.000 C 
ATOM      8  O   UNL     1       2.536   8.365  18.524  0.00  0.00    +0.000 OA
ATOM      9  N   UNL     1       1.074   8.748  20.260  0.00  0.00    +0.000 N 
ATOM     10  C   UNL     1      -0.014   8.323  21.133  0.00  0.00    +0.000 C 
BRANCH   9  11
ATOM     11  C   UNL     1       1.283  10.191  20.162  0.00  0.00    +0.000 C 
BRANCH  11  12
ATOM     12  C   UNL     1       0.285  10.798  19.235  0.00  0.00    +0.000 A 
ATOM     13  C   UNL     1       0.196  12.147  18.824  0.00  0.00    +0.000 A 
ATOM     14  N   UNL     1      -0.874  12.393  18.064  0.00  0.00    +0.000 NA
ATOM     15  N   UNL     1      -1.480  11.191  17.969  0.00  0.00    +0.000 N 
ATOM     16  C   UNL     1      -0.807  10.201  18.632  0.00  0.00    +0.000 A 
BRANCH  15  17
ATOM     17  C   UNL     1      -2.785  11.073  17.333  0.00  0.00    +0.000 C 
BRANCH  17  18
ATOM     18  C   UNL     1      -3.903  11.381  18.295  0.00  0.00    +0.000 A 
ATOM     19  C   UNL     1      -5.169  10.799  18.134  0.00  0.00    +0.000 A 
ATOM     20  C   UNL     1      -6.211  11.122  19.005  0.00  0.00    +0.000 A 
ATOM     21  C   UNL     1      -5.997  12.025  20.044  0.00  0.00    +0.000 A 
ATOM     22  C   UNL     1      -4.742  12.602  20.220  0.00  0.00    +0.000 A 
ATOM     23  C   UNL     1      -3.700  12.284  19.348  0.00  0.00    +0.000 A 
ENDBRANCH  17  18
ENDBRANCH  15  17
ENDBRANCH  11  12
ENDBRANCH   9  11
ENDBRANCH   5   7
BRANCH   1  24
ATOM     24  S   UNL     1       3.052   3.134  17.624  0.00  0.00    +0.000 S 
ATOM     25  O   UNL     1       2.189   3.452  16.513  0.00  0.00    +0.000 OA
ATOM     26  O   UNL     1       3.052   1.817  18.229  0.00  0.00    +0.000 OA
BRANCH  24  27
ATOM     27  N   UNL     1       4.649   3.465  17.226  0.00  0.00    +0.000 NA
ATOM     28  H   UNL     1       5.284   3.290  18.004  0.00  0.00    +0.000 HD
BRANCH  27  30
ATOM     29  C   UNL     1       5.653   4.215  15.074  0.00  0.00    +0.000 C 
ATOM     30  C   UNL     1       5.042   4.634  16.415  0.00  0.00    +0.000 C 
BRANCH  30  31
ATOM     31  C   UNL     1       6.091   5.436  17.190  0.00  0.00    +0.000 A 
ATOM     32  C   UNL     1       6.654   4.935  18.372  0.00  0.00    +0.000 A 
ATOM     33  C   UNL     1       7.613   5.677  19.072  0.00  0.00    +0.000 A 
ATOM     34  C   UNL     1       8.019   6.925  18.601  0.00  0.00    +0.000 A 
ATOM     35  C   UNL     1       7.466   7.438  17.432  0.00  0.00    +0.000 A 
ATOM     36  C   UNL     1       6.510   6.700  16.731  0.00  0.00    +0.000 A 
ENDBRANCH  30  31
ENDBRANCH  27  30
ENDBRANCH  24  27
ENDBRANCH   1  24
TORSDOF 9
ENDMDL
MODEL 2
REMARK VINA RESULT:      -8.2      3.244      5.430
REMARK  Name = 
REMARK  11 active torsions:
REMARK  status: ('A' for Active; 'I' for Inactive)
REMARK    1  A    between atoms: C_1  and  C_2
REMARK    2  A    between atoms: C_2  and  N_3
REMARK    3  A    between atoms: C_2  and  C_30
REMARK    4  A    between atoms: N_3  and  S_4
REMARK    5  A    between atoms: S_4  and  C_7
REMARK    6  A    between atoms: C_11  and  C_12
REMARK    7  A    between atoms: N_14  and  C_15
REMARK    8  A    between atoms: N_14  and  C_16
REMARK    9  A    between atoms: C_16  and  C_17
REMARK   10  A    between atoms: N_20  and  C_21
REMARK   11  A    between atoms: C_21  and  C_22
REMARK                            x       y       z     vdW  Elec       q    Type
REMARK                         _______ _______ _______ _____ _____    ______ ____
ROOT
ATOM      1  C   UNL     1       0.901   9.632  20.083  0.00  0.00    +0.000 A 
ATOM      2  C   UNL     1       1.424   8.684  20.967  0.00  0.00    +0.000 A 
ATOM      3  C   UNL     1       1.031   8.693  22.303  0.00  0.00    +0.000 A 
ATOM      4  C   UNL     1       0.119   9.647  22.759  0.00  0.00    +0.000 A 
ATOM      5  C   UNL     1      -0.442  10.579  21.874  0.00  0.00    +0.000 A 
ATOM      6  C   UNL     1      -0.031  10.578  20.531  0.00  0.00    +0.000 A 
ENDROOT
BRANCH   5   7
ATOM      7  C   UNL     1      -1.350  11.665  22.346  0.00  0.00    +0.000 C 
ATOM      8  O   UNL     1      -2.000  11.422  23.364  0.00  0.00    +0.000 OA
ATOM      9  N   UNL     1      -1.505  12.859  21.635  0.00  0.00    +0.000 N 
ATOM     10  C   UNL     1      -0.571  13.414  20.662  0.00  0.00    +0.000 C 
BRANCH   9  11
ATOM     11  C   UNL     1      -2.668  13.686  21.945  0.00  0.00    +0.000 C 
BRANCH  11  12
ATOM     12  C   UNL     1      -3.894  13.113  21.317  0.00  0.00    +0.000 A 
ATOM     13  C   UNL     1      -5.032  12.587  21.969  0.00  0.00    +0.000 A 
ATOM     14  N   UNL     1      -5.920  12.057  21.123  0.00  0.00    +0.000 NA
ATOM     15  N   UNL     1      -5.360  12.251  19.910  0.00  0.00    +0.000 N 
ATOM     16  C   UNL     1      -4.160  12.904  19.977  0.00  0.00    +0.000 A 
BRANCH  15  17
ATOM     17  C   UNL     1      -5.964  11.669  18.720  0.00  0.00    +0.000 C 
BRANCH  17  18
ATOM     18  C   UNL     1      -4.926  11.085  17.798  0.00  0.00    +0.000 A 
ATOM     19  C   UNL     1      -4.175   9.963  18.180  0.00  0.00    +0.000 A 
ATOM     20  C   UNL     1      -3.187   9.454  17.337  0.00  0.00    +0.000 A 
ATOM     21  C   UNL     1      -2.941  10.057  16.105  0.00  0.00    +0.000 A 
ATOM     22  C   UNL     1      -3.686  11.166  15.710  0.00  0.00    +0.000 A 
ATOM     23  C   UNL     1      -4.673  11.679  16.553  0.00  0.00    +0.000 A 
ENDBRANCH  17  18
ENDBRANCH  15  17
ENDBRANCH  11  12
ENDBRANCH   9  11
ENDBRANCH   5   7
BRANCH   1  24
ATOM     24  S   UNL     1       1.301   9.487  18.356  0.00  0.00    +0.000 S 
ATOM     25  O   UNL     1       2.562  10.149  18.130  0.00  0.00    +0.000 OA
ATOM     26  O   UNL     1       0.100   9.884  17.648  0.00  0.00    +0.000 OA
BRANCH  24  27
ATOM     27  N   UNL     1       1.465   7.834  18.106  0.00  0.00    +0.000 NA
ATOM     28  H   UNL     1       0.577   7.342  18.194  0.00  0.00    +0.000 HD
BRANCH  27  30
ATOM     29  C   UNL     1       3.736   6.948  17.599  0.00  0.00    +0.000 C 
ATOM     30  C   UNL     1       2.607   7.060  18.629  0.00  0.00    +0.000 C 
BRANCH  30  31
ATOM     31  C   UNL     1       2.124   5.646  18.967  0.00  0.00    +0.000 A 
ATOM     32  C   UNL     1       1.950   4.683  17.963  0.00  0.00    +0.000 A 
ATOM     33  C   UNL     1       1.509   3.394  18.285  0.00  0.00    +0.000 A 
ATOM     34  C   UNL     1       1.236   3.053  19.609  0.00  0.00    +0.000 A 
ATOM     35  C   UNL     1       1.399   3.999  20.616  0.00  0.00    +0.000 A 
ATOM     36  C   UNL     1       1.840   5.285  20.299  0.00  0.00    +0.000 A 
ENDBRANCH  30  31
ENDBRANCH  27  30
ENDBRANCH  24  27
ENDBRANCH   1  24
TORSDOF 9
ENDMDL
MODEL 3
REMARK VINA RESULT:      -8.2      2.048      2.724
REMARK  Name = 
REMARK  11 active torsions:
REMARK  status: ('A' for Active; 'I' for Inactive)
REMARK    1  A    between atoms: C_1  and  C_2
REMARK    2  A    between atoms: C_2  and  N_3
REMARK    3  A    between atoms: C_2  and  C_30
REMARK    4  A    between atoms: N_3  and  S_4
REMARK    5  A    between atoms: S_4  and  C_7
REMARK    6  A    between atoms: C_11  and  C_12
REMARK    7  A    between atoms: N_14  and  C_15
REMARK    8  A    between atoms: N_14  and  C_16
REMARK    9  A    between atoms: C_16  and  C_17
REMARK   10  A    between atoms: N_20  and  C_21
REMARK   11  A    between atoms: C_21  and  C_22
REMARK                            x       y       z     vdW  Elec       q    Type
REMARK                         _______ _______ _______ _____ _____    ______ ____
ROOT
ATOM      1  C   UNL     1       2.880   4.031  18.972  0.00  0.00    +0.000 A 
ATOM      2  C   UNL     1       2.732   3.520  20.265  0.00  0.00    +0.000 A 
ATOM      3  C   UNL     1       2.306   4.357  21.295  0.00  0.00    +0.000 A 
ATOM      4  C   UNL     1       2.030   5.701  21.036  0.00  0.00    +0.000 A 
ATOM      5  C   UNL     1       2.138   6.215  19.736  0.00  0.00    +0.000 A 
ATOM      6  C   UNL     1       2.584   5.374  18.704  0.00  0.00    +0.000 A 
ENDROOT
BRANCH   5   7
ATOM      7  C   UNL     1       1.936   7.665  19.443  0.00  0.00    +0.000 C 
ATOM      8  O   UNL     1       2.446   8.082  18.402  0.00  0.00    +0.000 OA
ATOM      9  N   UNL     1       1.268   8.512  20.333  0.00  0.00    +0.000 N 
ATOM     10  C   UNL     1       0.334   8.107  21.377  0.00  0.00    +0.000 C 
BRANCH   9  11
ATOM     11  C   UNL     1       1.445   9.951  20.160  0.00  0.00    +0.000 C 
BRANCH  11  12
ATOM     12  C   UNL     1       0.121  10.619  19.995  0.00  0.00    +0.000 A 
ATOM     13  C   UNL     1      -0.645  10.740  18.814  0.00  0.00    +0.000 A 
ATOM     14  N   UNL     1      -1.742  11.485  18.975  0.00  0.00    +0.000 NA
ATOM     15  N   UNL     1      -1.696  11.842  20.276  0.00  0.00    +0.000 N 
ATOM     16  C   UNL     1      -0.612  11.324  20.932  0.00  0.00    +0.000 A 
BRANCH  15  17
ATOM     17  C   UNL     1      -2.656  12.797  20.812  0.00  0.00    +0.000 C 
BRANCH  17  18
ATOM     18  C   UNL     1      -2.002  13.779  21.748  0.00  0.00    +0.000 A 
ATOM     19  C   UNL     1      -1.230  14.840  21.252  0.00  0.00    +0.000 A 
ATOM     20  C   UNL     1      -0.593  15.719  22.129  0.00  0.00    +0.000 A 
ATOM     21  C   UNL     1      -0.723  15.550  23.506  0.00  0.00    +0.000 A 
ATOM     22  C   UNL     1      -1.495  14.506  24.011  0.00  0.00    +0.000 A 
ATOM     23  C   UNL     1      -2.129  13.622  23.136  0.00  0.00    +0.000 A 
ENDBRANCH  17  18
ENDBRANCH  15  17
ENDBRANCH  11  12
ENDBRANCH   9  11
ENDBRANCH   5   7
BRANCH   1  24
ATOM     24  S   UNL     1       3.267   2.897  17.657  0.00  0.00    +0.000 S 
ATOM     25  O   UNL     1       2.371   3.162  16.558  0.00  0.00    +0.000 OA
ATOM     26  O   UNL     1       3.332   1.591  18.283  0.00  0.00    +0.000 OA
BRANCH  24  27
ATOM     27  N   UNL     1       4.842   3.286  17.224  0.00  0.00    +0.000 NA
ATOM     28  H   UNL     1       5.498   3.143  17.990  0.00  0.00    +0.000 HD
BRANCH  27  30
ATOM     29  C   UNL     1       5.809   4.056  15.062  0.00  0.00    +0.000 C 
ATOM     30  C   UNL     1       5.172   4.462  16.395  0.00  0.00    +0.000 C 
BRANCH  30  31
ATOM     31  C   UNL     1       6.173   5.332  17.160  0.00  0.00    +0.000 A 
ATOM     32  C   UNL     1       6.852   4.837  18.281  0.00  0.00    +0.000 A 
ATOM     33  C   UNL     1       7.765   5.643  18.972  0.00  0.00    +0.000 A 
ATOM     34  C   UNL     1       8.010   6.949  18.552  0.00  0.00    +0.000 A 
ATOM     35  C   UNL     1       7.340   7.458  17.443  0.00  0.00    +0.000 A 
ATOM     36  C   UNL     1       6.429   6.657  16.752  0.00  0.00    +0.000 A 
ENDBRANCH  30  31
ENDBRANCH  27  30
ENDBRANCH  24  27
ENDBRANCH   1  24
TORSDOF 9
ENDMDL
MODEL 4
REMARK VINA RESULT:      -8.2      1.523      2.278
REMARK  Name = 
REMARK  11 active torsions:
REMARK  status: ('A' for Active; 'I' for Inactive)
REMARK    1  A    between atoms: C_1  and  C_2
REMARK    2  A    between atoms: C_2  and  N_3
REMARK    3  A    between atoms: C_2  and  C_30
REMARK    4  A    between atoms: N_3  and  S_4
REMARK    5  A    between atoms: S_4  and  C_7
REMARK    6  A    between atoms: C_11  and  C_12
REMARK    7  A    between atoms: N_14  and  C_15
REMARK    8  A    between atoms: N_14  and  C_16
REMARK    9  A    between atoms: C_16  and  C_17
REMARK   10  A    between atoms: N_20  and  C_21
REMARK   11  A    between atoms: C_21  and  C_22
REMARK                            x       y       z     vdW  Elec       q    Type
REMARK                         _______ _______ _______ _____ _____    ______ ____
ROOT
ATOM      1  C   UNL     1       2.806   3.934  18.995  0.00  0.00    +0.000 A 
ATOM      2  C   UNL     1       2.533   3.341  20.230  0.00  0.00    +0.000 A 
ATOM      3  C   UNL     1       2.055   4.121  21.282  0.00  0.00    +0.000 A 
ATOM      4  C   UNL     1       1.853   5.491  21.102  0.00  0.00    +0.000 A 
ATOM      5  C   UNL     1       2.087   6.090  19.856  0.00  0.00    +0.000 A 
ATOM      6  C   UNL     1       2.583   5.304  18.803  0.00  0.00    +0.000 A 
ENDROOT
BRANCH   5   7
ATOM      7  C   UNL     1       1.965   7.564  19.655  0.00  0.00    +0.000 C 
ATOM      8  O   UNL     1       2.521   8.021  18.655  0.00  0.00    +0.000 OA
ATOM      9  N   UNL     1       1.315   8.384  20.582  0.00  0.00    +0.000 N 
ATOM     10  C   UNL     1       0.335   7.961  21.575  0.00  0.00    +0.000 C 
BRANCH   9  11
ATOM     11  C   UNL     1       1.567   9.821  20.509  0.00  0.00    +0.000 C 
BRANCH  11  12
ATOM     12  C   UNL     1       0.396  10.522  19.906  0.00  0.00    +0.000 A 
ATOM     13  C   UNL     1       0.296  11.078  18.610  0.00  0.00    +0.000 A 
ATOM     14  N   UNL     1      -0.853  11.728  18.408  0.00  0.00    +0.000 NA
ATOM     15  N   UNL     1      -1.511  11.583  19.578  0.00  0.00    +0.000 N 
ATOM     16  C   UNL     1      -0.812  10.845  20.494  0.00  0.00    +0.000 A 
BRANCH  15  17
ATOM     17  C   UNL     1      -2.763  12.290  19.810  0.00  0.00    +0.000 C 
BRANCH  17  18
ATOM     18  C   UNL     1      -2.733  13.067  21.100  0.00  0.00    +0.000 A 
ATOM     19  C   UNL     1      -1.870  14.161  21.260  0.00  0.00    +0.000 A 
ATOM     20  C   UNL     1      -1.819  14.848  22.473  0.00  0.00    +0.000 A 
ATOM     21  C   UNL     1      -2.630  14.453  23.535  0.00  0.00    +0.000 A 
ATOM     22  C   UNL     1      -3.498  13.374  23.386  0.00  0.00    +0.000 A 
ATOM     23  C   UNL     1      -3.548  12.682  22.175  0.00  0.00    +0.000 A 
ENDBRANCH  17  18
ENDBRANCH  15  17
ENDBRANCH  11  12
ENDBRANCH   9  11
ENDBRANCH   5   7
BRANCH   1  24
ATOM     24  S   UNL     1       3.257   2.879  17.635  0.00  0.00    +0.000 S 
ATOM     25  O   UNL     1       2.368   3.162  16.534  0.00  0.00    +0.000 OA
ATOM     26  O   UNL     1       3.362   1.549  18.199  0.00  0.00    +0.000 OA
BRANCH  24  27
ATOM     27  N   UNL     1       4.822   3.348  17.247  0.00  0.00    +0.000 NA
ATOM     28  H   UNL     1       5.463   3.232  18.030  0.00  0.00    +0.000 HD
BRANCH  27  30
ATOM     29  C   UNL     1       5.702   4.173  15.068  0.00  0.00    +0.000 C 
ATOM     30  C   UNL     1       5.116   4.544  16.434  0.00  0.00    +0.000 C 
BRANCH  30  31
ATOM     31  C   UNL     1       6.144   5.400  17.180  0.00  0.00    +0.000 A 
ATOM     32  C   UNL     1       6.444   6.701  16.756  0.00  0.00    +0.000 A 
ATOM     33  C   UNL     1       7.386   7.475  17.447  0.00  0.00    +0.000 A 
ATOM     34  C   UNL     1       8.036   6.958  18.566  0.00  0.00    +0.000 A 
ATOM     35  C   UNL     1       7.751   5.666  18.998  0.00  0.00    +0.000 A 
ATOM     36  C   UNL     1       6.813   4.893  18.312  0.00  0.00    +0.000 A 
ENDBRANCH  30  31
ENDBRANCH  27  30
ENDBRANCH  24  27
ENDBRANCH   1  24
TORSDOF 9
ENDMDL
MODEL 5
REMARK VINA RESULT:      -8.2      2.242      3.764
REMARK  Name = 
REMARK  11 active torsions:
REMARK  status: ('A' for Active; 'I' for Inactive)
REMARK    1  A    between atoms: C_1  and  C_2
REMARK    2  A    between atoms: C_2  and  N_3
REMARK    3  A    between atoms: C_2  and  C_30
REMARK    4  A    between atoms: N_3  and  S_4
REMARK    5  A    between atoms: S_4  and  C_7
REMARK    6  A    between atoms: C_11  and  C_12
REMARK    7  A    between atoms: N_14  and  C_15
REMARK    8  A    between atoms: N_14  and  C_16
REMARK    9  A    between atoms: C_16  and  C_17
REMARK   10  A    between atoms: N_20  and  C_21
REMARK   11  A    between atoms: C_21  and  C_22
REMARK                            x       y       z     vdW  Elec       q    Type
REMARK                         _______ _______ _______ _____ _____    ______ ____
ROOT
ATOM      1  C   UNL     1       4.030   5.185  18.531  0.00  0.00    +0.000 A 
ATOM      2  C   UNL     1       3.281   4.643  17.482  0.00  0.00    +0.000 A 
ATOM      3  C   UNL     1       2.041   5.191  17.162  0.00  0.00    +0.000 A 
ATOM      4  C   UNL     1       1.546   6.277  17.888  0.00  0.00    +0.000 A 
ATOM      5  C   UNL     1       2.305   6.853  18.917  0.00  0.00    +0.000 A 
ATOM      6  C   UNL     1       3.547   6.288  19.248  0.00  0.00    +0.000 A 
ENDROOT
BRANCH   5   7
ATOM      7  C   UNL     1       1.768   7.955  19.768  0.00  0.00    +0.000 C 
ATOM      8  O   UNL     1       1.573   7.677  20.952  0.00  0.00    +0.000 OA
ATOM      9  N   UNL     1       1.444   9.207  19.237  0.00  0.00    +0.000 N 
ATOM     10  C   UNL     1       1.944   9.775  17.990  0.00  0.00    +0.000 C 
BRANCH   9  11
ATOM     11  C   UNL     1       0.587  10.081  20.035  0.00  0.00    +0.000 C 
BRANCH  11  12
ATOM     12  C   UNL     1      -0.351  10.833  19.152  0.00  0.00    +0.000 A 
ATOM     13  C   UNL     1      -0.272  12.189  18.764  0.00  0.00    +0.000 A 
ATOM     14  N   UNL     1      -1.325  12.590  18.046  0.00  0.00    +0.000 NA
ATOM     15  N   UNL     1      -2.089  11.481  17.956  0.00  0.00    +0.000 N 
ATOM     16  C   UNL     1      -1.533  10.399  18.581  0.00  0.00    +0.000 A 
BRANCH  15  17
ATOM     17  C   UNL     1      -3.419  11.551  17.366  0.00  0.00    +0.000 C 
BRANCH  17  18
ATOM     18  C   UNL     1      -4.498  11.510  18.416  0.00  0.00    +0.000 A 
ATOM     19  C   UNL     1      -5.560  10.598  18.321  0.00  0.00    +0.000 A 
ATOM     20  C   UNL     1      -6.577  10.597  19.276  0.00  0.00    +0.000 A 
ATOM     21  C   UNL     1      -6.542  11.501  20.335  0.00  0.00    +0.000 A 
ATOM     22  C   UNL     1      -5.488  12.406  20.446  0.00  0.00    +0.000 A 
ATOM     23  C   UNL     1      -4.472  12.412  19.490  0.00  0.00    +0.000 A 
ENDBRANCH  17  18
ENDBRANCH  15  17
ENDBRANCH  11  12
ENDBRANCH   9  11
ENDBRANCH   5   7
BRANCH   1  24
ATOM     24  S   UNL     1       5.674   4.564  18.802  0.00  0.00    +0.000 S 
ATOM     25  O   UNL     1       6.261   5.306  19.891  0.00  0.00    +0.000 OA
ATOM     26  O   UNL     1       6.293   4.528  17.491  0.00  0.00    +0.000 OA
BRANCH  24  27
ATOM     27  N   UNL     1       5.444   2.963  19.253  0.00  0.00    +0.000 NA
ATOM     28  H   UNL     1       5.217   2.368  18.458  0.00  0.00    +0.000 HD
BRANCH  27  30
ATOM     29  C   UNL     1       5.064   1.149  20.916  0.00  0.00    +0.000 C 
ATOM     30  C   UNL     1       4.726   2.579  20.483  0.00  0.00    +0.000 C 
BRANCH  30  31
ATOM     31  C   UNL     1       3.220   2.654  20.213  0.00  0.00    +0.000 A 
ATOM     32  C   UNL     1       2.382   3.448  21.008  0.00  0.00    +0.000 A 
ATOM     33  C   UNL     1       1.007   3.509  20.750  0.00  0.00    +0.000 A 
ATOM     34  C   UNL     1       0.455   2.780  19.698  0.00  0.00    +0.000 A 
ATOM     35  C   UNL     1       1.273   1.983  18.902  0.00  0.00    +0.000 A 
ATOM     36  C   UNL     1       2.644   1.920  19.156  0.00  0.00    +0.000 A 
ENDBRANCH  30  31
ENDBRANCH  27  30
ENDBRANCH  24  27
ENDBRANCH   1  24
TORSDOF 9
ENDMDL
MODEL 6
REMARK VINA RESULT:      -8.1      2.721      4.334
REMARK  Name = 
REMARK  11 active torsions:
REMARK  status: ('A' for Active; 'I' for Inactive)
REMARK    1  A    between atoms: C_1  and  C_2
REMARK    2  A    between atoms: C_2  and  N_3
REMARK    3  A    between atoms: C_2  and  C_30
REMARK    4  A    between atoms: N_3  and  S_4
REMARK    5  A    between atoms: S_4  and  C_7
REMARK    6  A    between atoms: C_11  and  C_12
REMARK    7  A    between atoms: N_14  and  C_15
REMARK    8  A    between atoms: N_14  and  C_16
REMARK    9  A    between atoms: C_16  and  C_17
REMARK   10  A    between atoms: N_20  and  C_21
REMARK   11  A    between atoms: C_21  and  C_22
REMARK                            x       y       z     vdW  Elec       q    Type
REMARK                         _______ _______ _______ _____ _____    ______ ____
ROOT
ATOM      1  C   UNL     1       5.157   5.192  17.007  0.00  0.00    +0.000 A 
ATOM      2  C   UNL     1       4.471   4.059  16.562  0.00  0.00    +0.000 A 
ATOM      3  C   UNL     1       3.173   3.817  17.006  0.00  0.00    +0.000 A 
ATOM      4  C   UNL     1       2.560   4.703  17.894  0.00  0.00    +0.000 A 
ATOM      5  C   UNL     1       3.224   5.863  18.318  0.00  0.00    +0.000 A 
ATOM      6  C   UNL     1       4.538   6.096  17.882  0.00  0.00    +0.000 A 
ENDROOT
BRANCH   5   7
ATOM      7  C   UNL     1       2.632   6.783  19.333  0.00  0.00    +0.000 C 
ATOM      8  O   UNL     1       2.669   6.394  20.502  0.00  0.00    +0.000 OA
ATOM      9  N   UNL     1       2.012   7.982  18.971  0.00  0.00    +0.000 N 
ATOM     10  C   UNL     1       2.209   8.717  17.727  0.00  0.00    +0.000 C 
BRANCH   9  11
ATOM     11  C   UNL     1       1.142   8.620  19.956  0.00  0.00    +0.000 C 
BRANCH  11  12
ATOM     12  C   UNL     1       0.721   9.969  19.478  0.00  0.00    +0.000 A 
ATOM     13  C   UNL     1       1.551  11.034  19.058  0.00  0.00    +0.000 A 
ATOM     14  N   UNL     1       0.870  12.150  18.784  0.00  0.00    +0.000 NA
ATOM     15  N   UNL     1      -0.414  11.805  19.017  0.00  0.00    +0.000 N 
ATOM     16  C   UNL     1      -0.553  10.501  19.408  0.00  0.00    +0.000 A 
BRANCH  15  17
ATOM     17  C   UNL     1      -1.466  12.812  18.973  0.00  0.00    +0.000 C 
BRANCH  17  18
ATOM     18  C   UNL     1      -2.288  12.813  20.235  0.00  0.00    +0.000 A 
ATOM     19  C   UNL     1      -1.675  12.930  21.492  0.00  0.00    +0.000 A 
ATOM     20  C   UNL     1      -2.441  12.887  22.658  0.00  0.00    +0.000 A 
ATOM     21  C   UNL     1      -3.824  12.732  22.580  0.00  0.00    +0.000 A 
ATOM     22  C   UNL     1      -4.445  12.624  21.338  0.00  0.00    +0.000 A 
ATOM     23  C   UNL     1      -3.681  12.662  20.171  0.00  0.00    +0.000 A 
ENDBRANCH  17  18
ENDBRANCH  15  17
ENDBRANCH  11  12
ENDBRANCH   9  11
ENDBRANCH   5   7
BRANCH   1  24
ATOM     24  S   UNL     1       6.746   5.551  16.292  0.00  0.00    +0.000 S 
ATOM     25  O   UNL     1       7.665   4.517  16.701  0.00  0.00    +0.000 OA
ATOM     26  O   UNL     1       6.996   6.946  16.592  0.00  0.00    +0.000 OA
BRANCH  24  27
ATOM     27  N   UNL     1       6.485   5.468  14.636  0.00  0.00    +0.000 NA
ATOM     28  H   UNL     1       5.495   5.388  14.406  0.00  0.00    +0.000 HD
BRANCH  27  30
ATOM     29  C   UNL     1       8.216   5.593  12.850  0.00  0.00    +0.000 C 
ATOM     30  C   UNL     1       7.351   4.687  13.731  0.00  0.00    +0.000 C 
BRANCH  30  31
ATOM     31  C   UNL     1       6.462   3.837  12.819  0.00  0.00    +0.000 A 
ATOM     32  C   UNL     1       5.086   4.082  12.719  0.00  0.00    +0.000 A 
ATOM     33  C   UNL     1       4.283   3.298  11.880  0.00  0.00    +0.000 A 
ATOM     34  C   UNL     1       4.845   2.263  11.135  0.00  0.00    +0.000 A 
ATOM     35  C   UNL     1       6.209   2.003  11.226  0.00  0.00    +0.000 A 
ATOM     36  C   UNL     1       7.012   2.784  12.061  0.00  0.00    +0.000 A 
ENDBRANCH  30  31
ENDBRANCH  27  30
ENDBRANCH  24  27
ENDBRANCH   1  24
TORSDOF 9
ENDMDL
MODEL 7
REMARK VINA RESULT:      -8.1      1.751      2.790
REMARK  Name = 
REMARK  11 active torsions:
REMARK  status: ('A' for Active; 'I' for Inactive)
REMARK    1  A    between atoms: C_1  and  C_2
REMARK    2  A    between atoms: C_2  and  N_3
REMARK    3  A    between atoms: C_2  and  C_30
REMARK    4  A    between atoms: N_3  and  S_4
REMARK    5  A    between atoms: S_4  and  C_7
REMARK    6  A    between atoms: C_11  and  C_12
REMARK    7  A    between atoms: N_14  and  C_15
REMARK    8  A    between atoms: N_14  and  C_16
REMARK    9  A    between atoms: C_16  and  C_17
REMARK   10  A    between atoms: N_20  and  C_21
REMARK   11  A    between atoms: C_21  and  C_22
REMARK                            x       y       z     vdW  Elec       q    Type
REMARK                         _______ _______ _______ _____ _____    ______ ____
ROOT
ATOM      1  C   UNL     1       3.233   4.590  19.481  0.00  0.00    +0.000 A 
ATOM      2  C   UNL     1       2.229   3.786  20.028  0.00  0.00    +0.000 A 
ATOM      3  C   UNL     1       1.091   4.377  20.573  0.00  0.00    +0.000 A 
ATOM      4  C   UNL     1       0.955   5.767  20.575  0.00  0.00    +0.000 A 
ATOM      5  C   UNL     1       1.937   6.581  19.995  0.00  0.00    +0.000 A 
ATOM      6  C   UNL     1       3.091   5.984  19.461  0.00  0.00    +0.000 A 
ENDROOT
BRANCH   5   7
ATOM      7  C   UNL     1       1.864   8.070  20.058  0.00  0.00    +0.000 C 
ATOM      8  O   UNL     1       1.750   8.559  21.184  0.00  0.00    +0.000 OA
ATOM      9  N   UNL     1       1.857   8.859  18.904  0.00  0.00    +0.000 N 
ATOM     10  C   UNL     1       2.337   8.466  17.584  0.00  0.00    +0.000 C 
BRANCH   9  11
ATOM     11  C   UNL     1       1.406  10.243  19.032  0.00  0.00    +0.000 C 
BRANCH  11  12
ATOM     12  C   UNL     1      -0.070  10.327  18.832  0.00  0.00    +0.000 A 
ATOM     13  C   UNL     1      -1.032  10.859  19.721  0.00  0.00    +0.000 A 
ATOM     14  N   UNL     1      -2.286  10.696  19.291  0.00  0.00    +0.000 NA
ATOM     15  N   UNL     1      -2.138  10.064  18.108  0.00  0.00    +0.000 N 
ATOM     16  C   UNL     1      -0.827   9.847  17.781  0.00  0.00    +0.000 A 
BRANCH  15  17
ATOM     17  C   UNL     1      -3.303   9.569  17.387  0.00  0.00    +0.000 C 
BRANCH  17  18
ATOM     18  C   UNL     1      -4.490  10.481  17.556  0.00  0.00    +0.000 A 
ATOM     19  C   UNL     1      -4.576  11.687  16.845  0.00  0.00    +0.000 A 
ATOM     20  C   UNL     1      -5.660  12.545  17.039  0.00  0.00    +0.000 A 
ATOM     21  C   UNL     1      -6.666  12.206  17.941  0.00  0.00    +0.000 A 
ATOM     22  C   UNL     1      -6.597  11.007  18.646  0.00  0.00    +0.000 A 
ATOM     23  C   UNL     1      -5.513  10.149  18.457  0.00  0.00    +0.000 A 
ENDBRANCH  17  18
ENDBRANCH  15  17
ENDBRANCH  11  12
ENDBRANCH   9  11
ENDBRANCH   5   7
BRANCH   1  24
ATOM     24  S   UNL     1       4.591   3.795  18.651  0.00  0.00    +0.000 S 
ATOM     25  O   UNL     1       4.289   2.389  18.542  0.00  0.00    +0.000 OA
ATOM     26  O   UNL     1       5.783   4.263  19.329  0.00  0.00    +0.000 OA
BRANCH  24  27
ATOM     27  N   UNL     1       4.615   4.498  17.126  0.00  0.00    +0.000 NA
ATOM     28  H   UNL     1       4.228   3.883  16.412  0.00  0.00    +0.000 HD
BRANCH  27  30
ATOM     29  C   UNL     1       5.417   6.796  16.600  0.00  0.00    +0.000 C 
ATOM     30  C   UNL     1       5.752   5.302  16.638  0.00  0.00    +0.000 C 
BRANCH  30  31
ATOM     31  C   UNL     1       6.094   4.850  15.215  0.00  0.00    +0.000 A 
ATOM     32  C   UNL     1       7.278   5.264  14.590  0.00  0.00    +0.000 A 
ATOM     33  C   UNL     1       7.579   4.844  13.289  0.00  0.00    +0.000 A 
ATOM     34  C   UNL     1       6.703   4.008  12.599  0.00  0.00    +0.000 A 
ATOM     35  C   UNL     1       5.521   3.591  13.203  0.00  0.00    +0.000 A 
ATOM     36  C   UNL     1       5.218   4.008  14.501  0.00  0.00    +0.000 A 
ENDBRANCH  30  31
ENDBRANCH  27  30
ENDBRANCH  24  27
ENDBRANCH   1  24
TORSDOF 9
ENDMDL
MODEL 8
REMARK VINA RESULT:      -8.1      1.346      1.884
REMARK  Name = 
REMARK  11 active torsions:
REMARK  status: ('A' for Active; 'I' for Inactive)
REMARK    1  A    between atoms: C_1  and  C_2
REMARK    2  A    between atoms: C_2  and  N_3
REMARK    3  A    between atoms: C_2  and  C_30
REMARK    4  A    between atoms: N_3  and  S_4
REMARK    5  A    between atoms: S_4  and  C_7
REMARK    6  A    between atoms: C_11  and  C_12
REMARK    7  A    between atoms: N_14  and  C_15
REMARK    8  A    between atoms: N_14  and  C_16
REMARK    9  A    between atoms: C_16  and  C_17
REMARK   10  A    between atoms: N_20  and  C_21
REMARK   11  A    between atoms: C_21  and  C_22
REMARK                            x       y       z     vdW  Elec       q    Type
REMARK                         _______ _______ _______ _____ _____    ______ ____
ROOT
ATOM      1  C   UNL     1       2.563   3.876  18.909  0.00  0.00    +0.000 A 
ATOM      2  C   UNL     1       1.783   3.292  19.911  0.00  0.00    +0.000 A 
ATOM      3  C   UNL     1       1.118   4.102  20.830  0.00  0.00    +0.000 A 
ATOM      4  C   UNL     1       1.233   5.492  20.752  0.00  0.00    +0.000 A 
ATOM      5  C   UNL     1       1.982   6.090  19.728  0.00  0.00    +0.000 A 
ATOM      6  C   UNL     1       2.664   5.271  18.813  0.00  0.00    +0.000 A 
ENDROOT
BRANCH   5   7
ATOM      7  C   UNL     1       2.196   7.565  19.668  0.00  0.00    +0.000 C 
ATOM      8  O   UNL     1       2.009   8.182  20.718  0.00  0.00    +0.000 OA
ATOM      9  N   UNL     1       2.524   8.216  18.474  0.00  0.00    +0.000 N 
ATOM     10  C   UNL     1       3.114   7.605  17.289  0.00  0.00    +0.000 C 
BRANCH   9  11
ATOM     11  C   UNL     1       2.342   9.664  18.420  0.00  0.00    +0.000 C 
BRANCH  11  12
ATOM     12  C   UNL     1       0.891  10.002  18.342  0.00  0.00    +0.000 A 
ATOM     13  C   UNL     1      -0.140   9.246  17.739  0.00  0.00    +0.000 A 
ATOM     14  N   UNL     1      -1.320   9.871  17.750  0.00  0.00    +0.000 NA
ATOM     15  N   UNL     1      -1.058  11.037  18.378  0.00  0.00    +0.000 N 
ATOM     16  C   UNL     1       0.247  11.146  18.774  0.00  0.00    +0.000 A 
BRANCH  15  17
ATOM     17  C   UNL     1      -2.076  12.076  18.456  0.00  0.00    +0.000 C 
BRANCH  17  18
ATOM     18  C   UNL     1      -2.587  12.250  19.862  0.00  0.00    +0.000 A 
ATOM     19  C   UNL     1      -3.919  12.621  20.100  0.00  0.00    +0.000 A 
ATOM     20  C   UNL     1      -4.373  12.821  21.405  0.00  0.00    +0.000 A 
ATOM     21  C   UNL     1      -3.504  12.650  22.481  0.00  0.00    +0.000 A 
ATOM     22  C   UNL     1      -2.182  12.273  22.257  0.00  0.00    +0.000 A 
ATOM     23  C   UNL     1      -1.725  12.076  20.954  0.00  0.00    +0.000 A 
ENDBRANCH  17  18
ENDBRANCH  15  17
ENDBRANCH  11  12
ENDBRANCH   9  11
ENDBRANCH   5   7
BRANCH   1  24
ATOM     24  S   UNL     1       3.261   2.819  17.661  0.00  0.00    +0.000 S 
ATOM     25  O   UNL     1       2.558   3.059  16.424  0.00  0.00    +0.000 OA
ATOM     26  O   UNL     1       3.311   1.499  18.259  0.00  0.00    +0.000 OA
BRANCH  24  27
ATOM     27  N   UNL     1       4.855   3.331  17.526  0.00  0.00    +0.000 NA
ATOM     28  H   UNL     1       5.314   3.402  18.432  0.00  0.00    +0.000 HD
BRANCH  27  30
ATOM     29  C   UNL     1       5.971   3.805  15.351  0.00  0.00    +0.000 C 
ATOM     30  C   UNL     1       5.274   4.388  16.584  0.00  0.00    +0.000 C 
BRANCH  30  31
ATOM     31  C   UNL     1       6.260   5.315  17.300  0.00  0.00    +0.000 A 
ATOM     32  C   UNL     1       6.875   4.929  18.498  0.00  0.00    +0.000 A 
ATOM     33  C   UNL     1       7.776   5.786  19.143  0.00  0.00    +0.000 A 
ATOM     34  C   UNL     1       8.071   7.035  18.600  0.00  0.00    +0.000 A 
ATOM     35  C   UNL     1       7.465   7.436  17.412  0.00  0.00    +0.000 A 
ATOM     36  C   UNL     1       6.567   6.584  16.767  0.00  0.00    +0.000 A 
ENDBRANCH  30  31
ENDBRANCH  27  30
ENDBRANCH  24  27
ENDBRANCH   1  24
TORSDOF 9
ENDMDL
MODEL 9
REMARK VINA RESULT:      -8.0      1.795      2.531
REMARK  Name = 
REMARK  11 active torsions:
REMARK  status: ('A' for Active; 'I' for Inactive)
REMARK    1  A    between atoms: C_1  and  C_2
REMARK    2  A    between atoms: C_2  and  N_3
REMARK    3  A    between atoms: C_2  and  C_30
REMARK    4  A    between atoms: N_3  and  S_4
REMARK    5  A    between atoms: S_4  and  C_7
REMARK    6  A    between atoms: C_11  and  C_12
REMARK    7  A    between atoms: N_14  and  C_15
REMARK    8  A    between atoms: N_14  and  C_16
REMARK    9  A    between atoms: C_16  and  C_17
REMARK   10  A    between atoms: N_20  and  C_21
REMARK   11  A    between atoms: C_21  and  C_22
REMARK                            x       y       z     vdW  Elec       q    Type
REMARK                         _______ _______ _______ _____ _____    ______ ____
ROOT
ATOM      1  C   UNL     1       2.630   3.824  18.905  0.00  0.00    +0.000 A 
ATOM      2  C   UNL     1       1.868   3.203  19.899  0.00  0.00    +0.000 A 
ATOM      3  C   UNL     1       1.191   3.979  20.837  0.00  0.00    +0.000 A 
ATOM      4  C   UNL     1       1.277   5.372  20.787  0.00  0.00    +0.000 A 
ATOM      5  C   UNL     1       2.007   6.007  19.772  0.00  0.00    +0.000 A 
ATOM      6  C   UNL     1       2.701   5.221  18.837  0.00  0.00    +0.000 A 
ENDROOT
BRANCH   5   7
ATOM      7  C   UNL     1       2.190   7.488  19.741  0.00  0.00    +0.000 C 
ATOM      8  O   UNL     1       2.084   8.068  20.823  0.00  0.00    +0.000 OA
ATOM      9  N   UNL     1       2.402   8.180  18.546  0.00  0.00    +0.000 N 
ATOM     10  C   UNL     1       2.898   7.618  17.295  0.00  0.00    +0.000 C 
BRANCH   9  11
ATOM     11  C   UNL     1       2.191   9.626  18.554  0.00  0.00    +0.000 C 
BRANCH  11  12
ATOM     12  C   UNL     1       0.734   9.937  18.618  0.00  0.00    +0.000 A 
ATOM     13  C   UNL     1      -0.242   9.714  17.619  0.00  0.00    +0.000 A 
ATOM     14  N   UNL     1      -1.443  10.196  17.946  0.00  0.00    +0.000 NA
ATOM     15  N   UNL     1      -1.252  10.725  19.173  0.00  0.00    +0.000 N 
ATOM     16  C   UNL     1       0.030  10.569  19.626  0.00  0.00    +0.000 A 
BRANCH  15  17
ATOM     17  C   UNL     1      -2.310  11.492  19.817  0.00  0.00    +0.000 C 
BRANCH  17  18
ATOM     18  C   UNL     1      -1.758  12.463  20.828  0.00  0.00    +0.000 A 
ATOM     19  C   UNL     1      -1.829  12.187  22.202  0.00  0.00    +0.000 A 
ATOM     20  C   UNL     1      -1.352  13.112  23.133  0.00  0.00    +0.000 A 
ATOM     21  C   UNL     1      -0.800  14.316  22.701  0.00  0.00    +0.000 A 
ATOM     22  C   UNL     1      -0.715  14.597  21.340  0.00  0.00    +0.000 A 
ATOM     23  C   UNL     1      -1.194  13.676  20.407  0.00  0.00    +0.000 A 
ENDBRANCH  17  18
ENDBRANCH  15  17
ENDBRANCH  11  12
ENDBRANCH   9  11
ENDBRANCH   5   7
BRANCH   1  24
ATOM     24  S   UNL     1       3.343   2.807  17.631  0.00  0.00    +0.000 S 
ATOM     25  O   UNL     1       2.614   3.041  16.409  0.00  0.00    +0.000 OA
ATOM     26  O   UNL     1       3.444   1.481  18.209  0.00  0.00    +0.000 OA
BRANCH  24  27
ATOM     27  N   UNL     1       4.917   3.372  17.481  0.00  0.00    +0.000 NA
ATOM     28  H   UNL     1       5.394   3.425  18.380  0.00  0.00    +0.000 HD
BRANCH  27  30
ATOM     29  C   UNL     1       5.947   3.954  15.290  0.00  0.00    +0.000 C 
ATOM     30  C   UNL     1       5.283   4.473  16.569  0.00  0.00    +0.000 C 
BRANCH  30  31
ATOM     31  C   UNL     1       6.277   5.391  17.287  0.00  0.00    +0.000 A 
ATOM     32  C   UNL     1       6.907   4.987  18.472  0.00  0.00    +0.000 A 
ATOM     33  C   UNL     1       7.815   5.835  19.119  0.00  0.00    +0.000 A 
ATOM     34  C   UNL     1       8.102   7.092  18.591  0.00  0.00    +0.000 A 
ATOM     35  C   UNL     1       7.482   7.510  17.417  0.00  0.00    +0.000 A 
ATOM     36  C   UNL     1       6.577   6.667  16.770  0.00  0.00    +0.000 A 
ENDBRANCH  30  31
ENDBRANCH  27  30
ENDBRANCH  24  27
ENDBRANCH   1  24
TORSDOF 9
ENDMDL
