MODEL 1
REMARK VINA RESULT:      -8.3      0.000      0.000
REMARK  Name = 
REMARK  6 active torsions:
REMARK  status: ('A' for Active; 'I' for Inactive)
REMARK    1  A    between atoms: C_2  and  C_4
REMARK    2  A    between atoms: C_6  and  N_7
REMARK    3  A    between atoms: C_8  and  C_10
REMARK    4  A    between atoms: C_13  and  N_14
REMARK    5  A    between atoms: N_14  and  S_15
REMARK    6  A    between atoms: S_15  and  C_18
REMARK                            x       y       z     vdW  Elec       q    Type
REMARK                         _______ _______ _______ _____ _____    ______ ____
ROOT
ATOM      1  C   UNL     1       0.548   9.533  20.234  0.00  0.00    +0.000 A 
ATOM      2  C   UNL     1       1.260   9.427  19.034  0.00  0.00    +0.000 A 
ATOM      3  C   UNL     1       2.108   8.323  18.821  0.00  0.00    +0.000 A 
ATOM      4  C   UNL     1       2.237   7.336  19.802  0.00  0.00    +0.000 A 
ATOM      5  C   UNL     1       1.510   7.424  20.982  0.00  0.00    +0.000 A 
ATOM      6  C   UNL     1       0.677   8.517  21.197  0.00  0.00    +0.000 A 
ENDROOT
BRANCH   1   8
ATOM      7  N   UNL     1      -0.425  10.984  21.989  0.00  0.00    +0.000 N 
ATOM      8  C   UNL     1      -0.270  10.710  20.636  0.00  0.00    +0.000 C 
ATOM      9  O   UNL     1      -0.744  11.369  19.717  0.00  0.00    +0.000 OA
ATOM     10  H   UNL     1       0.066  10.402  22.653  0.00  0.00    +0.000 HD
BRANCH   7  13
ATOM     11  C   UNL     1      -3.211  13.053  23.471  0.00  0.00    +0.000 A 
ATOM     12  C   UNL     1      -2.504  11.956  22.950  0.00  0.00    +0.000 A 
ATOM     13  C   UNL     1      -1.173  12.069  22.525  0.00  0.00    +0.000 A 
ATOM     14  C   UNL     1      -0.546  13.316  22.634  0.00  0.00    +0.000 A 
ATOM     15  C   UNL     1      -1.237  14.416  23.158  0.00  0.00    +0.000 A 
ATOM     16  C   UNL     1      -2.562  14.279  23.570  0.00  0.00    +0.000 A 
ATOM     17  F   UNL     1      -3.186  15.361  24.061  0.00  0.00    +0.000 F 
BRANCH  11  19
ATOM     18  N   UNL     1      -4.868  12.036  24.961  0.00  0.00    +0.000 N 
ATOM     19  C   UNL     1      -4.626  12.840  23.884  0.00  0.00    +0.000 C 
ATOM     20  O   UNL     1      -5.561  13.360  23.291  0.00  0.00    +0.000 OA
ATOM     21  H   UNL     1      -5.831  11.902  25.236  0.00  0.00    +0.000 HD
ATOM     22  H   UNL     1      -4.136  11.583  25.493  0.00  0.00    +0.000 HD
ENDBRANCH  11  19
ENDBRANCH   7  13
ENDBRANCH   1   8
BRANCH   4  23
ATOM     23  N   UNL     1       3.111   6.233  19.651  0.00  0.00    +0.000 N 
ATOM     24  H   UNL     1       3.704   5.947  20.428  0.00  0.00    +0.000 HD
BRANCH  23  25
ATOM     25  S   UNL     1       2.725   4.990  18.585  0.00  0.00    +0.000 S 
ATOM     26  O   UNL     1       2.911   3.761  19.328  0.00  0.00    +0.000 OA
ATOM     27  O   UNL     1       1.460   5.290  17.951  0.00  0.00    +0.000 OA
BRANCH  25  28
ATOM     28  C   UNL     1       4.008   5.065  17.348  0.00  0.00    +0.000 A 
ATOM     29  C   UNL     1       4.575   6.293  16.987  0.00  0.00    +0.000 A 
ATOM     30  C   UNL     1       5.615   6.317  16.050  0.00  0.00    +0.000 A 
ATOM     31  C   UNL     1       6.077   5.125  15.498  0.00  0.00    +0.000 A 
ATOM     32  F   UNL     1       7.074   5.156  14.604  0.00  0.00    +0.000 F 
ATOM     33  C   UNL     1       5.527   3.901  15.866  0.00  0.00    +0.000 A 
ATOM     34  C   UNL     1       4.493   3.868  16.802  0.00  0.00    +0.000 A 
ENDBRANCH  25  28
ENDBRANCH  23  25
ENDBRANCH   4  23
TORSDOF 6
ENDMDL
MODEL 2
REMARK VINA RESULT:      -8.2      1.086      1.426
REMARK  Name = 
REMARK  6 active torsions:
REMARK  status: ('A' for Active; 'I' for Inactive)
REMARK    1  A    between atoms: C_2  and  C_4
REMARK    2  A    between atoms: C_6  and  N_7
REMARK    3  A    between atoms: C_8  and  C_10
REMARK    4  A    between atoms: C_13  and  N_14
REMARK    5  A    between atoms: N_14  and  S_15
REMARK    6  A    between atoms: S_15  and  C_18
REMARK                            x       y       z     vdW  Elec       q    Type
REMARK                         _______ _______ _______ _____ _____    ______ ____
ROOT
ATOM      1  C   UNL     1       0.536   9.784  20.798  0.00  0.00    +0.000 A 
ATOM      2  C   UNL     1       0.630  10.184  19.460  0.00  0.00    +0.000 A 
ATOM      3  C   UNL     1       1.370   9.405  18.550  0.00  0.00    +0.000 A 
ATOM      4  C   UNL     1       2.005   8.236  18.979  0.00  0.00    +0.000 A 
ATOM      5  C   UNL     1       1.890   7.822  20.299  0.00  0.00    +0.000 A 
ATOM      6  C   UNL     1       1.165   8.593  21.201  0.00  0.00    +0.000 A 
ENDROOT
BRANCH   1   8
ATOM      7  N   UNL     1      -0.918  11.650  21.533  0.00  0.00    +0.000 N 
ATOM      8  C   UNL     1      -0.097  10.584  21.883  0.00  0.00    +0.000 C 
ATOM      9  O   UNL     1       0.152  10.223  23.027  0.00  0.00    +0.000 OA
ATOM     10  H   UNL     1      -1.096  11.813  20.552  0.00  0.00    +0.000 HD
BRANCH   7  13
ATOM     11  C   UNL     1      -3.563  13.204  23.730  0.00  0.00    +0.000 A 
ATOM     12  C   UNL     1      -2.933  12.338  22.820  0.00  0.00    +0.000 A 
ATOM     13  C   UNL     1      -1.590  12.502  22.453  0.00  0.00    +0.000 A 
ATOM     14  C   UNL     1      -0.870  13.559  23.024  0.00  0.00    +0.000 A 
ATOM     15  C   UNL     1      -1.484  14.425  23.937  0.00  0.00    +0.000 A 
ATOM     16  C   UNL     1      -2.823  14.244  24.283  0.00  0.00    +0.000 A 
ATOM     17  F   UNL     1      -3.371  15.100  25.159  0.00  0.00    +0.000 F 
BRANCH  11  19
ATOM     18  N   UNL     1      -5.300  11.972  24.940  0.00  0.00    +0.000 N 
ATOM     19  C   UNL     1      -4.997  12.960  24.048  0.00  0.00    +0.000 C 
ATOM     20  O   UNL     1      -5.896  13.613  23.536  0.00  0.00    +0.000 OA
ATOM     21  H   UNL     1      -6.275  11.818  25.153  0.00  0.00    +0.000 HD
ATOM     22  H   UNL     1      -4.599  11.402  25.398  0.00  0.00    +0.000 HD
ENDBRANCH  11  19
ENDBRANCH   7  13
ENDBRANCH   1   8
BRANCH   4  23
ATOM     23  N   UNL     1       2.797   7.446  18.110  0.00  0.00    +0.000 N 
ATOM     24  H   UNL     1       3.540   7.880  17.568  0.00  0.00    +0.000 HD
BRANCH  23  25
ATOM     25  S   UNL     1       3.050   5.817  18.448  0.00  0.00    +0.000 S 
ATOM     26  O   UNL     1       3.722   5.780  19.730  0.00  0.00    +0.000 OA
ATOM     27  O   UNL     1       1.814   5.095  18.236  0.00  0.00    +0.000 OA
BRANCH  25  28
ATOM     28  C   UNL     1       4.227   5.296  17.213  0.00  0.00    +0.000 A 
ATOM     29  C   UNL     1       4.472   3.935  16.996  0.00  0.00    +0.000 A 
ATOM     30  C   UNL     1       5.364   3.553  15.986  0.00  0.00    +0.000 A 
ATOM     31  C   UNL     1       5.985   4.526  15.207  0.00  0.00    +0.000 A 
ATOM     32  F   UNL     1       6.835   4.152  14.241  0.00  0.00    +0.000 F 
ATOM     33  C   UNL     1       5.732   5.878  15.409  0.00  0.00    +0.000 A 
ATOM     34  C   UNL     1       4.842   6.268  16.411  0.00  0.00    +0.000 A 
ENDBRANCH  25  28
ENDBRANCH  23  25
ENDBRANCH   4  23
TORSDOF 6
ENDMDL
MODEL 3
REMARK VINA RESULT:      -8.2      3.991      4.766
REMARK  Name = 
REMARK  6 active torsions:
REMARK  status: ('A' for Active; 'I' for Inactive)
REMARK    1  A    between atoms: C_2  and  C_4
REMARK    2  A    between atoms: C_6  and  N_7
REMARK    3  A    between atoms: C_8  and  C_10
REMARK    4  A    between atoms: C_13  and  N_14
REMARK    5  A    between atoms: N_14  and  S_15
REMARK    6  A    between atoms: S_15  and  C_18
REMARK                            x       y       z     vdW  Elec       q    Type
REMARK                         _______ _______ _______ _____ _____    ______ ____
ROOT
ATOM      1  C   UNL     1       2.077   7.533  18.727  0.00  0.00    +0.000 A 
ATOM      2  C   UNL     1       2.201   7.074  20.042  0.00  0.00    +0.000 A 
ATOM      3  C   UNL     1       2.324   5.693  20.290  0.00  0.00    +0.000 A 
ATOM      4  C   UNL     1       2.327   4.785  19.227  0.00  0.00    +0.000 A 
ATOM      5  C   UNL     1       2.233   5.241  17.919  0.00  0.00    +0.000 A 
ATOM      6  C   UNL     1       2.104   6.604  17.672  0.00  0.00    +0.000 A 
ENDROOT
BRANCH   1   8
ATOM      7  N   UNL     1       1.109   9.757  19.230  0.00  0.00    +0.000 N 
ATOM      8  C   UNL     1       1.804   8.946  18.341  0.00  0.00    +0.000 C 
ATOM      9  O   UNL     1       2.235   9.293  17.248  0.00  0.00    +0.000 OA
ATOM     10  H   UNL     1       0.858   9.373  20.130  0.00  0.00    +0.000 HD
BRANCH   7  13
ATOM     11  C   UNL     1       1.358  13.485  18.701  0.00  0.00    +0.000 A 
ATOM     12  C   UNL     1       1.728  12.147  18.921  0.00  0.00    +0.000 A 
ATOM     13  C   UNL     1       0.776  11.121  19.004  0.00  0.00    +0.000 A 
ATOM     14  C   UNL     1      -0.575  11.457  18.854  0.00  0.00    +0.000 A 
ATOM     15  C   UNL     1      -0.956  12.785  18.627  0.00  0.00    +0.000 A 
ATOM     16  C   UNL     1       0.009  13.789  18.553  0.00  0.00    +0.000 A 
ATOM     17  F   UNL     1      -0.403  15.048  18.338  0.00  0.00    +0.000 F 
BRANCH  11  19
ATOM     18  N   UNL     1       3.339  14.436  17.617  0.00  0.00    +0.000 N 
ATOM     19  C   UNL     1       2.440  14.508  18.641  0.00  0.00    +0.000 C 
ATOM     20  O   UNL     1       2.538  15.396  19.476  0.00  0.00    +0.000 OA
ATOM     21  H   UNL     1       4.065  15.137  17.583  0.00  0.00    +0.000 HD
ATOM     22  H   UNL     1       3.305  13.726  16.895  0.00  0.00    +0.000 HD
ENDBRANCH  11  19
ENDBRANCH   7  13
ENDBRANCH   1   8
BRANCH   4  23
ATOM     23  N   UNL     1       2.404   3.387  19.430  0.00  0.00    +0.000 N 
ATOM     24  H   UNL     1       1.569   2.814  19.329  0.00  0.00    +0.000 HD
BRANCH  23  25
ATOM     25  S   UNL     1       3.842   2.567  19.127  0.00  0.00    +0.000 S 
ATOM     26  O   UNL     1       4.381   2.223  20.426  0.00  0.00    +0.000 OA
ATOM     27  O   UNL     1       3.602   1.548  18.129  0.00  0.00    +0.000 OA
BRANCH  25  28
ATOM     28  C   UNL     1       4.909   3.809  18.420  0.00  0.00    +0.000 A 
ATOM     29  C   UNL     1       5.631   4.679  19.245  0.00  0.00    +0.000 A 
ATOM     30  C   UNL     1       6.499   5.611  18.664  0.00  0.00    +0.000 A 
ATOM     31  C   UNL     1       6.640   5.656  17.279  0.00  0.00    +0.000 A 
ATOM     32  F   UNL     1       7.474   6.549  16.731  0.00  0.00    +0.000 F 
ATOM     33  C   UNL     1       5.936   4.784  16.456  0.00  0.00    +0.000 A 
ATOM     34  C   UNL     1       5.071   3.848  17.028  0.00  0.00    +0.000 A 
ENDBRANCH  25  28
ENDBRANCH  23  25
ENDBRANCH   4  23
TORSDOF 6
ENDMDL
MODEL 4
REMARK VINA RESULT:      -8.2      3.967      4.943
REMARK  Name = 
REMARK  6 active torsions:
REMARK  status: ('A' for Active; 'I' for Inactive)
REMARK    1  A    between atoms: C_2  and  C_4
REMARK    2  A    between atoms: C_6  and  N_7
REMARK    3  A    between atoms: C_8  and  C_10
REMARK    4  A    between atoms: C_13  and  N_14
REMARK    5  A    between atoms: N_14  and  S_15
REMARK    6  A    between atoms: S_15  and  C_18
REMARK                            x       y       z     vdW  Elec       q    Type
REMARK                         _______ _______ _______ _____ _____    ______ ____
ROOT
ATOM      1  C   UNL     1       1.810   7.568  19.614  0.00  0.00    +0.000 A 
ATOM      2  C   UNL     1       1.672   6.610  20.624  0.00  0.00    +0.000 A 
ATOM      3  C   UNL     1       1.842   5.245  20.319  0.00  0.00    +0.000 A 
ATOM      4  C   UNL     1       2.151   4.850  19.014  0.00  0.00    +0.000 A 
ATOM      5  C   UNL     1       2.317   5.801  18.016  0.00  0.00    +0.000 A 
ATOM      6  C   UNL     1       2.142   7.149  18.314  0.00  0.00    +0.000 A 
ENDROOT
BRANCH   1   8
ATOM      7  N   UNL     1       1.484   9.823  18.641  0.00  0.00    +0.000 N 
ATOM      8  C   UNL     1       1.523   9.021  19.775  0.00  0.00    +0.000 C 
ATOM      9  O   UNL     1       1.326   9.401  20.924  0.00  0.00    +0.000 OA
ATOM     10  H   UNL     1       1.603   9.381  17.740  0.00  0.00    +0.000 HD
BRANCH   7  13
ATOM     11  C   UNL     1       1.927  13.569  18.558  0.00  0.00    +0.000 A 
ATOM     12  C   UNL     1       2.227  12.196  18.556  0.00  0.00    +0.000 A 
ATOM     13  C   UNL     1       1.223  11.221  18.636  0.00  0.00    +0.000 A 
ATOM     14  C   UNL     1      -0.109  11.645  18.713  0.00  0.00    +0.000 A 
ATOM     15  C   UNL     1      -0.421  13.011  18.708  0.00  0.00    +0.000 A 
ATOM     16  C   UNL     1       0.596  13.962  18.632  0.00  0.00    +0.000 A 
ATOM     17  F   UNL     1       0.250  15.259  18.635  0.00  0.00    +0.000 F 
BRANCH  11  19
ATOM     18  N   UNL     1       3.425  15.005  17.256  0.00  0.00    +0.000 N 
ATOM     19  C   UNL     1       3.062  14.531  18.483  0.00  0.00    +0.000 C 
ATOM     20  O   UNL     1       3.666  14.900  19.481  0.00  0.00    +0.000 OA
ATOM     21  H   UNL     1       4.192  15.661  17.217  0.00  0.00    +0.000 HD
ATOM     22  H   UNL     1       2.960  14.740  16.397  0.00  0.00    +0.000 HD
ENDBRANCH  11  19
ENDBRANCH   7  13
ENDBRANCH   1   8
BRANCH   4  23
ATOM     23  N   UNL     1       2.287   3.489  18.651  0.00  0.00    +0.000 N 
ATOM     24  H   UNL     1       1.712   3.104  17.904  0.00  0.00    +0.000 HD
BRANCH  23  25
ATOM     25  S   UNL     1       3.759   2.702  18.863  0.00  0.00    +0.000 S 
ATOM     26  O   UNL     1       3.957   2.614  20.295  0.00  0.00    +0.000 OA
ATOM     27  O   UNL     1       3.780   1.514  18.037  0.00  0.00    +0.000 OA
BRANCH  25  28
ATOM     28  C   UNL     1       4.962   3.853  18.226  0.00  0.00    +0.000 A 
ATOM     29  C   UNL     1       5.158   3.985  16.847  0.00  0.00    +0.000 A 
ATOM     30  C   UNL     1       6.074   4.933  16.373  0.00  0.00    +0.000 A 
ATOM     31  C   UNL     1       6.769   5.734  17.275  0.00  0.00    +0.000 A 
ATOM     32  F   UNL     1       7.642   6.640  16.814  0.00  0.00    +0.000 F 
ATOM     33  C   UNL     1       6.566   5.617  18.646  0.00  0.00    +0.000 A 
ATOM     34  C   UNL     1       5.652   4.677  19.126  0.00  0.00    +0.000 A 
ENDBRANCH  25  28
ENDBRANCH  23  25
ENDBRANCH   4  23
TORSDOF 6
ENDMDL
MODEL 5
REMARK VINA RESULT:      -8.2      1.680      2.189
REMARK  Name = 
REMARK  6 active torsions:
REMARK  status: ('A' for Active; 'I' for Inactive)
REMARK    1  A    between atoms: C_2  and  C_4
REMARK    2  A    between atoms: C_6  and  N_7
REMARK    3  A    between atoms: C_8  and  C_10
REMARK    4  A    between atoms: C_13  and  N_14
REMARK    5  A    between atoms: N_14  and  S_15
REMARK    6  A    between atoms: S_15  and  C_18
REMARK                            x       y       z     vdW  Elec       q    Type
REMARK                         _______ _______ _______ _____ _____    ______ ____
ROOT
ATOM      1  C   UNL     1       1.556   8.346  19.739  0.00  0.00    +0.000 A 
ATOM      2  C   UNL     1       1.575   7.322  20.692  0.00  0.00    +0.000 A 
ATOM      3  C   UNL     1       2.171   6.086  20.377  0.00  0.00    +0.000 A 
ATOM      4  C   UNL     1       2.745   5.882  19.119  0.00  0.00    +0.000 A 
ATOM      5  C   UNL     1       2.753   6.906  18.181  0.00  0.00    +0.000 A 
ATOM      6  C   UNL     1       2.159   8.125  18.488  0.00  0.00    +0.000 A 
ENDROOT
BRANCH   1   8
ATOM      7  N   UNL     1       0.587  10.112  21.180  0.00  0.00    +0.000 N 
ATOM      8  C   UNL     1       0.842   9.643  19.897  0.00  0.00    +0.000 C 
ATOM      9  O   UNL     1       0.539  10.215  18.856  0.00  0.00    +0.000 OA
ATOM     10  H   UNL     1       0.941   9.579  21.961  0.00  0.00    +0.000 HD
BRANCH   7  13
ATOM     11  C   UNL     1      -2.029  12.614  22.246  0.00  0.00    +0.000 A 
ATOM     12  C   UNL     1      -1.402  11.390  21.955  0.00  0.00    +0.000 A 
ATOM     13  C   UNL     1      -0.081  11.329  21.489  0.00  0.00    +0.000 A 
ATOM     14  C   UNL     1       0.619  12.530  21.320  0.00  0.00    +0.000 A 
ATOM     15  C   UNL     1       0.008  13.756  21.613  0.00  0.00    +0.000 A 
ATOM     16  C   UNL     1      -1.308  13.790  22.071  0.00  0.00    +0.000 A 
ATOM     17  F   UNL     1      -1.854  14.988  22.336  0.00  0.00    +0.000 F 
BRANCH  11  19
ATOM     18  N   UNL     1      -3.684  12.093  23.975  0.00  0.00    +0.000 N 
ATOM     19  C   UNL     1      -3.439  12.579  22.724  0.00  0.00    +0.000 C 
ATOM     20  O   UNL     1      -4.368  12.971  22.031  0.00  0.00    +0.000 OA
ATOM     21  H   UNL     1      -4.643  12.079  24.292  0.00  0.00    +0.000 HD
ATOM     22  H   UNL     1      -2.955  11.759  24.595  0.00  0.00    +0.000 HD
ENDBRANCH  11  19
ENDBRANCH   7  13
ENDBRANCH   1   8
BRANCH   4  23
ATOM     23  N   UNL     1       3.315   4.643  18.742  0.00  0.00    +0.000 N 
ATOM     24  H   UNL     1       2.897   4.101  17.989  0.00  0.00    +0.000 HD
BRANCH  23  25
ATOM     25  S   UNL     1       4.962   4.373  18.952  0.00  0.00    +0.000 S 
ATOM     26  O   UNL     1       5.451   5.497  19.723  0.00  0.00    +0.000 OA
ATOM     27  O   UNL     1       5.161   3.015  19.413  0.00  0.00    +0.000 OA
BRANCH  25  28
ATOM     28  C   UNL     1       5.639   4.516  17.309  0.00  0.00    +0.000 A 
ATOM     29  C   UNL     1       7.006   4.752  17.122  0.00  0.00    +0.000 A 
ATOM     30  C   UNL     1       7.519   4.811  15.821  0.00  0.00    +0.000 A 
ATOM     31  C   UNL     1       6.670   4.624  14.734  0.00  0.00    +0.000 A 
ATOM     32  F   UNL     1       7.169   4.679  13.491  0.00  0.00    +0.000 F 
ATOM     33  C   UNL     1       5.314   4.374  14.914  0.00  0.00    +0.000 A 
ATOM     34  C   UNL     1       4.795   4.311  16.209  0.00  0.00    +0.000 A 
ENDBRANCH  25  28
ENDBRANCH  23  25
ENDBRANCH   4  23
TORSDOF 6
ENDMDL
MODEL 6
REMARK VINA RESULT:      -8.1      3.032     11.333
REMARK  Name = 
REMARK  6 active torsions:
REMARK  status: ('A' for Active; 'I' for Inactive)
REMARK    1  A    between atoms: C_2  and  C_4
REMARK    2  A    between atoms: C_6  and  N_7
REMARK    3  A    between atoms: C_8  and  C_10
REMARK    4  A    between atoms: C_13  and  N_14
REMARK    5  A    between atoms: N_14  and  S_15
REMARK    6  A    between atoms: S_15  and  C_18
REMARK                            x       y       z     vdW  Elec       q    Type
REMARK                         _______ _______ _______ _____ _____    ______ ____
ROOT
ATOM      1  C   UNL     1       1.311   9.578  19.181  0.00  0.00    +0.000 A 
ATOM      2  C   UNL     1       1.240  10.932  18.836  0.00  0.00    +0.000 A 
ATOM      3  C   UNL     1       0.421  11.800  19.584  0.00  0.00    +0.000 A 
ATOM      4  C   UNL     1      -0.315  11.312  20.668  0.00  0.00    +0.000 A 
ATOM      5  C   UNL     1      -0.223   9.974  21.030  0.00  0.00    +0.000 A 
ATOM      6  C   UNL     1       0.580   9.114  20.288  0.00  0.00    +0.000 A 
ENDROOT
BRANCH   1   8
ATOM      7  N   UNL     1       2.344   7.332  19.010  0.00  0.00    +0.000 N 
ATOM      8  C   UNL     1       2.028   8.536  18.393  0.00  0.00    +0.000 C 
ATOM      9  O   UNL     1       2.278   8.827  17.228  0.00  0.00    +0.000 OA
ATOM     10  H   UNL     1       2.030   7.187  19.959  0.00  0.00    +0.000 HD
BRANCH   7  13
ATOM     11  C   UNL     1       5.029   5.160  17.491  0.00  0.00    +0.000 A 
ATOM     12  C   UNL     1       4.396   6.251  18.110  0.00  0.00    +0.000 A 
ATOM     13  C   UNL     1       3.022   6.247  18.389  0.00  0.00    +0.000 A 
ATOM     14  C   UNL     1       2.277   5.114  18.040  0.00  0.00    +0.000 A 
ATOM     15  C   UNL     1       2.898   4.017  17.429  0.00  0.00    +0.000 A 
ATOM     16  C   UNL     1       4.265   4.046  17.158  0.00  0.00    +0.000 A 
ATOM     17  F   UNL     1       4.816   2.974  16.568  0.00  0.00    +0.000 F 
BRANCH  11  19
ATOM     18  N   UNL     1       7.330   4.435  17.912  0.00  0.00    +0.000 N 
ATOM     19  C   UNL     1       6.490   5.261  17.223  0.00  0.00    +0.000 C 
ATOM     20  O   UNL     1       6.947   6.054  16.411  0.00  0.00    +0.000 OA
ATOM     21  H   UNL     1       8.319   4.508  17.719  0.00  0.00    +0.000 HD
ATOM     22  H   UNL     1       7.010   3.757  18.592  0.00  0.00    +0.000 HD
ENDBRANCH  11  19
ENDBRANCH   7  13
ENDBRANCH   1   8
BRANCH   4  23
ATOM     23  N   UNL     1      -1.185  12.137  21.421  0.00  0.00    +0.000 N 
ATOM     24  H   UNL     1      -0.834  12.629  22.240  0.00  0.00    +0.000 HD
BRANCH  23  25
ATOM     25  S   UNL     1      -2.493  12.886  20.674  0.00  0.00    +0.000 S 
ATOM     26  O   UNL     1      -2.112  14.274  20.511  0.00  0.00    +0.000 OA
ATOM     27  O   UNL     1      -2.905  12.092  19.537  0.00  0.00    +0.000 OA
BRANCH  25  28
ATOM     28  C   UNL     1      -3.786  12.829  21.901  0.00  0.00    +0.000 A 
ATOM     29  C   UNL     1      -3.473  12.643  23.253  0.00  0.00    +0.000 A 
ATOM     30  C   UNL     1      -4.504  12.652  24.201  0.00  0.00    +0.000 A 
ATOM     31  C   UNL     1      -5.819  12.854  23.791  0.00  0.00    +0.000 A 
ATOM     32  F   UNL     1      -6.800  12.863  24.704  0.00  0.00    +0.000 F 
ATOM     33  C   UNL     1      -6.132  13.054  22.451  0.00  0.00    +0.000 A 
ATOM     34  C   UNL     1      -5.110  13.050  21.500  0.00  0.00    +0.000 A 
ENDBRANCH  25  28
ENDBRANCH  23  25
ENDBRANCH   4  23
TORSDOF 6
ENDMDL
MODEL 7
REMARK VINA RESULT:      -8.1      6.861      9.287
REMARK  Name = 
REMARK  6 active torsions:
REMARK  status: ('A' for Active; 'I' for Inactive)
REMARK    1  A    between atoms: C_2  and  C_4
REMARK    2  A    between atoms: C_6  and  N_7
REMARK    3  A    between atoms: C_8  and  C_10
REMARK    4  A    between atoms: C_13  and  N_14
REMARK    5  A    between atoms: N_14  and  S_15
REMARK    6  A    between atoms: S_15  and  C_18
REMARK                            x       y       z     vdW  Elec       q    Type
REMARK                         _______ _______ _______ _____ _____    ______ ____
ROOT
ATOM      1  C   UNL     1       8.068   7.814  18.208  0.00  0.00    +0.000 A 
ATOM      2  C   UNL     1       8.160   6.814  19.183  0.00  0.00    +0.000 A 
ATOM      3  C   UNL     1       7.611   5.542  18.932  0.00  0.00    +0.000 A 
ATOM      4  C   UNL     1       6.979   5.277  17.713  0.00  0.00    +0.000 A 
ATOM      5  C   UNL     1       6.912   6.259  16.733  0.00  0.00    +0.000 A 
ATOM      6  C   UNL     1       7.448   7.518  16.982  0.00  0.00    +0.000 A 
ENDROOT
BRANCH   1   8
ATOM      7  N   UNL     1       9.347   9.536  19.447  0.00  0.00    +0.000 N 
ATOM      8  C   UNL     1       8.484   9.231  18.402  0.00  0.00    +0.000 C 
ATOM      9  O   UNL     1       8.031  10.034  17.595  0.00  0.00    +0.000 OA
ATOM     10  H   UNL     1       9.703   8.776  20.009  0.00  0.00    +0.000 HD
BRANCH   7  13
ATOM     11  C   UNL     1       9.858  12.891  21.095  0.00  0.00    +0.000 A 
ATOM     12  C   UNL     1       9.355  11.607  20.826  0.00  0.00    +0.000 A 
ATOM     13  C   UNL     1       9.832  10.837  19.755  0.00  0.00    +0.000 A 
ATOM     14  C   UNL     1      10.840  11.377  18.947  0.00  0.00    +0.000 A 
ATOM     15  C   UNL     1      11.354  12.653  19.209  0.00  0.00    +0.000 A 
ATOM     16  C   UNL     1      10.860  13.401  20.278  0.00  0.00    +0.000 A 
ATOM     17  F   UNL     1      11.380  14.620  20.489  0.00  0.00    +0.000 F 
BRANCH  11  19
ATOM     18  N   UNL     1       8.459  12.967  23.105  0.00  0.00    +0.000 N 
ATOM     19  C   UNL     1       9.280  13.639  22.247  0.00  0.00    +0.000 C 
ATOM     20  O   UNL     1       9.521  14.823  22.437  0.00  0.00    +0.000 OA
ATOM     21  H   UNL     1       8.077  13.482  23.885  0.00  0.00    +0.000 HD
ATOM     22  H   UNL     1       8.227  11.986  23.000  0.00  0.00    +0.000 HD
ENDBRANCH  11  19
ENDBRANCH   7  13
ENDBRANCH   1   8
BRANCH   4  23
ATOM     23  N   UNL     1       6.373   4.029  17.433  0.00  0.00    +0.000 N 
ATOM     24  H   UNL     1       6.686   3.193  17.923  0.00  0.00    +0.000 HD
BRANCH  23  25
ATOM     25  S   UNL     1       4.775   3.964  16.912  0.00  0.00    +0.000 S 
ATOM     26  O   UNL     1       4.773   4.519  15.574  0.00  0.00    +0.000 OA
ATOM     27  O   UNL     1       4.250   2.641  17.167  0.00  0.00    +0.000 OA
BRANCH  25  28
ATOM     28  C   UNL     1       3.926   5.122  17.970  0.00  0.00    +0.000 A 
ATOM     29  C   UNL     1       3.570   6.390  17.495  0.00  0.00    +0.000 A 
ATOM     30  C   UNL     1       2.860   7.259  18.331  0.00  0.00    +0.000 A 
ATOM     31  C   UNL     1       2.509   6.852  19.616  0.00  0.00    +0.000 A 
ATOM     32  F   UNL     1       1.827   7.690  20.409  0.00  0.00    +0.000 F 
ATOM     33  C   UNL     1       2.848   5.588  20.087  0.00  0.00    +0.000 A 
ATOM     34  C   UNL     1       3.552   4.713  19.258  0.00  0.00    +0.000 A 
ENDBRANCH  25  28
ENDBRANCH  23  25
ENDBRANCH   4  23
TORSDOF 6
ENDMDL
MODEL 8
REMARK VINA RESULT:      -8.1      8.544     10.285
REMARK  Name = 
REMARK  6 active torsions:
REMARK  status: ('A' for Active; 'I' for Inactive)
REMARK    1  A    between atoms: C_2  and  C_4
REMARK    2  A    between atoms: C_6  and  N_7
REMARK    3  A    between atoms: C_8  and  C_10
REMARK    4  A    between atoms: C_13  and  N_14
REMARK    5  A    between atoms: N_14  and  S_15
REMARK    6  A    between atoms: S_15  and  C_18
REMARK                            x       y       z     vdW  Elec       q    Type
REMARK                         _______ _______ _______ _____ _____    ______ ____
ROOT
ATOM      1  C   UNL     1       8.147   8.018  18.193  0.00  0.00    +0.000 A 
ATOM      2  C   UNL     1       8.292   7.087  19.228  0.00  0.00    +0.000 A 
ATOM      3  C   UNL     1       7.759   5.792  19.081  0.00  0.00    +0.000 A 
ATOM      4  C   UNL     1       7.091   5.435  17.906  0.00  0.00    +0.000 A 
ATOM      5  C   UNL     1       6.971   6.348  16.866  0.00  0.00    +0.000 A 
ATOM      6  C   UNL     1       7.490   7.630  17.012  0.00  0.00    +0.000 A 
ENDROOT
BRANCH   1   8
ATOM      7  N   UNL     1       9.669   9.791  19.014  0.00  0.00    +0.000 N 
ATOM      8  C   UNL     1       8.541   9.452  18.277  0.00  0.00    +0.000 C 
ATOM      9  O   UNL     1       7.829  10.237  17.662  0.00  0.00    +0.000 OA
ATOM     10  H   UNL     1      10.211   9.045  19.427  0.00  0.00    +0.000 HD
BRANCH   7  13
ATOM     11  C   UNL     1      11.261  13.150  18.367  0.00  0.00    +0.000 A 
ATOM     12  C   UNL     1      10.776  11.848  18.158  0.00  0.00    +0.000 A 
ATOM     13  C   UNL     1      10.169  11.112  19.184  0.00  0.00    +0.000 A 
ATOM     14  C   UNL     1      10.045  11.709  20.445  0.00  0.00    +0.000 A 
ATOM     15  C   UNL     1      10.518  13.009  20.665  0.00  0.00    +0.000 A 
ATOM     16  C   UNL     1      11.123  13.719  19.628  0.00  0.00    +0.000 A 
ATOM     17  F   UNL     1      11.565  14.960  19.886  0.00  0.00    +0.000 F 
BRANCH  11  19
ATOM     18  N   UNL     1      12.333  13.095  16.165  0.00  0.00    +0.000 N 
ATOM     19  C   UNL     1      11.904  13.849  17.219  0.00  0.00    +0.000 C 
ATOM     20  O   UNL     1      12.053  15.062  17.200  0.00  0.00    +0.000 OA
ATOM     21  H   UNL     1      12.763  13.579  15.389  0.00  0.00    +0.000 HD
ATOM     22  H   UNL     1      12.233  12.088  16.123  0.00  0.00    +0.000 HD
ENDBRANCH  11  19
ENDBRANCH   7  13
ENDBRANCH   1   8
BRANCH   4  23
ATOM     23  N   UNL     1       6.501   4.161  17.732  0.00  0.00    +0.000 N 
ATOM     24  H   UNL     1       6.632   3.441  18.439  0.00  0.00    +0.000 HD
BRANCH  23  25
ATOM     25  S   UNL     1       5.080   4.003  16.844  0.00  0.00    +0.000 S 
ATOM     26  O   UNL     1       4.769   5.332  16.359  0.00  0.00    +0.000 OA
ATOM     27  O   UNL     1       5.219   2.893  15.928  0.00  0.00    +0.000 OA
BRANCH  25  28
ATOM     28  C   UNL     1       3.851   3.578  18.064  0.00  0.00    +0.000 A 
ATOM     29  C   UNL     1       2.490   3.598  17.736  0.00  0.00    +0.000 A 
ATOM     30  C   UNL     1       1.549   3.211  18.698  0.00  0.00    +0.000 A 
ATOM     31  C   UNL     1       1.976   2.805  19.960  0.00  0.00    +0.000 A 
ATOM     32  F   UNL     1       1.070   2.434  20.875  0.00  0.00    +0.000 F 
ATOM     33  C   UNL     1       3.328   2.770  20.285  0.00  0.00    +0.000 A 
ATOM     34  C   UNL     1       4.273   3.150  19.330  0.00  0.00    +0.000 A 
ENDBRANCH  25  28
ENDBRANCH  23  25
ENDBRANCH   4  23
TORSDOF 6
ENDMDL
MODEL 9
REMARK VINA RESULT:      -8.1      2.275      2.730
REMARK  Name = 
REMARK  6 active torsions:
REMARK  status: ('A' for Active; 'I' for Inactive)
REMARK    1  A    between atoms: C_2  and  C_4
REMARK    2  A    between atoms: C_6  and  N_7
REMARK    3  A    between atoms: C_8  and  C_10
REMARK    4  A    between atoms: C_13  and  N_14
REMARK    5  A    between atoms: N_14  and  S_15
REMARK    6  A    between atoms: S_15  and  C_18
REMARK                            x       y       z     vdW  Elec       q    Type
REMARK                         _______ _______ _______ _____ _____    ______ ____
ROOT
ATOM      1  C   UNL     1       1.771   8.448  19.296  0.00  0.00    +0.000 A 
ATOM      2  C   UNL     1       1.713   7.521  20.343  0.00  0.00    +0.000 A 
ATOM      3  C   UNL     1       2.260   6.235  20.167  0.00  0.00    +0.000 A 
ATOM      4  C   UNL     1       2.860   5.886  18.954  0.00  0.00    +0.000 A 
ATOM      5  C   UNL     1       2.944   6.813  17.923  0.00  0.00    +0.000 A 
ATOM      6  C   UNL     1       2.399   8.082  18.093  0.00  0.00    +0.000 A 
ENDROOT
BRANCH   1   8
ATOM      7  N   UNL     1       0.655  10.293  20.515  0.00  0.00    +0.000 N 
ATOM      8  C   UNL     1       1.115   9.785  19.307  0.00  0.00    +0.000 C 
ATOM      9  O   UNL     1       1.041  10.351  18.222  0.00  0.00    +0.000 OA
ATOM     10  H   UNL     1       0.829   9.757  21.354  0.00  0.00    +0.000 HD
BRANCH   7  13
ATOM     11  C   UNL     1      -1.980  12.970  20.872  0.00  0.00    +0.000 A 
ATOM     12  C   UNL     1      -1.381  11.709  20.708  0.00  0.00    +0.000 A 
ATOM     13  C   UNL     1       0.012  11.550  20.683  0.00  0.00    +0.000 A 
ATOM     14  C   UNL     1       0.812  12.688  20.834  0.00  0.00    +0.000 A 
ATOM     15  C   UNL     1       0.228  13.950  21.005  0.00  0.00    +0.000 A 
ATOM     16  C   UNL     1      -1.160  14.083  21.022  0.00  0.00    +0.000 A 
ATOM     17  F   UNL     1      -1.675  15.312  21.185  0.00  0.00    +0.000 F 
BRANCH  11  19
ATOM     18  N   UNL     1      -4.106  13.175  19.673  0.00  0.00    +0.000 N 
ATOM     19  C   UNL     1      -3.467  13.042  20.872  0.00  0.00    +0.000 C 
ATOM     20  O   UNL     1      -4.119  12.986  21.905  0.00  0.00    +0.000 OA
ATOM     21  H   UNL     1      -5.115  13.217  19.684  0.00  0.00    +0.000 HD
ATOM     22  H   UNL     1      -3.620  13.222  18.786  0.00  0.00    +0.000 HD
ENDBRANCH  11  19
ENDBRANCH   7  13
ENDBRANCH   1   8
BRANCH   4  23
ATOM     23  N   UNL     1       3.382   4.592  18.715  0.00  0.00    +0.000 N 
ATOM     24  H   UNL     1       2.926   3.978  18.043  0.00  0.00    +0.000 HD
BRANCH  23  25
ATOM     25  S   UNL     1       5.026   4.295  18.916  0.00  0.00    +0.000 S 
ATOM     26  O   UNL     1       5.543   5.425  19.659  0.00  0.00    +0.000 OA
ATOM     27  O   UNL     1       5.204   2.943  19.400  0.00  0.00    +0.000 OA
BRANCH  25  28
ATOM     28  C   UNL     1       5.690   4.394  17.263  0.00  0.00    +0.000 A 
ATOM     29  C   UNL     1       4.864   4.181  16.153  0.00  0.00    +0.000 A 
ATOM     30  C   UNL     1       5.401   4.314  14.866  0.00  0.00    +0.000 A 
ATOM     31  C   UNL     1       6.739   4.664  14.707  0.00  0.00    +0.000 A 
ATOM     32  F   UNL     1       7.244   4.792  13.473  0.00  0.00    +0.000 F 
ATOM     33  C   UNL     1       7.559   4.891  15.808  0.00  0.00    +0.000 A 
ATOM     34  C   UNL     1       7.031   4.764  17.094  0.00  0.00    +0.000 A 
ENDBRANCH  25  28
ENDBRANCH  23  25
ENDBRANCH   4  23
TORSDOF 6
ENDMDL
