MODEL 1
REMARK VINA RESULT:      -8.8      0.000      0.000
REMARK  Name = 
REMARK  7 active torsions:
REMARK  status: ('A' for Active; 'I' for Inactive)
REMARK    1  A    between atoms: C_1  and  C_2
REMARK    2  A    between atoms: C_7  and  C_8
REMARK    3  A    between atoms: C_13  and  C_14
REMARK    4  A    between atoms: C_19  and  C_20
REMARK    5  A    between atoms: N_22  and  C_23
REMARK    6  A    between atoms: C_23  and  C_24
REMARK    7  A    between atoms: C_24  and  O_25
REMARK                            x       y       z     vdW  Elec       q    Type
REMARK                         _______ _______ _______ _____ _____    ______ ____
ROOT
ATOM      1  C   UNL     1       3.823   1.761  18.897  0.00  0.00    +0.000 C 
ATOM      2  C   UNL     1       2.727   2.663  19.326  0.00  0.00    +0.000 A 
ATOM      3  N   UNL     1       1.500   2.158  19.515  0.00  0.00    +0.000 NA
ATOM      4  O   UNL     1       0.720   3.213  19.959  0.00  0.00    +0.000 OA
ATOM      5  C   UNL     1       1.471   4.346  20.026  0.00  0.00    +0.000 A 
ATOM      6  N   UNL     1       0.985   5.540  20.425  0.00  0.00    +0.000 NA
ATOM      7  C   UNL     1       1.849   6.564  20.303  0.00  0.00    +0.000 A 
ATOM      8  C   UNL     1       3.185   6.395  19.934  0.00  0.00    +0.000 A 
ATOM      9  C   UNL     1       3.668   5.126  19.604  0.00  0.00    +0.000 A 
ATOM     10  C   UNL     1       2.762   4.056  19.611  0.00  0.00    +0.000 A 
ENDROOT
BRANCH   7  11
ATOM     11  C   UNL     1       1.305   7.923  20.533  0.00  0.00    +0.000 A 
ATOM     12  C   UNL     1       0.787   8.226  21.819  0.00  0.00    +0.000 A 
ATOM     13  C   UNL     1       0.363   9.507  22.175  0.00  0.00    +0.000 A 
ATOM     14  C   UNL     1       0.406  10.526  21.239  0.00  0.00    +0.000 A 
ATOM     15  C   UNL     1       0.865  10.253  19.954  0.00  0.00    +0.000 A 
ATOM     16  C   UNL     1       1.333   8.968  19.577  0.00  0.00    +0.000 A 
BRANCH  16  17
ATOM     17  C   UNL     1       1.841   8.866  18.149  0.00  0.00    +0.000 C 
ATOM     18  F   UNL     1       3.174   8.707  17.965  0.00  0.00    +0.000 F 
ATOM     19  F   UNL     1       1.226   7.863  17.459  0.00  0.00    +0.000 F 
ATOM     20  F   UNL     1       1.545  10.006  17.448  0.00  0.00    +0.000 F 
ENDBRANCH  16  17
ENDBRANCH   7  11
BRANCH   9  21
ATOM     21  C   UNL     1       5.053   4.963  19.131  0.00  0.00    +0.000 C 
ATOM     22  O   UNL     1       5.711   3.995  19.503  0.00  0.00    +0.000 OA
ATOM     23  N   UNL     1       5.518   5.928  18.259  0.00  0.00    +0.000 N 
ATOM     24  H   UNL     1       4.966   6.753  18.046  0.00  0.00    +0.000 HD
BRANCH  23  25
ATOM     25  C   UNL     1       6.879   5.906  17.765  0.00  0.00    +0.000 C 
ATOM     26  C   UNL     1       7.975   6.515  18.618  0.00  0.00    +0.000 C 
ATOM     27  C   UNL     1       7.516   7.230  17.387  0.00  0.00    +0.000 C 
BRANCH  25  28
ATOM     28  C   UNL     1       7.249   4.684  16.942  0.00  0.00    +0.000 C 
BRANCH  28  29
ATOM     29  O   UNL     1       8.243   3.934  17.633  0.00  0.00    +0.000 OA
ATOM     30  H   UNL     1       9.017   3.921  17.048  0.00  0.00    +0.000 HD
ENDBRANCH  28  29
ENDBRANCH  25  28
ENDBRANCH  23  25
ENDBRANCH   9  21
TORSDOF 6
ENDMDL
MODEL 2
REMARK VINA RESULT:      -8.4      1.078      1.631
REMARK  Name = 
REMARK  7 active torsions:
REMARK  status: ('A' for Active; 'I' for Inactive)
REMARK    1  A    between atoms: C_1  and  C_2
REMARK    2  A    between atoms: C_7  and  C_8
REMARK    3  A    between atoms: C_13  and  C_14
REMARK    4  A    between atoms: C_19  and  C_20
REMARK    5  A    between atoms: N_22  and  C_23
REMARK    6  A    between atoms: C_23  and  C_24
REMARK    7  A    between atoms: C_24  and  O_25
REMARK                            x       y       z     vdW  Elec       q    Type
REMARK                         _______ _______ _______ _____ _____    ______ ____
ROOT
ATOM      1  C   UNL     1       3.562   1.644  18.463  0.00  0.00    +0.000 C 
ATOM      2  C   UNL     1       2.578   2.560  19.090  0.00  0.00    +0.000 A 
ATOM      3  N   UNL     1       1.411   2.066  19.526  0.00  0.00    +0.000 NA
ATOM      4  O   UNL     1       0.741   3.132  20.103  0.00  0.00    +0.000 OA
ATOM      5  C   UNL     1       1.496   4.260  20.006  0.00  0.00    +0.000 A 
ATOM      6  N   UNL     1       1.106   5.461  20.480  0.00  0.00    +0.000 NA
ATOM      7  C   UNL     1       1.935   6.477  20.177  0.00  0.00    +0.000 A 
ATOM      8  C   UNL     1       3.170   6.294  19.552  0.00  0.00    +0.000 A 
ATOM      9  C   UNL     1       3.570   5.017  19.147  0.00  0.00    +0.000 A 
ATOM     10  C   UNL     1       2.678   3.955  19.347  0.00  0.00    +0.000 A 
ENDROOT
BRANCH   7  11
ATOM     11  C   UNL     1       1.455   7.843  20.495  0.00  0.00    +0.000 A 
ATOM     12  C   UNL     1       1.107   8.132  21.840  0.00  0.00    +0.000 A 
ATOM     13  C   UNL     1       0.760   9.415  22.266  0.00  0.00    +0.000 A 
ATOM     14  C   UNL     1       0.712  10.450  21.349  0.00  0.00    +0.000 A 
ATOM     15  C   UNL     1       1.002  10.192  20.013  0.00  0.00    +0.000 A 
ATOM     16  C   UNL     1       1.390   8.905  19.560  0.00  0.00    +0.000 A 
BRANCH  16  17
ATOM     17  C   UNL     1       1.715   8.819  18.079  0.00  0.00    +0.000 C 
ATOM     18  F   UNL     1       1.302   7.719  17.405  0.00  0.00    +0.000 F 
ATOM     19  F   UNL     1       1.248   9.900  17.391  0.00  0.00    +0.000 F 
ATOM     20  F   UNL     1       3.071   8.836  17.880  0.00  0.00    +0.000 F 
ENDBRANCH  16  17
ENDBRANCH   7  11
BRANCH   9  21
ATOM     21  C   UNL     1       4.833   4.838  18.411  0.00  0.00    +0.000 C 
ATOM     22  O   UNL     1       5.800   4.338  18.977  0.00  0.00    +0.000 OA
ATOM     23  N   UNL     1       4.830   5.237  17.088  0.00  0.00    +0.000 N 
ATOM     24  H   UNL     1       4.033   5.721  16.687  0.00  0.00    +0.000 HD
BRANCH  23  25
ATOM     25  C   UNL     1       6.025   5.160  16.274  0.00  0.00    +0.000 C 
ATOM     26  C   UNL     1       5.878   5.041  14.770  0.00  0.00    +0.000 C 
ATOM     27  C   UNL     1       6.314   3.852  15.564  0.00  0.00    +0.000 C 
BRANCH  25  28
ATOM     28  C   UNL     1       7.209   5.963  16.787  0.00  0.00    +0.000 C 
BRANCH  28  29
ATOM     29  O   UNL     1       6.868   7.346  16.802  0.00  0.00    +0.000 OA
ATOM     30  H   UNL     1       6.033   7.405  17.292  0.00  0.00    +0.000 HD
ENDBRANCH  28  29
ENDBRANCH  25  28
ENDBRANCH  23  25
ENDBRANCH   9  21
TORSDOF 6
ENDMDL
MODEL 3
REMARK VINA RESULT:      -8.1      0.701      1.248
REMARK  Name = 
REMARK  7 active torsions:
REMARK  status: ('A' for Active; 'I' for Inactive)
REMARK    1  A    between atoms: C_1  and  C_2
REMARK    2  A    between atoms: C_7  and  C_8
REMARK    3  A    between atoms: C_13  and  C_14
REMARK    4  A    between atoms: C_19  and  C_20
REMARK    5  A    between atoms: N_22  and  C_23
REMARK    6  A    between atoms: C_23  and  C_24
REMARK    7  A    between atoms: C_24  and  O_25
REMARK                            x       y       z     vdW  Elec       q    Type
REMARK                         _______ _______ _______ _____ _____    ______ ____
ROOT
ATOM      1  C   UNL     1       3.655   1.590  18.679  0.00  0.00    +0.000 C 
ATOM      2  C   UNL     1       2.584   2.521  19.109  0.00  0.00    +0.000 A 
ATOM      3  N   UNL     1       1.326   2.069  19.214  0.00  0.00    +0.000 NA
ATOM      4  O   UNL     1       0.577   3.136  19.682  0.00  0.00    +0.000 OA
ATOM      5  C   UNL     1       1.377   4.224  19.848  0.00  0.00    +0.000 A 
ATOM      6  N   UNL     1       0.931   5.416  20.294  0.00  0.00    +0.000 NA
ATOM      7  C   UNL     1       1.848   6.401  20.270  0.00  0.00    +0.000 A 
ATOM      8  C   UNL     1       3.190   6.186  19.953  0.00  0.00    +0.000 A 
ATOM      9  C   UNL     1       3.627   4.914  19.571  0.00  0.00    +0.000 A 
ATOM     10  C   UNL     1       2.672   3.893  19.476  0.00  0.00    +0.000 A 
ENDROOT
BRANCH   7  11
ATOM     11  C   UNL     1       1.359   7.771  20.554  0.00  0.00    +0.000 A 
ATOM     12  C   UNL     1       0.929   8.066  21.874  0.00  0.00    +0.000 A 
ATOM     13  C   UNL     1       0.565   9.352  22.274  0.00  0.00    +0.000 A 
ATOM     14  C   UNL     1       0.582  10.385  21.353  0.00  0.00    +0.000 A 
ATOM     15  C   UNL     1       0.954  10.122  20.038  0.00  0.00    +0.000 A 
ATOM     16  C   UNL     1       1.360   8.831  19.614  0.00  0.00    +0.000 A 
BRANCH  16  17
ATOM     17  C   UNL     1       1.777   8.739  18.157  0.00  0.00    +0.000 C 
ATOM     18  F   UNL     1       1.370   7.655  17.452  0.00  0.00    +0.000 F 
ATOM     19  F   UNL     1       1.393   9.837  17.446  0.00  0.00    +0.000 F 
ATOM     20  F   UNL     1       3.143   8.709  18.046  0.00  0.00    +0.000 F 
ENDBRANCH  16  17
ENDBRANCH   7  11
BRANCH   9  21
ATOM     21  C   UNL     1       5.024   4.707  19.153  0.00  0.00    +0.000 C 
ATOM     22  O   UNL     1       5.623   3.700  19.515  0.00  0.00    +0.000 OA
ATOM     23  N   UNL     1       5.567   5.683  18.338  0.00  0.00    +0.000 N 
ATOM     24  H   UNL     1       5.061   6.538  18.134  0.00  0.00    +0.000 HD
BRANCH  23  25
ATOM     25  C   UNL     1       6.947   5.620  17.904  0.00  0.00    +0.000 C 
ATOM     26  C   UNL     1       7.261   5.834  16.436  0.00  0.00    +0.000 C 
ATOM     27  C   UNL     1       7.357   4.459  17.018  0.00  0.00    +0.000 C 
BRANCH  25  28
ATOM     28  C   UNL     1       7.965   6.136  18.906  0.00  0.00    +0.000 C 
BRANCH  28  29
ATOM     29  O   UNL     1       7.748   5.505  20.165  0.00  0.00    +0.000 OA
ATOM     30  H   UNL     1       7.689   4.555  19.975  0.00  0.00    +0.000 HD
ENDBRANCH  28  29
ENDBRANCH  25  28
ENDBRANCH  23  25
ENDBRANCH   9  21
TORSDOF 6
ENDMDL
MODEL 4
REMARK VINA RESULT:      -8.0      1.017      1.125
REMARK  Name = 
REMARK  7 active torsions:
REMARK  status: ('A' for Active; 'I' for Inactive)
REMARK    1  A    between atoms: C_1  and  C_2
REMARK    2  A    between atoms: C_7  and  C_8
REMARK    3  A    between atoms: C_13  and  C_14
REMARK    4  A    between atoms: C_19  and  C_20
REMARK    5  A    between atoms: N_22  and  C_23
REMARK    6  A    between atoms: C_23  and  C_24
REMARK    7  A    between atoms: C_24  and  O_25
REMARK                            x       y       z     vdW  Elec       q    Type
REMARK                         _______ _______ _______ _____ _____    ______ ____
ROOT
ATOM      1  C   UNL     1       3.518   1.396  18.614  0.00  0.00    +0.000 C 
ATOM      2  C   UNL     1       2.513   2.354  19.137  0.00  0.00    +0.000 A 
ATOM      3  N   UNL     1       1.283   1.914  19.435  0.00  0.00    +0.000 NA
ATOM      4  O   UNL     1       0.602   3.007  19.944  0.00  0.00    +0.000 OA
ATOM      5  C   UNL     1       1.416   4.098  19.943  0.00  0.00    +0.000 A 
ATOM      6  N   UNL     1       1.031   5.315  20.382  0.00  0.00    +0.000 NA
ATOM      7  C   UNL     1       1.935   6.292  20.183  0.00  0.00    +0.000 A 
ATOM      8  C   UNL     1       3.222   6.054  19.698  0.00  0.00    +0.000 A 
ATOM      9  C   UNL     1       3.605   4.762  19.327  0.00  0.00    +0.000 A 
ATOM     10  C   UNL     1       2.648   3.742  19.416  0.00  0.00    +0.000 A 
ENDROOT
BRANCH   7  11
ATOM     11  C   UNL     1       1.486   7.677  20.459  0.00  0.00    +0.000 A 
ATOM     12  C   UNL     1       1.087   7.999  21.782  0.00  0.00    +0.000 A 
ATOM     13  C   UNL     1       0.763   9.298  22.174  0.00  0.00    +0.000 A 
ATOM     14  C   UNL     1       0.791  10.320  21.240  0.00  0.00    +0.000 A 
ATOM     15  C   UNL     1       1.134  10.032  19.923  0.00  0.00    +0.000 A 
ATOM     16  C   UNL     1       1.499   8.726  19.507  0.00  0.00    +0.000 A 
BRANCH  16  17
ATOM     17  C   UNL     1       1.889   8.607  18.044  0.00  0.00    +0.000 C 
ATOM     18  F   UNL     1       3.202   8.440  17.754  0.00  0.00    +0.000 F 
ATOM     19  F   UNL     1       1.216   7.600  17.417  0.00  0.00    +0.000 F 
ATOM     20  F   UNL     1       1.541   9.741  17.357  0.00  0.00    +0.000 F 
ENDBRANCH  16  17
ENDBRANCH   7  11
BRANCH   9  21
ATOM     21  C   UNL     1       4.933   4.526  18.734  0.00  0.00    +0.000 C 
ATOM     22  O   UNL     1       5.817   4.010  19.410  0.00  0.00    +0.000 OA
ATOM     23  N   UNL     1       5.083   4.895  17.411  0.00  0.00    +0.000 N 
ATOM     24  H   UNL     1       4.350   5.394  16.918  0.00  0.00    +0.000 HD
BRANCH  23  25
ATOM     25  C   UNL     1       6.355   4.763  16.731  0.00  0.00    +0.000 C 
ATOM     26  C   UNL     1       7.627   4.759  17.556  0.00  0.00    +0.000 C 
ATOM     27  C   UNL     1       7.286   5.960  16.732  0.00  0.00    +0.000 C 
BRANCH  25  28
ATOM     28  C   UNL     1       6.338   3.882  15.493  0.00  0.00    +0.000 C 
BRANCH  28  29
ATOM     29  O   UNL     1       5.354   4.369  14.584  0.00  0.00    +0.000 OA
ATOM     30  H   UNL     1       5.838   4.905  13.936  0.00  0.00    +0.000 HD
ENDBRANCH  28  29
ENDBRANCH  25  28
ENDBRANCH  23  25
ENDBRANCH   9  21
TORSDOF 6
ENDMDL
MODEL 5
REMARK VINA RESULT:      -7.9      1.016      1.189
REMARK  Name = 
REMARK  7 active torsions:
REMARK  status: ('A' for Active; 'I' for Inactive)
REMARK    1  A    between atoms: C_1  and  C_2
REMARK    2  A    between atoms: C_7  and  C_8
REMARK    3  A    between atoms: C_13  and  C_14
REMARK    4  A    between atoms: C_19  and  C_20
REMARK    5  A    between atoms: N_22  and  C_23
REMARK    6  A    between atoms: C_23  and  C_24
REMARK    7  A    between atoms: C_24  and  O_25
REMARK                            x       y       z     vdW  Elec       q    Type
REMARK                         _______ _______ _______ _____ _____    ______ ____
ROOT
ATOM      1  C   UNL     1       3.701   2.616  18.042  0.00  0.00    +0.000 C 
ATOM      2  C   UNL     1       2.679   3.340  18.836  0.00  0.00    +0.000 A 
ATOM      3  N   UNL     1       1.646   2.659  19.352  0.00  0.00    +0.000 NA
ATOM      4  O   UNL     1       0.907   3.580  20.075  0.00  0.00    +0.000 OA
ATOM      5  C   UNL     1       1.487   4.808  19.987  0.00  0.00    +0.000 A 
ATOM      6  N   UNL     1       0.993   5.910  20.589  0.00  0.00    +0.000 NA
ATOM      7  C   UNL     1       1.636   7.051  20.281  0.00  0.00    +0.000 A 
ATOM      8  C   UNL     1       2.806   7.086  19.519  0.00  0.00    +0.000 A 
ATOM      9  C   UNL     1       3.327   5.907  18.978  0.00  0.00    +0.000 A 
ATOM     10  C   UNL     1       2.616   4.717  19.187  0.00  0.00    +0.000 A 
ENDROOT
BRANCH   7  11
ATOM     11  C   UNL     1       1.015   8.312  20.750  0.00  0.00    +0.000 A 
ATOM     12  C   UNL     1       0.722   8.438  22.133  0.00  0.00    +0.000 A 
ATOM     13  C   UNL     1       0.249   9.624  22.695  0.00  0.00    +0.000 A 
ATOM     14  C   UNL     1       0.015  10.719  21.882  0.00  0.00    +0.000 A 
ATOM     15  C   UNL     1       0.247  10.617  20.514  0.00  0.00    +0.000 A 
ATOM     16  C   UNL     1       0.759   9.433  19.923  0.00  0.00    +0.000 A 
BRANCH  16  17
ATOM     17  C   UNL     1       0.995   9.517  18.425  0.00  0.00    +0.000 C 
ATOM     18  F   UNL     1       0.913   8.370  17.709  0.00  0.00    +0.000 F 
ATOM     19  F   UNL     1       0.160  10.415  17.826  0.00  0.00    +0.000 F 
ATOM     20  F   UNL     1       2.257   9.982  18.160  0.00  0.00    +0.000 F 
ENDBRANCH  16  17
ENDBRANCH   7  11
BRANCH   9  21
ATOM     21  C   UNL     1       4.511   5.956  18.102  0.00  0.00    +0.000 C 
ATOM     22  O   UNL     1       4.364   6.024  16.886  0.00  0.00    +0.000 OA
ATOM     23  N   UNL     1       5.739   5.945  18.736  0.00  0.00    +0.000 N 
ATOM     24  H   UNL     1       5.811   5.804  19.738  0.00  0.00    +0.000 HD
BRANCH  23  25
ATOM     25  C   UNL     1       6.976   5.937  17.984  0.00  0.00    +0.000 C 
ATOM     26  C   UNL     1       8.182   6.658  18.552  0.00  0.00    +0.000 C 
ATOM     27  C   UNL     1       7.451   7.249  17.389  0.00  0.00    +0.000 C 
BRANCH  25  28
ATOM     28  C   UNL     1       7.245   4.666  17.195  0.00  0.00    +0.000 C 
BRANCH  28  29
ATOM     29  O   UNL     1       8.362   3.988  17.762  0.00  0.00    +0.000 OA
ATOM     30  H   UNL     1       8.730   3.445  17.047  0.00  0.00    +0.000 HD
ENDBRANCH  28  29
ENDBRANCH  25  28
ENDBRANCH  23  25
ENDBRANCH   9  21
TORSDOF 6
ENDMDL
MODEL 6
REMARK VINA RESULT:      -7.9      1.375      1.752
REMARK  Name = 
REMARK  7 active torsions:
REMARK  status: ('A' for Active; 'I' for Inactive)
REMARK    1  A    between atoms: C_1  and  C_2
REMARK    2  A    between atoms: C_7  and  C_8
REMARK    3  A    between atoms: C_13  and  C_14
REMARK    4  A    between atoms: C_19  and  C_20
REMARK    5  A    between atoms: N_22  and  C_23
REMARK    6  A    between atoms: C_23  and  C_24
REMARK    7  A    between atoms: C_24  and  O_25
REMARK                            x       y       z     vdW  Elec       q    Type
REMARK                         _______ _______ _______ _____ _____    ______ ____
ROOT
ATOM      1  C   UNL     1       3.896   2.794  18.170  0.00  0.00    +0.000 C 
ATOM      2  C   UNL     1       2.861   3.497  18.967  0.00  0.00    +0.000 A 
ATOM      3  N   UNL     1       1.872   2.787  19.527  0.00  0.00    +0.000 NA
ATOM      4  O   UNL     1       1.109   3.697  20.240  0.00  0.00    +0.000 OA
ATOM      5  C   UNL     1       1.631   4.946  20.100  0.00  0.00    +0.000 A 
ATOM      6  N   UNL     1       1.102   6.044  20.681  0.00  0.00    +0.000 NA
ATOM      7  C   UNL     1       1.686   7.202  20.322  0.00  0.00    +0.000 A 
ATOM      8  C   UNL     1       2.835   7.264  19.531  0.00  0.00    +0.000 A 
ATOM      9  C   UNL     1       3.396   6.093  19.014  0.00  0.00    +0.000 A 
ATOM     10  C   UNL     1       2.744   4.881  19.276  0.00  0.00    +0.000 A 
ENDROOT
BRANCH   7  11
ATOM     11  C   UNL     1       1.019   8.448  20.767  0.00  0.00    +0.000 A 
ATOM     12  C   UNL     1       0.745   8.600  22.151  0.00  0.00    +0.000 A 
ATOM     13  C   UNL     1       0.232   9.781  22.689  0.00  0.00    +0.000 A 
ATOM     14  C   UNL     1      -0.063  10.842  21.851  0.00  0.00    +0.000 A 
ATOM     15  C   UNL     1       0.150  10.711  20.482  0.00  0.00    +0.000 A 
ATOM     16  C   UNL     1       0.701   9.533  19.915  0.00  0.00    +0.000 A 
BRANCH  16  17
ATOM     17  C   UNL     1       0.908   9.585  18.411  0.00  0.00    +0.000 C 
ATOM     18  F   UNL     1       0.746   8.436  17.713  0.00  0.00    +0.000 F 
ATOM     19  F   UNL     1       0.113  10.521  17.818  0.00  0.00    +0.000 F 
ATOM     20  F   UNL     1       2.188   9.974  18.112  0.00  0.00    +0.000 F 
ENDBRANCH  16  17
ENDBRANCH   7  11
BRANCH   9  21
ATOM     21  C   UNL     1       4.556   6.167  18.109  0.00  0.00    +0.000 C 
ATOM     22  O   UNL     1       4.409   6.591  16.967  0.00  0.00    +0.000 OA
ATOM     23  N   UNL     1       5.768   5.763  18.636  0.00  0.00    +0.000 N 
ATOM     24  H   UNL     1       5.826   5.343  19.558  0.00  0.00    +0.000 HD
BRANCH  23  25
ATOM     25  C   UNL     1       6.971   5.740  17.830  0.00  0.00    +0.000 C 
ATOM     26  C   UNL     1       6.973   4.938  16.544  0.00  0.00    +0.000 C 
ATOM     27  C   UNL     1       7.730   4.432  17.730  0.00  0.00    +0.000 C 
BRANCH  25  28
ATOM     28  C   UNL     1       7.779   7.027  17.838  0.00  0.00    +0.000 C 
BRANCH  28  29
ATOM     29  O   UNL     1       7.229   7.934  16.887  0.00  0.00    +0.000 OA
ATOM     30  H   UNL     1       6.352   7.581  16.665  0.00  0.00    +0.000 HD
ENDBRANCH  28  29
ENDBRANCH  25  28
ENDBRANCH  23  25
ENDBRANCH   9  21
TORSDOF 6
ENDMDL
MODEL 7
REMARK VINA RESULT:      -7.8      0.925      1.242
REMARK  Name = 
REMARK  7 active torsions:
REMARK  status: ('A' for Active; 'I' for Inactive)
REMARK    1  A    between atoms: C_1  and  C_2
REMARK    2  A    between atoms: C_7  and  C_8
REMARK    3  A    between atoms: C_13  and  C_14
REMARK    4  A    between atoms: C_19  and  C_20
REMARK    5  A    between atoms: N_22  and  C_23
REMARK    6  A    between atoms: C_23  and  C_24
REMARK    7  A    between atoms: C_24  and  O_25
REMARK                            x       y       z     vdW  Elec       q    Type
REMARK                         _______ _______ _______ _____ _____    ______ ____
ROOT
ATOM      1  C   UNL     1       3.850   2.032  19.100  0.00  0.00    +0.000 C 
ATOM      2  C   UNL     1       2.814   2.918  19.685  0.00  0.00    +0.000 A 
ATOM      3  N   UNL     1       1.714   2.372  20.221  0.00  0.00    +0.000 NA
ATOM      4  O   UNL     1       0.974   3.428  20.727  0.00  0.00    +0.000 OA
ATOM      5  C   UNL     1       1.622   4.601  20.488  0.00  0.00    +0.000 A 
ATOM      6  N   UNL     1       1.146   5.805  20.866  0.00  0.00    +0.000 NA
ATOM      7  C   UNL     1       1.867   6.854  20.429  0.00  0.00    +0.000 A 
ATOM      8  C   UNL     1       3.088   6.716  19.765  0.00  0.00    +0.000 A 
ATOM      9  C   UNL     1       3.584   5.444  19.462  0.00  0.00    +0.000 A 
ATOM     10  C   UNL     1       2.799   4.335  19.804  0.00  0.00    +0.000 A 
ENDROOT
BRANCH   7  11
ATOM     11  C   UNL     1       1.281   8.198  20.639  0.00  0.00    +0.000 A 
ATOM     12  C   UNL     1       0.886   8.556  21.954  0.00  0.00    +0.000 A 
ATOM     13  C   UNL     1       0.435   9.835  22.281  0.00  0.00    +0.000 A 
ATOM     14  C   UNL     1       0.328  10.795  21.290  0.00  0.00    +0.000 A 
ATOM     15  C   UNL     1       0.663  10.466  19.980  0.00  0.00    +0.000 A 
ATOM     16  C   UNL     1       1.154   9.182  19.629  0.00  0.00    +0.000 A 
BRANCH  16  17
ATOM     17  C   UNL     1       1.514   9.016  18.162  0.00  0.00    +0.000 C 
ATOM     18  F   UNL     1       1.226   7.830  17.573  0.00  0.00    +0.000 F 
ATOM     19  F   UNL     1       0.954   9.988  17.386  0.00  0.00    +0.000 F 
ATOM     20  F   UNL     1       2.865   9.155  17.977  0.00  0.00    +0.000 F 
ENDBRANCH  16  17
ENDBRANCH   7  11
BRANCH   9  21
ATOM     21  C   UNL     1       4.827   5.302  18.686  0.00  0.00    +0.000 C 
ATOM     22  O   UNL     1       5.903   5.222  19.272  0.00  0.00    +0.000 OA
ATOM     23  N   UNL     1       4.685   5.243  17.313  0.00  0.00    +0.000 N 
ATOM     24  H   UNL     1       3.785   5.397  16.871  0.00  0.00    +0.000 HD
BRANCH  23  25
ATOM     25  C   UNL     1       5.837   5.156  16.439  0.00  0.00    +0.000 C 
ATOM     26  C   UNL     1       6.604   6.423  16.113  0.00  0.00    +0.000 C 
ATOM     27  C   UNL     1       5.735   5.798  15.069  0.00  0.00    +0.000 C 
BRANCH  25  28
ATOM     28  C   UNL     1       6.645   3.875  16.560  0.00  0.00    +0.000 C 
BRANCH  28  29
ATOM     29  O   UNL     1       7.898   4.167  17.172  0.00  0.00    +0.000 OA
ATOM     30  H   UNL     1       8.028   3.481  17.846  0.00  0.00    +0.000 HD
ENDBRANCH  28  29
ENDBRANCH  25  28
ENDBRANCH  23  25
ENDBRANCH   9  21
TORSDOF 6
ENDMDL
MODEL 8
REMARK VINA RESULT:      -7.7      4.258      7.963
REMARK  Name = 
REMARK  7 active torsions:
REMARK  status: ('A' for Active; 'I' for Inactive)
REMARK    1  A    between atoms: C_1  and  C_2
REMARK    2  A    between atoms: C_7  and  C_8
REMARK    3  A    between atoms: C_13  and  C_14
REMARK    4  A    between atoms: C_19  and  C_20
REMARK    5  A    between atoms: N_22  and  C_23
REMARK    6  A    between atoms: C_23  and  C_24
REMARK    7  A    between atoms: C_24  and  O_25
REMARK                            x       y       z     vdW  Elec       q    Type
REMARK                         _______ _______ _______ _____ _____    ______ ____
ROOT
ATOM      1  C   UNL     1      -1.388  11.734  21.930  0.00  0.00    +0.000 C 
ATOM      2  C   UNL     1      -0.334  10.690  21.930  0.00  0.00    +0.000 A 
ATOM      3  N   UNL     1       0.300  10.401  23.075  0.00  0.00    +0.000 NA
ATOM      4  O   UNL     1       1.171   9.367  22.775  0.00  0.00    +0.000 OA
ATOM      5  C   UNL     1       1.068   9.044  21.456  0.00  0.00    +0.000 A 
ATOM      6  N   UNL     1       1.794   8.071  20.868  0.00  0.00    +0.000 NA
ATOM      7  C   UNL     1       1.641   7.988  19.534  0.00  0.00    +0.000 A 
ATOM      8  C   UNL     1       0.703   8.742  18.826  0.00  0.00    +0.000 A 
ATOM      9  C   UNL     1      -0.086   9.686  19.489  0.00  0.00    +0.000 A 
ATOM     10  C   UNL     1       0.131   9.876  20.861  0.00  0.00    +0.000 A 
ENDROOT
BRANCH   7  11
ATOM     11  C   UNL     1       2.563   7.078  18.815  0.00  0.00    +0.000 A 
ATOM     12  C   UNL     1       3.418   7.636  17.830  0.00  0.00    +0.000 A 
ATOM     13  C   UNL     1       4.404   6.891  17.182  0.00  0.00    +0.000 A 
ATOM     14  C   UNL     1       4.543   5.544  17.471  0.00  0.00    +0.000 A 
ATOM     15  C   UNL     1       3.690   4.953  18.398  0.00  0.00    +0.000 A 
ATOM     16  C   UNL     1       2.702   5.696  19.094  0.00  0.00    +0.000 A 
BRANCH  16  17
ATOM     17  C   UNL     1       1.895   4.898  20.103  0.00  0.00    +0.000 C 
ATOM     18  F   UNL     1       0.645   5.332  20.395  0.00  0.00    +0.000 F 
ATOM     19  F   UNL     1       1.782   3.587  19.744  0.00  0.00    +0.000 F 
ATOM     20  F   UNL     1       2.528   4.875  21.319  0.00  0.00    +0.000 F 
ENDBRANCH  16  17
ENDBRANCH   7  11
BRANCH   9  21
ATOM     21  C   UNL     1      -1.013  10.541  18.728  0.00  0.00    +0.000 C 
ATOM     22  O   UNL     1      -0.692  11.694  18.459  0.00  0.00    +0.000 OA
ATOM     23  N   UNL     1      -2.203   9.956  18.339  0.00  0.00    +0.000 N 
ATOM     24  H   UNL     1      -2.459   9.026  18.656  0.00  0.00    +0.000 HD
BRANCH  23  25
ATOM     25  C   UNL     1      -3.217  10.709  17.631  0.00  0.00    +0.000 C 
ATOM     26  C   UNL     1      -3.848  11.906  18.314  0.00  0.00    +0.000 C 
ATOM     27  C   UNL     1      -4.639  10.647  18.155  0.00  0.00    +0.000 C 
BRANCH  25  28
ATOM     28  C   UNL     1      -3.022  10.800  16.127  0.00  0.00    +0.000 C 
BRANCH  28  29
ATOM     29  O   UNL     1      -2.038  11.790  15.840  0.00  0.00    +0.000 OA
ATOM     30  H   UNL     1      -2.517  12.521  15.417  0.00  0.00    +0.000 HD
ENDBRANCH  28  29
ENDBRANCH  25  28
ENDBRANCH  23  25
ENDBRANCH   9  21
TORSDOF 6
ENDMDL
MODEL 9
REMARK VINA RESULT:      -7.6      3.949      7.677
REMARK  Name = 
REMARK  7 active torsions:
REMARK  status: ('A' for Active; 'I' for Inactive)
REMARK    1  A    between atoms: C_1  and  C_2
REMARK    2  A    between atoms: C_7  and  C_8
REMARK    3  A    between atoms: C_13  and  C_14
REMARK    4  A    between atoms: C_19  and  C_20
REMARK    5  A    between atoms: N_22  and  C_23
REMARK    6  A    between atoms: C_23  and  C_24
REMARK    7  A    between atoms: C_24  and  O_25
REMARK                            x       y       z     vdW  Elec       q    Type
REMARK                         _______ _______ _______ _____ _____    ______ ____
ROOT
ATOM      1  C   UNL     1      -0.853  11.075  21.711  0.00  0.00    +0.000 C 
ATOM      2  C   UNL     1       0.195  10.036  21.563  0.00  0.00    +0.000 A 
ATOM      3  N   UNL     1       0.836   9.594  22.654  0.00  0.00    +0.000 NA
ATOM      4  O   UNL     1       1.700   8.606  22.212  0.00  0.00    +0.000 OA
ATOM      5  C   UNL     1       1.585   8.462  20.864  0.00  0.00    +0.000 A 
ATOM      6  N   UNL     1       2.301   7.572  20.146  0.00  0.00    +0.000 NA
ATOM      7  C   UNL     1       2.137   7.668  18.813  0.00  0.00    +0.000 A 
ATOM      8  C   UNL     1       1.198   8.514  18.219  0.00  0.00    +0.000 A 
ATOM      9  C   UNL     1       0.419   9.364  19.009  0.00  0.00    +0.000 A 
ATOM     10  C   UNL     1       0.648   9.369  20.392  0.00  0.00    +0.000 A 
ENDROOT
BRANCH   7  11
ATOM     11  C   UNL     1       3.049   6.858  17.972  0.00  0.00    +0.000 A 
ATOM     12  C   UNL     1       4.142   7.514  17.348  0.00  0.00    +0.000 A 
ATOM     13  C   UNL     1       5.124   6.825  16.636  0.00  0.00    +0.000 A 
ATOM     14  C   UNL     1       5.025   5.452  16.489  0.00  0.00    +0.000 A 
ATOM     15  C   UNL     1       3.941   4.782  17.048  0.00  0.00    +0.000 A 
ATOM     16  C   UNL     1       2.948   5.455  17.805  0.00  0.00    +0.000 A 
BRANCH  16  17
ATOM     17  C   UNL     1       1.865   4.558  18.380  0.00  0.00    +0.000 C 
ATOM     18  F   UNL     1       1.421   4.829  19.631  0.00  0.00    +0.000 F 
ATOM     19  F   UNL     1       0.765   4.505  17.575  0.00  0.00    +0.000 F 
ATOM     20  F   UNL     1       2.304   3.262  18.460  0.00  0.00    +0.000 F 
ENDBRANCH  16  17
ENDBRANCH   7  11
BRANCH   9  21
ATOM     21  C   UNL     1      -0.508  10.317  18.375  0.00  0.00    +0.000 C 
ATOM     22  O   UNL     1      -0.154  11.478  18.192  0.00  0.00    +0.000 OA
ATOM     23  N   UNL     1      -1.739   9.813  18.001  0.00  0.00    +0.000 N 
ATOM     24  H   UNL     1      -2.017   8.869  18.248  0.00  0.00    +0.000 HD
BRANCH  23  25
ATOM     25  C   UNL     1      -2.756  10.662  17.416  0.00  0.00    +0.000 C 
ATOM     26  C   UNL     1      -3.353  11.772  18.259  0.00  0.00    +0.000 C 
ATOM     27  C   UNL     1      -4.167  10.553  17.960  0.00  0.00    +0.000 C 
BRANCH  25  28
ATOM     28  C   UNL     1      -2.590  10.940  15.932  0.00  0.00    +0.000 C 
BRANCH  28  29
ATOM     29  O   UNL     1      -2.445   9.706  15.235  0.00  0.00    +0.000 OA
ATOM     30  H   UNL     1      -1.489   9.572  15.135  0.00  0.00    +0.000 HD
ENDBRANCH  28  29
ENDBRANCH  25  28
ENDBRANCH  23  25
ENDBRANCH   9  21
TORSDOF 6
ENDMDL
