MODEL 1
REMARK VINA RESULT:      -8.7      0.000      0.000
REMARK  Name = 
REMARK  5 active torsions:
REMARK  status: ('A' for Active; 'I' for Inactive)
REMARK    1  A    between atoms: C_1  and  C_2
REMARK    2  A    between atoms: C_6  and  C_7
REMARK    3  A    between atoms: N_9  and  C_10
REMARK    4  A    between atoms: C_13  and  C_14
REMARK    5  A    between atoms: N_22  and  C_23
REMARK                            x       y       z     vdW  Elec       q    Type
REMARK                         _______ _______ _______ _____ _____    ______ ____
ROOT
ATOM      1  C   UNL     1       2.202   7.217  19.546  0.00  0.00    +0.000 A 
ATOM      2  C   UNL     1       2.781   7.407  18.286  0.00  0.00    +0.000 A 
ATOM      3  C   UNL     1       3.411   6.369  17.600  0.00  0.00    +0.000 A 
ATOM      4  C   UNL     1       3.545   5.118  18.195  0.00  0.00    +0.000 A 
ATOM      5  C   UNL     1       2.857   4.884  19.403  0.00  0.00    +0.000 A 
ATOM      6  C   UNL     1       2.207   5.928  20.081  0.00  0.00    +0.000 A 
ENDROOT
BRANCH   4   7
ATOM      7  C   UNL     1       4.713   4.242  17.857  0.00  0.00    +0.000 A 
ATOM      8  N   UNL     1       5.633   3.982  18.790  0.00  0.00    +0.000 NA
ATOM      9  C   UNL     1       6.525   5.002  18.551  0.00  0.00    +0.000 A 
ATOM     10  C   UNL     1       7.338   5.715  19.436  0.00  0.00    +0.000 A 
ATOM     11  C   UNL     1       7.956   6.875  18.956  0.00  0.00    +0.000 A 
ATOM     12  C   UNL     1       7.848   7.255  17.611  0.00  0.00    +0.000 A 
ATOM     13  C   UNL     1       7.123   6.493  16.686  0.00  0.00    +0.000 A 
ATOM     14  C   UNL     1       6.439   5.402  17.214  0.00  0.00    +0.000 A 
ATOM     15  N   UNL     1       5.498   4.521  16.739  0.00  0.00    +0.000 N 
BRANCH  15  16
ATOM     16  C   UNL     1       5.343   3.983  15.410  0.00  0.00    +0.000 C 
ATOM     17  F   UNL     1       5.117   4.950  14.485  0.00  0.00    +0.000 F 
ATOM     18  F   UNL     1       6.453   3.313  14.999  0.00  0.00    +0.000 F 
ENDBRANCH  15  16
ENDBRANCH   4   7
BRANCH   1  21
ATOM     19  C   UNL     1       0.982   9.364  19.793  0.00  0.00    +0.000 C 
ATOM     20  O   UNL     1       0.595   9.421  18.627  0.00  0.00    +0.000 OA
ATOM     21  N   UNL     1       1.688   8.292  20.318  0.00  0.00    +0.000 N 
ATOM     22  H   UNL     1       1.826   8.245  21.317  0.00  0.00    +0.000 HD
BRANCH  19  28
ATOM     23  C   UNL     1      -0.378   9.617  22.958  0.00  0.00    +0.000 C 
ATOM     24  C   UNL     1       0.092  10.572  21.936  0.00  0.00    +0.000 A 
ATOM     25  O   UNL     1      -0.020  11.885  22.310  0.00  0.00    +0.000 OA
ATOM     26  C   UNL     1       0.470  12.643  21.302  0.00  0.00    +0.000 A 
ATOM     27  C   UNL     1       0.902  11.845  20.285  0.00  0.00    +0.000 A 
ATOM     28  C   UNL     1       0.644  10.483  20.668  0.00  0.00    +0.000 A 
ENDBRANCH  19  28
ENDBRANCH   1  21
TORSDOF 4
ENDMDL
MODEL 2
REMARK VINA RESULT:      -8.6      1.683      2.171
REMARK  Name = 
REMARK  5 active torsions:
REMARK  status: ('A' for Active; 'I' for Inactive)
REMARK    1  A    between atoms: C_1  and  C_2
REMARK    2  A    between atoms: C_6  and  C_7
REMARK    3  A    between atoms: N_9  and  C_10
REMARK    4  A    between atoms: C_13  and  C_14
REMARK    5  A    between atoms: N_22  and  C_23
REMARK                            x       y       z     vdW  Elec       q    Type
REMARK                         _______ _______ _______ _____ _____    ______ ____
ROOT
ATOM      1  C   UNL     1       1.819   7.380  20.225  0.00  0.00    +0.000 A 
ATOM      2  C   UNL     1       2.627   7.390  19.083  0.00  0.00    +0.000 A 
ATOM      3  C   UNL     1       3.184   6.222  18.562  0.00  0.00    +0.000 A 
ATOM      4  C   UNL     1       3.006   5.008  19.222  0.00  0.00    +0.000 A 
ATOM      5  C   UNL     1       2.093   4.969  20.295  0.00  0.00    +0.000 A 
ATOM      6  C   UNL     1       1.519   6.146  20.803  0.00  0.00    +0.000 A 
ENDROOT
BRANCH   4   7
ATOM      7  C   UNL     1       4.052   3.941  19.134  0.00  0.00    +0.000 A 
ATOM      8  N   UNL     1       5.321   4.236  19.430  0.00  0.00    +0.000 NA
ATOM      9  C   UNL     1       5.792   4.586  18.185  0.00  0.00    +0.000 A 
ATOM     10  C   UNL     1       6.752   5.533  17.818  0.00  0.00    +0.000 A 
ATOM     11  C   UNL     1       6.849   5.863  16.461  0.00  0.00    +0.000 A 
ATOM     12  C   UNL     1       6.085   5.198  15.493  0.00  0.00    +0.000 A 
ATOM     13  C   UNL     1       5.194   4.172  15.834  0.00  0.00    +0.000 A 
ATOM     14  C   UNL     1       5.047   3.936  17.197  0.00  0.00    +0.000 A 
ATOM     15  N   UNL     1       4.190   3.188  17.968  0.00  0.00    +0.000 N 
BRANCH  15  16
ATOM     16  C   UNL     1       3.575   1.917  17.675  0.00  0.00    +0.000 C 
ATOM     17  F   UNL     1       3.550   1.094  18.755  0.00  0.00    +0.000 F 
ATOM     18  F   UNL     1       2.284   2.057  17.271  0.00  0.00    +0.000 F 
ENDBRANCH  15  16
ENDBRANCH   4   7
BRANCH   1  21
ATOM     19  C   UNL     1       0.727   9.608  20.183  0.00  0.00    +0.000 C 
ATOM     20  O   UNL     1       0.349   9.539  19.015  0.00  0.00    +0.000 OA
ATOM     21  N   UNL     1       1.366   8.572  20.849  0.00  0.00    +0.000 N 
ATOM     22  H   UNL     1       1.497   8.644  21.847  0.00  0.00    +0.000 HD
BRANCH  19  28
ATOM     23  C   UNL     1      -0.902  10.361  23.135  0.00  0.00    +0.000 C 
ATOM     24  C   UNL     1      -0.209  11.137  22.089  0.00  0.00    +0.000 A 
ATOM     25  O   UNL     1      -0.184  12.486  22.323  0.00  0.00    +0.000 OA
ATOM     26  C   UNL     1       0.500  13.067  21.311  0.00  0.00    +0.000 A 
ATOM     27  C   UNL     1       0.924  12.119  20.429  0.00  0.00    +0.000 A 
ATOM     28  C   UNL     1       0.453  10.847  20.906  0.00  0.00    +0.000 A 
ENDBRANCH  19  28
ENDBRANCH   1  21
TORSDOF 4
ENDMDL
MODEL 3
REMARK VINA RESULT:      -8.6      2.338      3.214
REMARK  Name = 
REMARK  5 active torsions:
REMARK  status: ('A' for Active; 'I' for Inactive)
REMARK    1  A    between atoms: C_1  and  C_2
REMARK    2  A    between atoms: C_6  and  C_7
REMARK    3  A    between atoms: N_9  and  C_10
REMARK    4  A    between atoms: C_13  and  C_14
REMARK    5  A    between atoms: N_22  and  C_23
REMARK                            x       y       z     vdW  Elec       q    Type
REMARK                         _______ _______ _______ _____ _____    ______ ____
ROOT
ATOM      1  C   UNL     1       2.223   8.016  18.458  0.00  0.00    +0.000 A 
ATOM      2  C   UNL     1       2.073   7.191  19.578  0.00  0.00    +0.000 A 
ATOM      3  C   UNL     1       2.931   6.119  19.825  0.00  0.00    +0.000 A 
ATOM      4  C   UNL     1       3.928   5.796  18.908  0.00  0.00    +0.000 A 
ATOM      5  C   UNL     1       4.166   6.695  17.848  0.00  0.00    +0.000 A 
ATOM      6  C   UNL     1       3.311   7.784  17.615  0.00  0.00    +0.000 A 
ENDROOT
BRANCH   4   7
ATOM      7  C   UNL     1       4.387   4.378  18.760  0.00  0.00    +0.000 A 
ATOM      8  N   UNL     1       5.684   4.088  18.895  0.00  0.00    +0.000 NA
ATOM      9  C   UNL     1       6.101   4.198  17.588  0.00  0.00    +0.000 A 
ATOM     10  C   UNL     1       7.322   4.629  17.065  0.00  0.00    +0.000 A 
ATOM     11  C   UNL     1       7.383   4.885  15.690  0.00  0.00    +0.000 A 
ATOM     12  C   UNL     1       6.292   4.622  14.851  0.00  0.00    +0.000 A 
ATOM     13  C   UNL     1       5.094   4.089  15.345  0.00  0.00    +0.000 A 
ATOM     14  C   UNL     1       5.030   3.940  16.727  0.00  0.00    +0.000 A 
ATOM     15  N   UNL     1       4.037   3.642  17.628  0.00  0.00    +0.000 N 
BRANCH  15  16
ATOM     16  C   UNL     1       2.900   2.769  17.475  0.00  0.00    +0.000 C 
ATOM     17  F   UNL     1       2.844   1.818  18.442  0.00  0.00    +0.000 F 
ATOM     18  F   UNL     1       1.723   3.448  17.540  0.00  0.00    +0.000 F 
ENDBRANCH  15  16
ENDBRANCH   4   7
BRANCH   1  21
ATOM     19  C   UNL     1       0.680   9.874  19.030  0.00  0.00    +0.000 C 
ATOM     20  O   UNL     1       1.021   9.960  20.207  0.00  0.00    +0.000 OA
ATOM     21  N   UNL     1       1.275   9.016  18.116  0.00  0.00    +0.000 N 
ATOM     22  H   UNL     1       1.052   9.119  17.137  0.00  0.00    +0.000 HD
BRANCH  19  28
ATOM     23  C   UNL     1       0.217  13.297  19.004  0.00  0.00    +0.000 C 
ATOM     24  C   UNL     1      -0.572  12.126  18.577  0.00  0.00    +0.000 A 
ATOM     25  O   UNL     1      -1.785  12.445  18.026  0.00  0.00    +0.000 OA
ATOM     26  C   UNL     1      -2.385  11.290  17.655  0.00  0.00    +0.000 A 
ATOM     27  C   UNL     1      -1.581  10.230  17.950  0.00  0.00    +0.000 A 
ATOM     28  C   UNL     1      -0.395  10.751  18.575  0.00  0.00    +0.000 A 
ENDBRANCH  19  28
ENDBRANCH   1  21
TORSDOF 4
ENDMDL
MODEL 4
REMARK VINA RESULT:      -8.6      0.827      1.553
REMARK  Name = 
REMARK  5 active torsions:
REMARK  status: ('A' for Active; 'I' for Inactive)
REMARK    1  A    between atoms: C_1  and  C_2
REMARK    2  A    between atoms: C_6  and  C_7
REMARK    3  A    between atoms: N_9  and  C_10
REMARK    4  A    between atoms: C_13  and  C_14
REMARK    5  A    between atoms: N_22  and  C_23
REMARK                            x       y       z     vdW  Elec       q    Type
REMARK                         _______ _______ _______ _____ _____    ______ ____
ROOT
ATOM      1  C   UNL     1       2.580   6.485  19.505  0.00  0.00    +0.000 A 
ATOM      2  C   UNL     1       2.952   6.892  18.219  0.00  0.00    +0.000 A 
ATOM      3  C   UNL     1       3.751   6.098  17.396  0.00  0.00    +0.000 A 
ATOM      4  C   UNL     1       4.267   4.895  17.873  0.00  0.00    +0.000 A 
ATOM      5  C   UNL     1       3.795   4.421  19.114  0.00  0.00    +0.000 A 
ATOM      6  C   UNL     1       2.975   5.216  19.930  0.00  0.00    +0.000 A 
ENDROOT
BRANCH   4   7
ATOM      7  C   UNL     1       5.577   4.381  17.361  0.00  0.00    +0.000 A 
ATOM      8  N   UNL     1       6.573   4.147  18.220  0.00  0.00    +0.000 NA
ATOM      9  C   UNL     1       7.215   5.364  18.194  0.00  0.00    +0.000 A 
ATOM     10  C   UNL     1       7.897   6.046  19.204  0.00  0.00    +0.000 A 
ATOM     11  C   UNL     1       8.232   7.385  18.970  0.00  0.00    +0.000 A 
ATOM     12  C   UNL     1       7.984   7.991  17.732  0.00  0.00    +0.000 A 
ATOM     13  C   UNL     1       7.396   7.289  16.671  0.00  0.00    +0.000 A 
ATOM     14  C   UNL     1       6.985   5.994  16.967  0.00  0.00    +0.000 A 
ATOM     15  N   UNL     1       6.233   5.041  16.323  0.00  0.00    +0.000 N 
BRANCH  15  16
ATOM     16  C   UNL     1       6.135   4.758  14.912  0.00  0.00    +0.000 C 
ATOM     17  F   UNL     1       6.783   3.615  14.569  0.00  0.00    +0.000 F 
ATOM     18  F   UNL     1       4.845   4.599  14.513  0.00  0.00    +0.000 F 
ENDBRANCH  15  16
ENDBRANCH   4   7
BRANCH   1  21
ATOM     19  C   UNL     1       1.341   8.564  20.055  0.00  0.00    +0.000 C 
ATOM     20  O   UNL     1       1.257   8.968  18.897  0.00  0.00    +0.000 OA
ATOM     21  N   UNL     1       1.892   7.341  20.406  0.00  0.00    +0.000 N 
ATOM     22  H   UNL     1       1.778   7.011  21.353  0.00  0.00    +0.000 HD
BRANCH  19  28
ATOM     23  C   UNL     1       1.181  11.983  20.528  0.00  0.00    +0.000 C 
ATOM     24  C   UNL     1       0.747  10.794  21.288  0.00  0.00    +0.000 A 
ATOM     25  O   UNL     1       0.119  11.089  22.469  0.00  0.00    +0.000 OA
ATOM     26  C   UNL     1      -0.248   9.920  23.043  0.00  0.00    +0.000 A 
ATOM     27  C   UNL     1       0.125   8.875  22.252  0.00  0.00    +0.000 A 
ATOM     28  C   UNL     1       0.799   9.421  21.106  0.00  0.00    +0.000 A 
ENDBRANCH  19  28
ENDBRANCH   1  21
TORSDOF 4
ENDMDL
MODEL 5
REMARK VINA RESULT:      -8.6      2.104      4.049
REMARK  Name = 
REMARK  5 active torsions:
REMARK  status: ('A' for Active; 'I' for Inactive)
REMARK    1  A    between atoms: C_1  and  C_2
REMARK    2  A    between atoms: C_6  and  C_7
REMARK    3  A    between atoms: N_9  and  C_10
REMARK    4  A    between atoms: C_13  and  C_14
REMARK    5  A    between atoms: N_22  and  C_23
REMARK                            x       y       z     vdW  Elec       q    Type
REMARK                         _______ _______ _______ _____ _____    ______ ____
ROOT
ATOM      1  C   UNL     1       1.203   8.937  19.712  0.00  0.00    +0.000 A 
ATOM      2  C   UNL     1       1.559   7.841  20.505  0.00  0.00    +0.000 A 
ATOM      3  C   UNL     1       2.318   6.783  20.005  0.00  0.00    +0.000 A 
ATOM      4  C   UNL     1       2.681   6.758  18.661  0.00  0.00    +0.000 A 
ATOM      5  C   UNL     1       2.437   7.913  17.890  0.00  0.00    +0.000 A 
ATOM      6  C   UNL     1       1.689   8.984  18.405  0.00  0.00    +0.000 A 
ENDROOT
BRANCH   4   7
ATOM      7  C   UNL     1       2.864   5.451  17.953  0.00  0.00    +0.000 A 
ATOM      8  N   UNL     1       1.808   4.656  17.754  0.00  0.00    +0.000 NA
ATOM      9  C   UNL     1       1.868   3.876  18.886  0.00  0.00    +0.000 A 
ATOM     10  C   UNL     1       0.842   3.303  19.642  0.00  0.00    +0.000 A 
ATOM     11  C   UNL     1       1.177   2.773  20.893  0.00  0.00    +0.000 A 
ATOM     12  C   UNL     1       2.507   2.725  21.330  0.00  0.00    +0.000 A 
ATOM     13  C   UNL     1       3.562   3.200  20.539  0.00  0.00    +0.000 A 
ATOM     14  C   UNL     1       3.186   3.810  19.346  0.00  0.00    +0.000 A 
ATOM     15  N   UNL     1       3.834   4.548  18.386  0.00  0.00    +0.000 N 
BRANCH  15  16
ATOM     16  C   UNL     1       5.190   4.432  17.907  0.00  0.00    +0.000 C 
ATOM     17  F   UNL     1       5.260   3.812  16.701  0.00  0.00    +0.000 F 
ATOM     18  F   UNL     1       5.780   5.647  17.746  0.00  0.00    +0.000 F 
ENDBRANCH  15  16
ENDBRANCH   4   7
BRANCH   1  21
ATOM     19  C   UNL     1       0.349  10.513  21.429  0.00  0.00    +0.000 C 
ATOM     20  O   UNL     1       1.249  10.310  22.241  0.00  0.00    +0.000 OA
ATOM     21  N   UNL     1       0.312   9.947  20.162  0.00  0.00    +0.000 N 
ATOM     22  H   UNL     1      -0.367  10.288  19.498  0.00  0.00    +0.000 HD
BRANCH  19  28
ATOM     23  C   UNL     1      -1.187  13.213  19.917  0.00  0.00    +0.000 C 
ATOM     24  C   UNL     1      -1.323  12.513  21.209  0.00  0.00    +0.000 A 
ATOM     25  O   UNL     1      -2.292  13.036  22.024  0.00  0.00    +0.000 OA
ATOM     26  C   UNL     1      -2.329  12.288  23.151  0.00  0.00    +0.000 A 
ATOM     27  C   UNL     1      -1.407  11.287  23.078  0.00  0.00    +0.000 A 
ATOM     28  C   UNL     1      -0.719  11.427  21.823  0.00  0.00    +0.000 A 
ENDBRANCH  19  28
ENDBRANCH   1  21
TORSDOF 4
ENDMDL
MODEL 6
REMARK VINA RESULT:      -8.6      0.422      1.176
REMARK  Name = 
REMARK  5 active torsions:
REMARK  status: ('A' for Active; 'I' for Inactive)
REMARK    1  A    between atoms: C_1  and  C_2
REMARK    2  A    between atoms: C_6  and  C_7
REMARK    3  A    between atoms: N_9  and  C_10
REMARK    4  A    between atoms: C_13  and  C_14
REMARK    5  A    between atoms: N_22  and  C_23
REMARK                            x       y       z     vdW  Elec       q    Type
REMARK                         _______ _______ _______ _____ _____    ______ ____
ROOT
ATOM      1  C   UNL     1       2.248   7.077  19.525  0.00  0.00    +0.000 A 
ATOM      2  C   UNL     1       2.852   7.338  18.291  0.00  0.00    +0.000 A 
ATOM      3  C   UNL     1       3.534   6.351  17.578  0.00  0.00    +0.000 A 
ATOM      4  C   UNL     1       3.694   5.080  18.125  0.00  0.00    +0.000 A 
ATOM      5  C   UNL     1       2.982   4.774  19.303  0.00  0.00    +0.000 A 
ATOM      6  C   UNL     1       2.281   5.767  20.006  0.00  0.00    +0.000 A 
ENDROOT
BRANCH   4   7
ATOM      7  C   UNL     1       4.898   4.258  17.782  0.00  0.00    +0.000 A 
ATOM      8  N   UNL     1       5.827   4.030  18.715  0.00  0.00    +0.000 NA
ATOM      9  C   UNL     1       6.675   5.089  18.485  0.00  0.00    +0.000 A 
ATOM     10  C   UNL     1       7.456   5.829  19.377  0.00  0.00    +0.000 A 
ATOM     11  C   UNL     1       8.025   7.018  18.906  0.00  0.00    +0.000 A 
ATOM     12  C   UNL     1       7.903   7.402  17.564  0.00  0.00    +0.000 A 
ATOM     13  C   UNL     1       7.212   6.617  16.632  0.00  0.00    +0.000 A 
ATOM     14  C   UNL     1       6.574   5.495  17.151  0.00  0.00    +0.000 A 
ATOM     15  N   UNL     1       5.672   4.578  16.668  0.00  0.00    +0.000 N 
BRANCH  15  16
ATOM     16  C   UNL     1       5.542   4.044  15.335  0.00  0.00    +0.000 C 
ATOM     17  F   UNL     1       5.090   4.969  14.450  0.00  0.00    +0.000 F 
ATOM     18  F   UNL     1       6.730   3.597  14.846  0.00  0.00    +0.000 F 
ENDBRANCH  15  16
ENDBRANCH   4   7
BRANCH   1  21
ATOM     19  C   UNL     1       1.022   9.214  19.823  0.00  0.00    +0.000 C 
ATOM     20  O   UNL     1       0.730   9.356  18.638  0.00  0.00    +0.000 OA
ATOM     21  N   UNL     1       1.679   8.101  20.327  0.00  0.00    +0.000 N 
ATOM     22  H   UNL     1       1.737   7.983  21.328  0.00  0.00    +0.000 HD
BRANCH  19  28
ATOM     23  C   UNL     1       1.698  12.594  20.043  0.00  0.00    +0.000 C 
ATOM     24  C   UNL     1       0.905  11.627  20.826  0.00  0.00    +0.000 A 
ATOM     25  O   UNL     1       0.266  12.179  21.905  0.00  0.00    +0.000 OA
ATOM     26  C   UNL     1      -0.440  11.196  22.511  0.00  0.00    +0.000 A 
ATOM     27  C   UNL     1      -0.275  10.021  21.841  0.00  0.00    +0.000 A 
ATOM     28  C   UNL     1       0.621  10.273  20.745  0.00  0.00    +0.000 A 
ENDBRANCH  19  28
ENDBRANCH   1  21
TORSDOF 4
ENDMDL
MODEL 7
REMARK VINA RESULT:      -8.6      2.262      3.029
REMARK  Name = 
REMARK  5 active torsions:
REMARK  status: ('A' for Active; 'I' for Inactive)
REMARK    1  A    between atoms: C_1  and  C_2
REMARK    2  A    between atoms: C_6  and  C_7
REMARK    3  A    between atoms: N_9  and  C_10
REMARK    4  A    between atoms: C_13  and  C_14
REMARK    5  A    between atoms: N_22  and  C_23
REMARK                            x       y       z     vdW  Elec       q    Type
REMARK                         _______ _______ _______ _____ _____    ______ ____
ROOT
ATOM      1  C   UNL     1       2.024   8.093  18.799  0.00  0.00    +0.000 A 
ATOM      2  C   UNL     1       2.027   7.265  19.926  0.00  0.00    +0.000 A 
ATOM      3  C   UNL     1       2.892   6.177  20.040  0.00  0.00    +0.000 A 
ATOM      4  C   UNL     1       3.736   5.842  18.984  0.00  0.00    +0.000 A 
ATOM      5  C   UNL     1       3.830   6.742  17.904  0.00  0.00    +0.000 A 
ATOM      6  C   UNL     1       2.970   7.847  17.803  0.00  0.00    +0.000 A 
ENDROOT
BRANCH   4   7
ATOM      7  C   UNL     1       4.142   4.416  18.766  0.00  0.00    +0.000 A 
ATOM      8  N   UNL     1       5.408   4.051  18.985  0.00  0.00    +0.000 NA
ATOM      9  C   UNL     1       5.940   4.235  17.728  0.00  0.00    +0.000 A 
ATOM     10  C   UNL     1       7.220   4.640  17.341  0.00  0.00    +0.000 A 
ATOM     11  C   UNL     1       7.409   4.992  15.999  0.00  0.00    +0.000 A 
ATOM     12  C   UNL     1       6.383   4.847  15.057  0.00  0.00    +0.000 A 
ATOM     13  C   UNL     1       5.124   4.341  15.408  0.00  0.00    +0.000 A 
ATOM     14  C   UNL     1       4.936   4.095  16.765  0.00  0.00    +0.000 A 
ATOM     15  N   UNL     1       3.858   3.784  17.557  0.00  0.00    +0.000 N 
BRANCH  15  16
ATOM     16  C   UNL     1       2.699   2.983  17.244  0.00  0.00    +0.000 C 
ATOM     17  F   UNL     1       2.687   1.807  17.922  0.00  0.00    +0.000 F 
ATOM     18  F   UNL     1       1.540   3.619  17.562  0.00  0.00    +0.000 F 
ENDBRANCH  15  16
ENDBRANCH   4   7
BRANCH   1  21
ATOM     19  C   UNL     1       0.573   9.935  19.611  0.00  0.00    +0.000 C 
ATOM     20  O   UNL     1       1.044   9.973  20.746  0.00  0.00    +0.000 OA
ATOM     21  N   UNL     1       1.054   9.112  18.604  0.00  0.00    +0.000 N 
ATOM     22  H   UNL     1       0.725   9.256  17.661  0.00  0.00    +0.000 HD
BRANCH  19  28
ATOM     23  C   UNL     1      -1.860  10.029  17.160  0.00  0.00    +0.000 C 
ATOM     24  C   UNL     1      -1.505  10.867  18.322  0.00  0.00    +0.000 A 
ATOM     25  O   UNL     1      -2.328  11.947  18.500  0.00  0.00    +0.000 OA
ATOM     26  C   UNL     1      -1.910  12.605  19.606  0.00  0.00    +0.000 A 
ATOM     27  C   UNL     1      -0.836  11.967  20.151  0.00  0.00    +0.000 A 
ATOM     28  C   UNL     1      -0.538  10.836  19.315  0.00  0.00    +0.000 A 
ENDBRANCH  19  28
ENDBRANCH   1  21
TORSDOF 4
ENDMDL
MODEL 8
REMARK VINA RESULT:      -8.5      3.661      6.528
REMARK  Name = 
REMARK  5 active torsions:
REMARK  status: ('A' for Active; 'I' for Inactive)
REMARK    1  A    between atoms: C_1  and  C_2
REMARK    2  A    between atoms: C_6  and  C_7
REMARK    3  A    between atoms: N_9  and  C_10
REMARK    4  A    between atoms: C_13  and  C_14
REMARK    5  A    between atoms: N_22  and  C_23
REMARK                            x       y       z     vdW  Elec       q    Type
REMARK                         _______ _______ _______ _____ _____    ______ ____
ROOT
ATOM      1  C   UNL     1       7.900   6.859  18.522  0.00  0.00    +0.000 A 
ATOM      2  C   UNL     1       7.453   5.925  19.462  0.00  0.00    +0.000 A 
ATOM      3  C   UNL     1       6.596   4.881  19.116  0.00  0.00    +0.000 A 
ATOM      4  C   UNL     1       6.099   4.787  17.818  0.00  0.00    +0.000 A 
ATOM      5  C   UNL     1       6.643   5.643  16.840  0.00  0.00    +0.000 A 
ATOM      6  C   UNL     1       7.521   6.681  17.191  0.00  0.00    +0.000 A 
ENDROOT
BRANCH   4   7
ATOM      7  C   UNL     1       4.754   4.177  17.568  0.00  0.00    +0.000 A 
ATOM      8  N   UNL     1       3.861   4.835  16.823  0.00  0.00    +0.000 NA
ATOM      9  C   UNL     1       3.191   5.536  17.799  0.00  0.00    +0.000 A 
ATOM     10  C   UNL     1       2.605   6.804  17.758  0.00  0.00    +0.000 A 
ATOM     11  C   UNL     1       2.216   7.377  18.974  0.00  0.00    +0.000 A 
ATOM     12  C   UNL     1       2.316   6.669  20.178  0.00  0.00    +0.000 A 
ATOM     13  C   UNL     1       2.803   5.355  20.223  0.00  0.00    +0.000 A 
ATOM     14  C   UNL     1       3.274   4.851  19.015  0.00  0.00    +0.000 A 
ATOM     15  N   UNL     1       3.975   3.732  18.635  0.00  0.00    +0.000 N 
BRANCH  15  16
ATOM     16  C   UNL     1       3.928   2.398  19.182  0.00  0.00    +0.000 C 
ATOM     17  F   UNL     1       4.035   1.443  18.223  0.00  0.00    +0.000 F 
ATOM     18  F   UNL     1       4.942   2.172  20.061  0.00  0.00    +0.000 F 
ENDBRANCH  15  16
ENDBRANCH   4   7
BRANCH   1  21
ATOM     19  C   UNL     1       8.440   9.277  18.366  0.00  0.00    +0.000 C 
ATOM     20  O   UNL     1       7.484   9.571  17.652  0.00  0.00    +0.000 OA
ATOM     21  N   UNL     1       8.652   8.008  18.886  0.00  0.00    +0.000 N 
ATOM     22  H   UNL     1       9.363   7.885  19.591  0.00  0.00    +0.000 HD
BRANCH  19  28
ATOM     23  C   UNL     1       9.170  11.020  21.258  0.00  0.00    +0.000 C 
ATOM     24  C   UNL     1       9.661  11.039  19.866  0.00  0.00    +0.000 A 
ATOM     25  O   UNL     1      10.652  11.956  19.640  0.00  0.00    +0.000 OA
ATOM     26  C   UNL     1      11.026  11.846  18.343  0.00  0.00    +0.000 A 
ATOM     27  C   UNL     1      10.299  10.871  17.729  0.00  0.00    +0.000 A 
ATOM     28  C   UNL     1       9.382  10.341  18.701  0.00  0.00    +0.000 A 
ENDBRANCH  19  28
ENDBRANCH   1  21
TORSDOF 4
ENDMDL
MODEL 9
REMARK VINA RESULT:      -8.5      2.240      3.831
REMARK  Name = 
REMARK  5 active torsions:
REMARK  status: ('A' for Active; 'I' for Inactive)
REMARK    1  A    between atoms: C_1  and  C_2
REMARK    2  A    between atoms: C_6  and  C_7
REMARK    3  A    between atoms: N_9  and  C_10
REMARK    4  A    between atoms: C_13  and  C_14
REMARK    5  A    between atoms: N_22  and  C_23
REMARK                            x       y       z     vdW  Elec       q    Type
REMARK                         _______ _______ _______ _____ _____    ______ ____
ROOT
ATOM      1  C   UNL     1       1.366   8.966  19.789  0.00  0.00    +0.000 A 
ATOM      2  C   UNL     1       1.700   7.828  20.530  0.00  0.00    +0.000 A 
ATOM      3  C   UNL     1       2.311   6.719  19.945  0.00  0.00    +0.000 A 
ATOM      4  C   UNL     1       2.538   6.690  18.572  0.00  0.00    +0.000 A 
ATOM      5  C   UNL     1       2.322   7.877  17.842  0.00  0.00    +0.000 A 
ATOM      6  C   UNL     1       1.725   8.998  18.441  0.00  0.00    +0.000 A 
ENDROOT
BRANCH   4   7
ATOM      7  C   UNL     1       2.536   5.386  17.834  0.00  0.00    +0.000 A 
ATOM      8  N   UNL     1       1.434   4.630  17.835  0.00  0.00    +0.000 NA
ATOM      9  C   UNL     1       1.681   3.834  18.931  0.00  0.00    +0.000 A 
ATOM     10  C   UNL     1       0.797   3.287  19.865  0.00  0.00    +0.000 A 
ATOM     11  C   UNL     1       1.346   2.730  21.026  0.00  0.00    +0.000 A 
ATOM     12  C   UNL     1       2.733   2.631  21.201  0.00  0.00    +0.000 A 
ATOM     13  C   UNL     1       3.634   3.080  20.225  0.00  0.00    +0.000 A 
ATOM     14  C   UNL     1       3.059   3.718  19.130  0.00  0.00    +0.000 A 
ATOM     15  N   UNL     1       3.538   4.446  18.068  0.00  0.00    +0.000 N 
BRANCH  15  16
ATOM     16  C   UNL     1       4.772   4.290  17.338  0.00  0.00    +0.000 C 
ATOM     17  F   UNL     1       4.568   4.123  16.006  0.00  0.00    +0.000 F 
ATOM     18  F   UNL     1       5.581   5.375  17.467  0.00  0.00    +0.000 F 
ENDBRANCH  15  16
ENDBRANCH   4   7
BRANCH   1  21
ATOM     19  C   UNL     1      -0.583  10.503  19.812  0.00  0.00    +0.000 C 
ATOM     20  O   UNL     1      -1.197   9.938  18.910  0.00  0.00    +0.000 OA
ATOM     21  N   UNL     1       0.615  10.040  20.337  0.00  0.00    +0.000 N 
ATOM     22  H   UNL     1       0.972  10.464  21.180  0.00  0.00    +0.000 HD
BRANCH  19  28
ATOM     23  C   UNL     1      -1.486  11.487  22.998  0.00  0.00    +0.000 C 
ATOM     24  C   UNL     1      -1.540  12.095  21.654  0.00  0.00    +0.000 A 
ATOM     25  O   UNL     1      -2.065  13.360  21.638  0.00  0.00    +0.000 OA
ATOM     26  C   UNL     1      -2.029  13.804  20.360  0.00  0.00    +0.000 A 
ATOM     27  C   UNL     1      -1.484  12.853  19.551  0.00  0.00    +0.000 A 
ATOM     28  C   UNL     1      -1.176  11.714  20.372  0.00  0.00    +0.000 A 
ENDBRANCH  19  28
ENDBRANCH   1  21
TORSDOF 4
ENDMDL
