MODEL 1
REMARK VINA RESULT:      -7.3      0.000      0.000
REMARK  Name = 
REMARK  4 active torsions:
REMARK  status: ('A' for Active; 'I' for Inactive)
REMARK    1  A    between atoms: C_2  and  C_10
REMARK    2  A    between atoms: N_3  and  C_4
REMARK    3  A    between atoms: C_15  and  C_17
REMARK    4  A    between atoms: C_19  and  C_20
REMARK                            x       y       z     vdW  Elec       q    Type
REMARK                         _______ _______ _______ _____ _____    ______ ____
ROOT
ATOM      1  C   UNL     1      -5.595  13.173  23.055  0.00  0.00    +0.000 C 
ATOM      2  C   UNL     1      -5.859  14.594  23.570  0.00  0.00    +0.000 C 
ATOM      3  C   UNL     1      -4.708  15.585  23.341  0.00  0.00    +0.000 C 
ATOM      4  C   UNL     1      -3.330  14.964  23.591  0.00  0.00    +0.000 C 
ATOM      5  N   UNL     1      -3.187  13.671  22.889  0.00  0.00    +0.000 N 
ATOM      6  C   UNL     1      -2.438  13.661  21.694  0.00  0.00    +0.000 C 
ATOM      7  O   UNL     1      -2.076  14.776  21.275  0.00  0.00    +0.000 OA
ATOM      8  C   UNL     1      -4.176  12.715  23.382  0.00  0.00    +0.000 C 
ENDROOT
BRANCH   6   9
ATOM      9  C   UNL     1      -2.081  12.459  20.817  0.00  0.00    +0.000 A 
ATOM     10  C   UNL     1      -2.492  12.328  19.484  0.00  0.00    +0.000 A 
ATOM     11  C   UNL     1      -1.960  11.363  18.639  0.00  0.00    +0.000 A 
ATOM     12  N   UNL     1      -1.190  10.384  19.133  0.00  0.00    +0.000 NA
ATOM     13  C   UNL     1      -0.910  10.363  20.435  0.00  0.00    +0.000 A 
ATOM     14  C   UNL     1      -0.267   9.216  20.872  0.00  0.00    +0.000 A 
ATOM     15  C   UNL     1       0.087   9.037  22.203  0.00  0.00    +0.000 A 
ATOM     16  C   UNL     1      -0.126  10.065  23.100  0.00  0.00    +0.000 A 
ATOM     17  C   UNL     1      -0.772  11.231  22.673  0.00  0.00    +0.000 A 
ATOM     18  C   UNL     1      -1.253  11.397  21.335  0.00  0.00    +0.000 A 
BRANCH  11  19
ATOM     19  C   UNL     1      -2.195  11.340  17.145  0.00  0.00    +0.000 C 
ATOM     20  C   UNL     1      -3.588  10.943  16.680  0.00  0.00    +0.000 C 
ATOM     21  C   UNL     1      -2.410  10.098  16.305  0.00  0.00    +0.000 C 
ENDBRANCH  11  19
ENDBRANCH   6   9
BRANCH   1  23
ATOM     22  O   UNL     1      -6.133  11.780  21.197  0.00  0.00    +0.000 OA
ATOM     23  C   UNL     1      -5.946  12.939  21.582  0.00  0.00    +0.000 C 
ATOM     24  N   UNL     1      -5.971  14.065  20.795  0.00  0.00    +0.000 N 
ATOM     25  H   UNL     1      -5.724  14.942  21.228  0.00  0.00    +0.000 HD
BRANCH  24  26
ATOM     26  C   UNL     1      -6.246  14.160  19.411  0.00  0.00    +0.000 A 
ATOM     27  C   UNL     1      -6.173  13.093  18.521  0.00  0.00    +0.000 A 
ATOM     28  C   UNL     1      -6.490  13.275  17.171  0.00  0.00    +0.000 A 
ATOM     29  C   UNL     1      -6.880  14.528  16.703  0.00  0.00    +0.000 A 
ATOM     30  C   UNL     1      -6.940  15.605  17.581  0.00  0.00    +0.000 A 
ATOM     31  C   UNL     1      -6.618  15.424  18.929  0.00  0.00    +0.000 A 
ENDBRANCH  24  26
ENDBRANCH   1  23
TORSDOF 4
ENDMDL
MODEL 2
REMARK VINA RESULT:      -7.2      9.820     13.119
REMARK  Name = 
REMARK  4 active torsions:
REMARK  status: ('A' for Active; 'I' for Inactive)
REMARK    1  A    between atoms: C_2  and  C_10
REMARK    2  A    between atoms: N_3  and  C_4
REMARK    3  A    between atoms: C_15  and  C_17
REMARK    4  A    between atoms: C_19  and  C_20
REMARK                            x       y       z     vdW  Elec       q    Type
REMARK                         _______ _______ _______ _____ _____    ______ ____
ROOT
ATOM      1  C   UNL     1       9.997  11.477  19.497  0.00  0.00    +0.000 C 
ATOM      2  C   UNL     1      11.483  11.436  19.118  0.00  0.00    +0.000 C 
ATOM      3  C   UNL     1      11.984  12.665  18.346  0.00  0.00    +0.000 C 
ATOM      4  C   UNL     1      10.980  13.160  17.300  0.00  0.00    +0.000 C 
ATOM      5  N   UNL     1       9.626  13.298  17.878  0.00  0.00    +0.000 N 
ATOM      6  C   UNL     1       9.190  14.598  18.205  0.00  0.00    +0.000 C 
ATOM      7  O   UNL     1      10.044  15.497  18.097  0.00  0.00    +0.000 OA
ATOM      8  C   UNL     1       9.141  12.001  18.346  0.00  0.00    +0.000 C 
ENDROOT
BRANCH   6   9
ATOM      9  C   UNL     1       7.823  15.024  18.746  0.00  0.00    +0.000 A 
ATOM     10  C   UNL     1       6.635  14.911  18.012  0.00  0.00    +0.000 A 
ATOM     11  C   UNL     1       5.387  15.069  18.599  0.00  0.00    +0.000 A 
ATOM     12  N   UNL     1       5.284  15.550  19.846  0.00  0.00    +0.000 NA
ATOM     13  C   UNL     1       6.389  15.842  20.530  0.00  0.00    +0.000 A 
ATOM     14  C   UNL     1       6.172  16.502  21.729  0.00  0.00    +0.000 A 
ATOM     15  C   UNL     1       7.221  16.882  22.555  0.00  0.00    +0.000 A 
ATOM     16  C   UNL     1       8.509  16.516  22.219  0.00  0.00    +0.000 A 
ATOM     17  C   UNL     1       8.744  15.846  21.014  0.00  0.00    +0.000 A 
ATOM     18  C   UNL     1       7.696  15.544  20.086  0.00  0.00    +0.000 A 
BRANCH  11  19
ATOM     19  C   UNL     1       4.087  14.723  17.907  0.00  0.00    +0.000 C 
ATOM     20  C   UNL     1       3.353  15.865  17.223  0.00  0.00    +0.000 C 
ATOM     21  C   UNL     1       2.706  15.142  18.362  0.00  0.00    +0.000 C 
ENDBRANCH  11  19
ENDBRANCH   6   9
BRANCH   1  23
ATOM     22  O   UNL     1      10.425  13.108  21.182  0.00  0.00    +0.000 OA
ATOM     23  C   UNL     1       9.681  12.192  20.815  0.00  0.00    +0.000 C 
ATOM     24  N   UNL     1       8.601  11.703  21.508  0.00  0.00    +0.000 N 
ATOM     25  H   UNL     1       8.126  10.899  21.125  0.00  0.00    +0.000 HD
BRANCH  24  26
ATOM     26  C   UNL     1       8.082  12.145  22.747  0.00  0.00    +0.000 A 
ATOM     27  C   UNL     1       8.624  11.820  23.986  0.00  0.00    +0.000 A 
ATOM     28  C   UNL     1       8.059  12.326  25.161  0.00  0.00    +0.000 A 
ATOM     29  C   UNL     1       6.944  13.160  25.102  0.00  0.00    +0.000 A 
ATOM     30  C   UNL     1       6.384  13.478  23.869  0.00  0.00    +0.000 A 
ATOM     31  C   UNL     1       6.946  12.968  22.696  0.00  0.00    +0.000 A 
ENDBRANCH  24  26
ENDBRANCH   1  23
TORSDOF 4
ENDMDL
MODEL 3
REMARK VINA RESULT:      -7.0      3.292      5.913
REMARK  Name = 
REMARK  4 active torsions:
REMARK  status: ('A' for Active; 'I' for Inactive)
REMARK    1  A    between atoms: C_2  and  C_10
REMARK    2  A    between atoms: N_3  and  C_4
REMARK    3  A    between atoms: C_15  and  C_17
REMARK    4  A    between atoms: C_19  and  C_20
REMARK                            x       y       z     vdW  Elec       q    Type
REMARK                         _______ _______ _______ _____ _____    ______ ____
ROOT
ATOM      1  C   UNL     1      -0.165  15.967  18.938  0.00  0.00    +0.000 C 
ATOM      2  C   UNL     1       1.061  16.883  18.825  0.00  0.00    +0.000 C 
ATOM      3  C   UNL     1       1.909  16.983  20.102  0.00  0.00    +0.000 C 
ATOM      4  C   UNL     1       1.061  17.056  21.375  0.00  0.00    +0.000 C 
ATOM      5  N   UNL     1       0.028  15.998  21.395  0.00  0.00    +0.000 N 
ATOM      6  C   UNL     1       0.273  14.869  22.203  0.00  0.00    +0.000 C 
ATOM      7  O   UNL     1       1.401  14.811  22.725  0.00  0.00    +0.000 OA
ATOM      8  C   UNL     1      -0.888  16.163  20.269  0.00  0.00    +0.000 C 
ENDROOT
BRANCH   6   9
ATOM      9  C   UNL     1      -0.651  13.675  22.457  0.00  0.00    +0.000 A 
ATOM     10  C   UNL     1      -0.319  12.357  22.118  0.00  0.00    +0.000 A 
ATOM     11  C   UNL     1      -1.053  11.270  22.573  0.00  0.00    +0.000 A 
ATOM     12  N   UNL     1      -2.234  11.459  23.177  0.00  0.00    +0.000 NA
ATOM     13  C   UNL     1      -2.683  12.699  23.368  0.00  0.00    +0.000 A 
ATOM     14  C   UNL     1      -3.988  12.779  23.828  0.00  0.00    +0.000 A 
ATOM     15  C   UNL     1      -4.604  14.000  24.070  0.00  0.00    +0.000 A 
ATOM     16  C   UNL     1      -3.871  15.163  23.935  0.00  0.00    +0.000 A 
ATOM     17  C   UNL     1      -2.551  15.097  23.475  0.00  0.00    +0.000 A 
ATOM     18  C   UNL     1      -1.927  13.863  23.105  0.00  0.00    +0.000 A 
BRANCH  11  19
ATOM     19  C   UNL     1      -0.596   9.835  22.433  0.00  0.00    +0.000 C 
ATOM     20  C   UNL     1       0.673   9.448  23.176  0.00  0.00    +0.000 C 
ATOM     21  C   UNL     1       0.634   9.370  21.682  0.00  0.00    +0.000 C 
ENDBRANCH  11  19
ENDBRANCH   6   9
BRANCH   1  23
ATOM     22  O   UNL     1       1.264  14.123  18.456  0.00  0.00    +0.000 OA
ATOM     23  C   UNL     1       0.099  14.487  18.645  0.00  0.00    +0.000 C 
ATOM     24  N   UNL     1      -1.018  13.691  18.569  0.00  0.00    +0.000 N 
ATOM     25  H   UNL     1      -1.916  14.138  18.672  0.00  0.00    +0.000 HD
BRANCH  24  26
ATOM     26  C   UNL     1      -1.089  12.304  18.302  0.00  0.00    +0.000 A 
ATOM     27  C   UNL     1      -0.063  11.401  18.564  0.00  0.00    +0.000 A 
ATOM     28  C   UNL     1      -0.232  10.040  18.291  0.00  0.00    +0.000 A 
ATOM     29  C   UNL     1      -1.430   9.574  17.753  0.00  0.00    +0.000 A 
ATOM     30  C   UNL     1      -2.455  10.470  17.472  0.00  0.00    +0.000 A 
ATOM     31  C   UNL     1      -2.284  11.832  17.739  0.00  0.00    +0.000 A 
ENDBRANCH  24  26
ENDBRANCH   1  23
TORSDOF 4
ENDMDL
MODEL 4
REMARK VINA RESULT:      -6.8      2.179      6.277
REMARK  Name = 
REMARK  4 active torsions:
REMARK  status: ('A' for Active; 'I' for Inactive)
REMARK    1  A    between atoms: C_2  and  C_10
REMARK    2  A    between atoms: N_3  and  C_4
REMARK    3  A    between atoms: C_15  and  C_17
REMARK    4  A    between atoms: C_19  and  C_20
REMARK                            x       y       z     vdW  Elec       q    Type
REMARK                         _______ _______ _______ _____ _____    ______ ____
ROOT
ATOM      1  C   UNL     1      -0.317  14.658  20.174  0.00  0.00    +0.000 C 
ATOM      2  C   UNL     1       0.332  14.760  21.560  0.00  0.00    +0.000 C 
ATOM      3  C   UNL     1      -0.513  14.192  22.710  0.00  0.00    +0.000 C 
ATOM      4  C   UNL     1      -2.002  14.529  22.576  0.00  0.00    +0.000 C 
ATOM      5  N   UNL     1      -2.504  14.217  21.221  0.00  0.00    +0.000 N 
ATOM      6  C   UNL     1      -3.255  13.035  21.064  0.00  0.00    +0.000 C 
ATOM      7  O   UNL     1      -3.312  12.295  22.063  0.00  0.00    +0.000 OA
ATOM      8  C   UNL     1      -1.799  15.019  20.223  0.00  0.00    +0.000 C 
ENDROOT
BRANCH   6   9
ATOM      9  C   UNL     1      -3.943  12.518  19.798  0.00  0.00    +0.000 A 
ATOM     10  C   UNL     1      -3.318  11.673  18.871  0.00  0.00    +0.000 A 
ATOM     11  C   UNL     1      -4.027  11.023  17.870  0.00  0.00    +0.000 A 
ATOM     12  N   UNL     1      -5.302  11.352  17.624  0.00  0.00    +0.000 NA
ATOM     13  C   UNL     1      -5.896  12.284  18.369  0.00  0.00    +0.000 A 
ATOM     14  C   UNL     1      -7.144  12.681  17.917  0.00  0.00    +0.000 A 
ATOM     15  C   UNL     1      -7.888  13.648  18.579  0.00  0.00    +0.000 A 
ATOM     16  C   UNL     1      -7.414  14.165  19.769  0.00  0.00    +0.000 A 
ATOM     17  C   UNL     1      -6.157  13.771  20.240  0.00  0.00    +0.000 A 
ATOM     18  C   UNL     1      -5.315  12.865  19.519  0.00  0.00    +0.000 A 
BRANCH  11  19
ATOM     19  C   UNL     1      -3.441   9.927  17.008  0.00  0.00    +0.000 C 
ATOM     20  C   UNL     1      -1.929   9.916  16.853  0.00  0.00    +0.000 C 
ATOM     21  C   UNL     1      -2.797  10.121  15.651  0.00  0.00    +0.000 C 
ENDBRANCH  11  19
ENDBRANCH   6   9
BRANCH   1  23
ATOM     22  O   UNL     1      -0.545  13.197  18.304  0.00  0.00    +0.000 OA
ATOM     23  C   UNL     1      -0.076  13.335  19.439  0.00  0.00    +0.000 C 
ATOM     24  N   UNL     1       0.615  12.382  20.148  0.00  0.00    +0.000 N 
ATOM     25  H   UNL     1       0.875  12.605  21.097  0.00  0.00    +0.000 HD
BRANCH  24  26
ATOM     26  C   UNL     1       0.972  11.076  19.742  0.00  0.00    +0.000 A 
ATOM     27  C   UNL     1       1.482  10.756  18.487  0.00  0.00    +0.000 A 
ATOM     28  C   UNL     1       1.834   9.437  18.182  0.00  0.00    +0.000 A 
ATOM     29  C   UNL     1       1.675   8.429  19.130  0.00  0.00    +0.000 A 
ATOM     30  C   UNL     1       1.150   8.735  20.382  0.00  0.00    +0.000 A 
ATOM     31  C   UNL     1       0.794  10.052  20.685  0.00  0.00    +0.000 A 
ENDBRANCH  24  26
ENDBRANCH   1  23
TORSDOF 4
ENDMDL
MODEL 5
REMARK VINA RESULT:      -6.8      2.563      5.581
REMARK  Name = 
REMARK  4 active torsions:
REMARK  status: ('A' for Active; 'I' for Inactive)
REMARK    1  A    between atoms: C_2  and  C_10
REMARK    2  A    between atoms: N_3  and  C_4
REMARK    3  A    between atoms: C_15  and  C_17
REMARK    4  A    between atoms: C_19  and  C_20
REMARK                            x       y       z     vdW  Elec       q    Type
REMARK                         _______ _______ _______ _____ _____    ______ ____
ROOT
ATOM      1  C   UNL     1      -2.193  15.961  22.863  0.00  0.00    +0.000 C 
ATOM      2  C   UNL     1      -2.375  15.999  24.386  0.00  0.00    +0.000 C 
ATOM      3  C   UNL     1      -3.298  14.909  24.951  0.00  0.00    +0.000 C 
ATOM      4  C   UNL     1      -4.531  14.663  24.076  0.00  0.00    +0.000 C 
ATOM      5  N   UNL     1      -4.157  14.487  22.657  0.00  0.00    +0.000 N 
ATOM      6  C   UNL     1      -4.134  13.172  22.150  0.00  0.00    +0.000 C 
ATOM      7  O   UNL     1      -4.305  12.267  22.987  0.00  0.00    +0.000 OA
ATOM      8  C   UNL     1      -3.516  15.699  22.149  0.00  0.00    +0.000 C 
ENDROOT
BRANCH   6   9
ATOM      9  C   UNL     1      -3.852  12.721  20.715  0.00  0.00    +0.000 A 
ATOM     10  C   UNL     1      -2.560  12.583  20.189  0.00  0.00    +0.000 A 
ATOM     11  C   UNL     1      -2.320  11.944  18.980  0.00  0.00    +0.000 A 
ATOM     12  N   UNL     1      -3.338  11.629  18.169  0.00  0.00    +0.000 NA
ATOM     13  C   UNL     1      -4.587  11.901  18.547  0.00  0.00    +0.000 A 
ATOM     14  C   UNL     1      -5.545  11.708  17.565  0.00  0.00    +0.000 A 
ATOM     15  C   UNL     1      -6.892  11.955  17.800  0.00  0.00    +0.000 A 
ATOM     16  C   UNL     1      -7.300  12.316  19.068  0.00  0.00    +0.000 A 
ATOM     17  C   UNL     1      -6.343  12.511  20.071  0.00  0.00    +0.000 A 
ATOM     18  C   UNL     1      -4.938  12.379  19.829  0.00  0.00    +0.000 A 
BRANCH  11  19
ATOM     19  C   UNL     1      -0.938  11.563  18.497  0.00  0.00    +0.000 C 
ATOM     20  C   UNL     1      -0.619  10.077  18.446  0.00  0.00    +0.000 C 
ATOM     21  C   UNL     1       0.165  10.975  19.352  0.00  0.00    +0.000 C 
ENDBRANCH  11  19
ENDBRANCH   6   9
BRANCH   1  23
ATOM     22  O   UNL     1      -0.874  13.980  22.974  0.00  0.00    +0.000 OA
ATOM     23  C   UNL     1      -1.080  15.034  22.364  0.00  0.00    +0.000 C 
ATOM     24  N   UNL     1      -0.364  15.497  21.287  0.00  0.00    +0.000 N 
ATOM     25  H   UNL     1      -0.594  16.413  20.934  0.00  0.00    +0.000 HD
BRANCH  24  26
ATOM     26  C   UNL     1       0.718  14.875  20.622  0.00  0.00    +0.000 A 
ATOM     27  C   UNL     1       1.811  14.303  21.266  0.00  0.00    +0.000 A 
ATOM     28  C   UNL     1       2.824  13.685  20.526  0.00  0.00    +0.000 A 
ATOM     29  C   UNL     1       2.749  13.637  19.135  0.00  0.00    +0.000 A 
ATOM     30  C   UNL     1       1.670  14.220  18.481  0.00  0.00    +0.000 A 
ATOM     31  C   UNL     1       0.661  14.843  19.220  0.00  0.00    +0.000 A 
ENDBRANCH  24  26
ENDBRANCH   1  23
TORSDOF 4
ENDMDL
MODEL 6
REMARK VINA RESULT:      -6.8      2.059      5.521
REMARK  Name = 
REMARK  4 active torsions:
REMARK  status: ('A' for Active; 'I' for Inactive)
REMARK    1  A    between atoms: C_2  and  C_10
REMARK    2  A    between atoms: N_3  and  C_4
REMARK    3  A    between atoms: C_15  and  C_17
REMARK    4  A    between atoms: C_19  and  C_20
REMARK                            x       y       z     vdW  Elec       q    Type
REMARK                         _______ _______ _______ _____ _____    ______ ____
ROOT
ATOM      1  C   UNL     1      -2.355  14.597  22.273  0.00  0.00    +0.000 C 
ATOM      2  C   UNL     1      -2.215  14.465  23.795  0.00  0.00    +0.000 C 
ATOM      3  C   UNL     1      -3.538  14.533  24.572  0.00  0.00    +0.000 C 
ATOM      4  C   UNL     1      -4.498  15.591  24.019  0.00  0.00    +0.000 C 
ATOM      5  N   UNL     1      -4.643  15.472  22.552  0.00  0.00    +0.000 N 
ATOM      6  C   UNL     1      -5.812  14.854  22.064  0.00  0.00    +0.000 C 
ATOM      7  O   UNL     1      -6.555  14.348  22.924  0.00  0.00    +0.000 OA
ATOM      8  C   UNL     1      -3.354  15.689  21.897  0.00  0.00    +0.000 C 
ENDROOT
BRANCH   6   9
ATOM      9  C   UNL     1      -6.239  14.667  20.606  0.00  0.00    +0.000 A 
ATOM     10  C   UNL     1      -6.468  15.734  19.727  0.00  0.00    +0.000 A 
ATOM     11  C   UNL     1      -6.612  15.546  18.359  0.00  0.00    +0.000 A 
ATOM     12  N   UNL     1      -6.752  14.311  17.859  0.00  0.00    +0.000 NA
ATOM     13  C   UNL     1      -6.717  13.262  18.681  0.00  0.00    +0.000 A 
ATOM     14  C   UNL     1      -7.056  12.053  18.094  0.00  0.00    +0.000 A 
ATOM     15  C   UNL     1      -7.074  10.869  18.818  0.00  0.00    +0.000 A 
ATOM     16  C   UNL     1      -6.659  10.877  20.135  0.00  0.00    +0.000 A 
ATOM     17  C   UNL     1      -6.311  12.090  20.740  0.00  0.00    +0.000 A 
ATOM     18  C   UNL     1      -6.395  13.344  20.053  0.00  0.00    +0.000 A 
BRANCH  11  19
ATOM     19  C   UNL     1      -6.621  16.678  17.356  0.00  0.00    +0.000 C 
ATOM     20  C   UNL     1      -7.916  17.462  17.223  0.00  0.00    +0.000 C 
ATOM     21  C   UNL     1      -7.389  16.695  16.051  0.00  0.00    +0.000 C 
ENDBRANCH  11  19
ENDBRANCH   6   9
BRANCH   1  23
ATOM     22  O   UNL     1      -3.284  12.409  22.106  0.00  0.00    +0.000 OA
ATOM     23  C   UNL     1      -2.634  13.287  21.529  0.00  0.00    +0.000 C 
ATOM     24  N   UNL     1      -2.079  13.190  20.276  0.00  0.00    +0.000 N 
ATOM     25  H   UNL     1      -1.508  13.958  19.959  0.00  0.00    +0.000 HD
BRANCH  24  26
ATOM     26  C   UNL     1      -2.153  12.109  19.368  0.00  0.00    +0.000 A 
ATOM     27  C   UNL     1      -1.131  11.188  19.160  0.00  0.00    +0.000 A 
ATOM     28  C   UNL     1      -1.302  10.133  18.258  0.00  0.00    +0.000 A 
ATOM     29  C   UNL     1      -2.499   9.994  17.557  0.00  0.00    +0.000 A 
ATOM     30  C   UNL     1      -3.520  10.919  17.745  0.00  0.00    +0.000 A 
ATOM     31  C   UNL     1      -3.346  11.977  18.642  0.00  0.00    +0.000 A 
ENDBRANCH  24  26
ENDBRANCH   1  23
TORSDOF 4
ENDMDL
MODEL 7
REMARK VINA RESULT:      -6.8      2.047      3.747
REMARK  Name = 
REMARK  4 active torsions:
REMARK  status: ('A' for Active; 'I' for Inactive)
REMARK    1  A    between atoms: C_2  and  C_10
REMARK    2  A    between atoms: N_3  and  C_4
REMARK    3  A    between atoms: C_15  and  C_17
REMARK    4  A    between atoms: C_19  and  C_20
REMARK                            x       y       z     vdW  Elec       q    Type
REMARK                         _______ _______ _______ _____ _____    ______ ____
ROOT
ATOM      1  C   UNL     1      -4.054  13.244  24.026  0.00  0.00    +0.000 C 
ATOM      2  C   UNL     1      -3.163  14.269  24.741  0.00  0.00    +0.000 C 
ATOM      3  C   UNL     1      -2.022  14.837  23.886  0.00  0.00    +0.000 C 
ATOM      4  C   UNL     1      -1.350  13.775  23.009  0.00  0.00    +0.000 C 
ATOM      5  N   UNL     1      -2.351  12.982  22.263  0.00  0.00    +0.000 N 
ATOM      6  C   UNL     1      -2.540  13.292  20.901  0.00  0.00    +0.000 C 
ATOM      7  O   UNL     1      -1.935  14.297  20.487  0.00  0.00    +0.000 OA
ATOM      8  C   UNL     1      -3.225  12.269  23.192  0.00  0.00    +0.000 C 
ENDROOT
BRANCH   6   9
ATOM      9  C   UNL     1      -3.451  12.588  19.894  0.00  0.00    +0.000 A 
ATOM     10  C   UNL     1      -4.844  12.744  19.873  0.00  0.00    +0.000 A 
ATOM     11  C   UNL     1      -5.621  12.298  18.813  0.00  0.00    +0.000 A 
ATOM     12  N   UNL     1      -5.088  11.510  17.870  0.00  0.00    +0.000 NA
ATOM     13  C   UNL     1      -3.797  11.185  17.938  0.00  0.00    +0.000 A 
ATOM     14  C   UNL     1      -3.392  10.222  17.028  0.00  0.00    +0.000 A 
ATOM     15  C   UNL     1      -2.080   9.770  16.977  0.00  0.00    +0.000 A 
ATOM     16  C   UNL     1      -1.134  10.356  17.793  0.00  0.00    +0.000 A 
ATOM     17  C   UNL     1      -1.527  11.332  18.716  0.00  0.00    +0.000 A 
ATOM     18  C   UNL     1      -2.892  11.735  18.873  0.00  0.00    +0.000 A 
BRANCH  11  19
ATOM     19  C   UNL     1      -7.081  12.655  18.638  0.00  0.00    +0.000 C 
ATOM     20  C   UNL     1      -7.382  13.950  17.900  0.00  0.00    +0.000 C 
ATOM     21  C   UNL     1      -7.799  13.795  19.329  0.00  0.00    +0.000 C 
ENDBRANCH  11  19
ENDBRANCH   6   9
BRANCH   1  23
ATOM     22  O   UNL     1      -6.239  13.167  23.079  0.00  0.00    +0.000 OA
ATOM     23  C   UNL     1      -5.214  13.840  23.222  0.00  0.00    +0.000 C 
ATOM     24  N   UNL     1      -4.980  15.080  22.678  0.00  0.00    +0.000 N 
ATOM     25  H   UNL     1      -4.066  15.484  22.814  0.00  0.00    +0.000 HD
BRANCH  24  26
ATOM     26  C   UNL     1      -5.848  15.866  21.885  0.00  0.00    +0.000 A 
ATOM     27  C   UNL     1      -7.138  16.231  22.259  0.00  0.00    +0.000 A 
ATOM     28  C   UNL     1      -7.916  17.035  21.420  0.00  0.00    +0.000 A 
ATOM     29  C   UNL     1      -7.409  17.478  20.200  0.00  0.00    +0.000 A 
ATOM     30  C   UNL     1      -6.127  17.105  19.810  0.00  0.00    +0.000 A 
ATOM     31  C   UNL     1      -5.351  16.297  20.645  0.00  0.00    +0.000 A 
ENDBRANCH  24  26
ENDBRANCH   1  23
TORSDOF 4
ENDMDL
MODEL 8
REMARK VINA RESULT:      -6.7      1.802      3.834
REMARK  Name = 
REMARK  4 active torsions:
REMARK  status: ('A' for Active; 'I' for Inactive)
REMARK    1  A    between atoms: C_2  and  C_10
REMARK    2  A    between atoms: N_3  and  C_4
REMARK    3  A    between atoms: C_15  and  C_17
REMARK    4  A    between atoms: C_19  and  C_20
REMARK                            x       y       z     vdW  Elec       q    Type
REMARK                         _______ _______ _______ _____ _____    ______ ____
ROOT
ATOM      1  C   UNL     1      -5.950  13.562  22.181  0.00  0.00    +0.000 C 
ATOM      2  C   UNL     1      -6.690  14.857  22.540  0.00  0.00    +0.000 C 
ATOM      3  C   UNL     1      -5.798  15.973  23.103  0.00  0.00    +0.000 C 
ATOM      4  C   UNL     1      -4.732  15.451  24.072  0.00  0.00    +0.000 C 
ATOM      5  N   UNL     1      -4.002  14.300  23.499  0.00  0.00    +0.000 N 
ATOM      6  C   UNL     1      -2.715  14.543  22.978  0.00  0.00    +0.000 C 
ATOM      7  O   UNL     1      -2.367  15.737  22.931  0.00  0.00    +0.000 OA
ATOM      8  C   UNL     1      -4.922  13.192  23.248  0.00  0.00    +0.000 C 
ENDROOT
BRANCH   6   9
ATOM      9  C   UNL     1      -1.728  13.527  22.397  0.00  0.00    +0.000 A 
ATOM     10  C   UNL     1      -1.404  12.319  23.028  0.00  0.00    +0.000 A 
ATOM     11  C   UNL     1      -0.706  11.311  22.378  0.00  0.00    +0.000 A 
ATOM     12  N   UNL     1      -0.129  11.546  21.192  0.00  0.00    +0.000 NA
ATOM     13  C   UNL     1      -0.260  12.744  20.624  0.00  0.00    +0.000 A 
ATOM     14  C   UNL     1       0.524  12.942  19.499  0.00  0.00    +0.000 A 
ATOM     15  C   UNL     1       0.507  14.141  18.798  0.00  0.00    +0.000 A 
ATOM     16  C   UNL     1      -0.378  15.131  19.177  0.00  0.00    +0.000 A 
ATOM     17  C   UNL     1      -1.178  14.944  20.310  0.00  0.00    +0.000 A 
ATOM     18  C   UNL     1      -1.098  13.767  21.121  0.00  0.00    +0.000 A 
BRANCH  11  19
ATOM     19  C   UNL     1      -0.546   9.913  22.933  0.00  0.00    +0.000 C 
ATOM     20  C   UNL     1       0.859   9.330  22.920  0.00  0.00    +0.000 C 
ATOM     21  C   UNL     1      -0.226   8.673  22.125  0.00  0.00    +0.000 C 
ENDBRANCH  11  19
ENDBRANCH   6   9
BRANCH   1  23
ATOM     22  O   UNL     1      -5.210  14.591  20.162  0.00  0.00    +0.000 OA
ATOM     23  C   UNL     1      -5.349  13.525  20.772  0.00  0.00    +0.000 C 
ATOM     24  N   UNL     1      -5.059  12.273  20.286  0.00  0.00    +0.000 N 
ATOM     25  H   UNL     1      -5.294  11.482  20.866  0.00  0.00    +0.000 HD
BRANCH  24  26
ATOM     26  C   UNL     1      -4.515  11.927  19.027  0.00  0.00    +0.000 A 
ATOM     27  C   UNL     1      -5.273  11.666  17.889  0.00  0.00    +0.000 A 
ATOM     28  C   UNL     1      -4.646  11.356  16.678  0.00  0.00    +0.000 A 
ATOM     29  C   UNL     1      -3.256  11.304  16.599  0.00  0.00    +0.000 A 
ATOM     30  C   UNL     1      -2.490  11.546  17.734  0.00  0.00    +0.000 A 
ATOM     31  C   UNL     1      -3.116  11.850  18.946  0.00  0.00    +0.000 A 
ENDBRANCH  24  26
ENDBRANCH   1  23
TORSDOF 4
ENDMDL
MODEL 9
REMARK VINA RESULT:      -6.7      1.962      5.930
REMARK  Name = 
REMARK  4 active torsions:
REMARK  status: ('A' for Active; 'I' for Inactive)
REMARK    1  A    between atoms: C_2  and  C_10
REMARK    2  A    between atoms: N_3  and  C_4
REMARK    3  A    between atoms: C_15  and  C_17
REMARK    4  A    between atoms: C_19  and  C_20
REMARK                            x       y       z     vdW  Elec       q    Type
REMARK                         _______ _______ _______ _____ _____    ______ ____
ROOT
ATOM      1  C   UNL     1      -1.250  15.267  21.033  0.00  0.00    +0.000 C 
ATOM      2  C   UNL     1      -0.760  15.249  22.487  0.00  0.00    +0.000 C 
ATOM      3  C   UNL     1      -1.577  14.354  23.430  0.00  0.00    +0.000 C 
ATOM      4  C   UNL     1      -3.085  14.437  23.171  0.00  0.00    +0.000 C 
ATOM      5  N   UNL     1      -3.393  14.272  21.734  0.00  0.00    +0.000 N 
ATOM      6  C   UNL     1      -3.881  13.018  21.315  0.00  0.00    +0.000 C 
ATOM      7  O   UNL     1      -3.881  12.122  22.179  0.00  0.00    +0.000 OA
ATOM      8  C   UNL     1      -2.773  15.344  20.957  0.00  0.00    +0.000 C 
ENDROOT
BRANCH   6   9
ATOM      9  C   UNL     1      -4.338  12.606  19.914  0.00  0.00    +0.000 A 
ATOM     10  C   UNL     1      -3.597  11.761  19.077  0.00  0.00    +0.000 A 
ATOM     11  C   UNL     1      -4.135  11.207  17.924  0.00  0.00    +0.000 A 
ATOM     12  N   UNL     1      -5.315  11.636  17.456  0.00  0.00    +0.000 NA
ATOM     13  C   UNL     1      -5.985  12.573  18.126  0.00  0.00    +0.000 A 
ATOM     14  C   UNL     1      -7.095  13.076  17.465  0.00  0.00    +0.000 A 
ATOM     15  C   UNL     1      -7.894  14.064  18.026  0.00  0.00    +0.000 A 
ATOM     16  C   UNL     1      -7.631  14.493  19.312  0.00  0.00    +0.000 A 
ATOM     17  C   UNL     1      -6.516  13.992  19.992  0.00  0.00    +0.000 A 
ATOM     18  C   UNL     1      -5.606  13.061  19.396  0.00  0.00    +0.000 A 
BRANCH  11  19
ATOM     19  C   UNL     1      -3.459  10.112  17.129  0.00  0.00    +0.000 C 
ATOM     20  C   UNL     1      -1.947  10.198  16.999  0.00  0.00    +0.000 C 
ATOM     21  C   UNL     1      -2.804  10.280  15.774  0.00  0.00    +0.000 C 
ENDBRANCH  11  19
ENDBRANCH   6   9
BRANCH   1  23
ATOM     22  O   UNL     1      -0.624  14.347  18.926  0.00  0.00    +0.000 OA
ATOM     23  C   UNL     1      -0.690  14.152  20.143  0.00  0.00    +0.000 C 
ATOM     24  N   UNL     1      -0.352  12.991  20.795  0.00  0.00    +0.000 N 
ATOM     25  H   UNL     1      -0.528  12.945  21.787  0.00  0.00    +0.000 HD
BRANCH  24  26
ATOM     26  C   UNL     1       0.172  11.798  20.245  0.00  0.00    +0.000 A 
ATOM     27  C   UNL     1      -0.206  10.519  20.641  0.00  0.00    +0.000 A 
ATOM     28  C   UNL     1       0.347   9.394  20.020  0.00  0.00    +0.000 A 
ATOM     29  C   UNL     1       1.284   9.544  18.999  0.00  0.00    +0.000 A 
ATOM     30  C   UNL     1       1.681  10.817  18.607  0.00  0.00    +0.000 A 
ATOM     31  C   UNL     1       1.132  11.941  19.232  0.00  0.00    +0.000 A 
ENDBRANCH  24  26
ENDBRANCH   1  23
TORSDOF 4
ENDMDL
