MODEL 1
REMARK VINA RESULT:      -8.9      0.000      0.000
REMARK  Name = 
REMARK  7 active torsions:
REMARK  status: ('A' for Active; 'I' for Inactive)
REMARK    1  A    between atoms: C_1  and  O_2
REMARK    2  A    between atoms: O_2  and  C_3
REMARK    3  A    between atoms: C_6  and  C_7
REMARK    4  A    between atoms: C_9  and  C_10
REMARK    5  A    between atoms: C_10  and  C_11
REMARK    6  A    between atoms: C_14  and  C_15
REMARK    7  A    between atoms: C_24  and  C_25
REMARK                            x       y       z     vdW  Elec       q    Type
REMARK                         _______ _______ _______ _____ _____    ______ ____
ROOT
ATOM      1  C   UNL     1       1.748   8.827  18.705  0.00  0.00    +0.000 A 
ATOM      2  N   UNL     1       1.819   8.317  19.946  0.00  0.00    +0.000 NA
ATOM      3  O   UNL     1       2.251   6.999  19.739  0.00  0.00    +0.000 OA
ATOM      4  C   UNL     1       2.443   6.857  18.393  0.00  0.00    +0.000 A 
ATOM      5  N   UNL     1       2.128   7.940  17.715  0.00  0.00    +0.000 NA
ENDROOT
BRANCH   4   6
ATOM      6  C   UNL     1       2.922   5.531  17.849  0.00  0.00    +0.000 C 
ATOM      7  C   UNL     1       1.720   4.572  17.741  0.00  0.00    +0.000 C 
ATOM      8  C   UNL     1       1.791   3.916  19.087  0.00  0.00    +0.000 A 
ATOM      9  C   UNL     1       0.794   3.258  19.778  0.00  0.00    +0.000 A 
ATOM     10  C   UNL     1       1.112   2.708  21.020  0.00  0.00    +0.000 A 
ATOM     11  C   UNL     1       2.420   2.778  21.526  0.00  0.00    +0.000 A 
ATOM     12  C   UNL     1       3.431   3.425  20.805  0.00  0.00    +0.000 A 
ATOM     13  C   UNL     1       3.090   4.014  19.604  0.00  0.00    +0.000 A 
ATOM     14  N   UNL     1       3.873   4.831  18.761  0.00  0.00    +0.000 N 
ATOM     15  C   UNL     1       5.255   4.832  18.741  0.00  0.00    +0.000 C 
ATOM     16  C   UNL     1       5.919   5.767  17.761  0.00  0.00    +0.000 C 
ATOM     17  O   UNL     1       5.956   4.076  19.409  0.00  0.00    +0.000 OA
ENDBRANCH   4   6
BRANCH   1  18
ATOM     18  C   UNL     1       1.660  10.287  18.423  0.00  0.00    +0.000 C 
BRANCH  18  25
ATOM     19  C   UNL     1      -0.083  11.847  19.459  0.00  0.00    +0.000 A 
ATOM     20  C   UNL     1      -1.426  12.200  19.651  0.00  0.00    +0.000 A 
ATOM     21  C   UNL     1      -2.448  11.506  19.004  0.00  0.00    +0.000 A 
ATOM     22  C   UNL     1      -2.146  10.471  18.123  0.00  0.00    +0.000 A 
ATOM     23  C   UNL     1      -3.242   9.699  17.448  0.00  0.00    +0.000 C 
ATOM     24  C   UNL     1      -0.801  10.139  17.897  0.00  0.00    +0.000 A 
ATOM     25  C   UNL     1       0.247  10.812  18.560  0.00  0.00    +0.000 A 
BRANCH  19  27
ATOM     26  C   UNL     1       0.596  13.286  21.224  0.00  0.00    +0.000 C 
ATOM     27  O   UNL     1       0.957  12.440  20.130  0.00  0.00    +0.000 OA
ENDBRANCH  19  27
ENDBRANCH  18  25
ENDBRANCH   1  18
TORSDOF 4
ENDMDL
MODEL 2
REMARK VINA RESULT:      -8.6      0.992      1.089
REMARK  Name = 
REMARK  7 active torsions:
REMARK  status: ('A' for Active; 'I' for Inactive)
REMARK    1  A    between atoms: C_1  and  O_2
REMARK    2  A    between atoms: O_2  and  C_3
REMARK    3  A    between atoms: C_6  and  C_7
REMARK    4  A    between atoms: C_9  and  C_10
REMARK    5  A    between atoms: C_10  and  C_11
REMARK    6  A    between atoms: C_14  and  C_15
REMARK    7  A    between atoms: C_24  and  C_25
REMARK                            x       y       z     vdW  Elec       q    Type
REMARK                         _______ _______ _______ _____ _____    ______ ____
ROOT
ATOM      1  C   UNL     1       1.871   8.547  19.174  0.00  0.00    +0.000 A 
ATOM      2  N   UNL     1       2.405   9.048  18.048  0.00  0.00    +0.000 NA
ATOM      3  O   UNL     1       2.913   7.918  17.390  0.00  0.00    +0.000 OA
ATOM      4  C   UNL     1       2.592   6.838  18.164  0.00  0.00    +0.000 A 
ATOM      5  N   UNL     1       1.974   7.173  19.276  0.00  0.00    +0.000 NA
ENDROOT
BRANCH   4   6
ATOM      6  C   UNL     1       3.001   5.455  17.712  0.00  0.00    +0.000 C 
ATOM      7  C   UNL     1       1.752   4.554  17.672  0.00  0.00    +0.000 C 
ATOM      8  C   UNL     1       1.796   3.988  19.059  0.00  0.00    +0.000 A 
ATOM      9  C   UNL     1       0.769   3.431  19.795  0.00  0.00    +0.000 A 
ATOM     10  C   UNL     1       1.064   2.953  21.072  0.00  0.00    +0.000 A 
ATOM     11  C   UNL     1       2.377   2.991  21.571  0.00  0.00    +0.000 A 
ATOM     12  C   UNL     1       3.416   3.534  20.806  0.00  0.00    +0.000 A 
ATOM     13  C   UNL     1       3.100   4.056  19.568  0.00  0.00    +0.000 A 
ATOM     14  N   UNL     1       3.920   4.772  18.669  0.00  0.00    +0.000 N 
ATOM     15  C   UNL     1       5.300   4.702  18.648  0.00  0.00    +0.000 C 
ATOM     16  C   UNL     1       6.007   5.532  17.605  0.00  0.00    +0.000 C 
ATOM     17  O   UNL     1       5.965   3.959  19.366  0.00  0.00    +0.000 OA
ENDBRANCH   4   6
BRANCH   1  18
ATOM     18  C   UNL     1       0.921   9.303  20.037  0.00  0.00    +0.000 C 
BRANCH  18  25
ATOM     19  C   UNL     1       0.272  11.642  19.229  0.00  0.00    +0.000 A 
ATOM     20  C   UNL     1      -0.643  12.488  18.588  0.00  0.00    +0.000 A 
ATOM     21  C   UNL     1      -1.801  11.976  18.001  0.00  0.00    +0.000 A 
ATOM     22  C   UNL     1      -2.047  10.606  18.011  0.00  0.00    +0.000 A 
ATOM     23  C   UNL     1      -3.305  10.052  17.410  0.00  0.00    +0.000 C 
ATOM     24  C   UNL     1      -1.113   9.751  18.618  0.00  0.00    +0.000 A 
ATOM     25  C   UNL     1       0.052  10.250  19.238  0.00  0.00    +0.000 A 
BRANCH  19  27
ATOM     26  C   UNL     1       2.228  12.990  19.161  0.00  0.00    +0.000 C 
ATOM     27  O   UNL     1       1.384  12.097  19.892  0.00  0.00    +0.000 OA
ENDBRANCH  19  27
ENDBRANCH  18  25
ENDBRANCH   1  18
TORSDOF 4
ENDMDL
MODEL 3
REMARK VINA RESULT:      -8.6      1.531      3.343
REMARK  Name = 
REMARK  7 active torsions:
REMARK  status: ('A' for Active; 'I' for Inactive)
REMARK    1  A    between atoms: C_1  and  O_2
REMARK    2  A    between atoms: O_2  and  C_3
REMARK    3  A    between atoms: C_6  and  C_7
REMARK    4  A    between atoms: C_9  and  C_10
REMARK    5  A    between atoms: C_10  and  C_11
REMARK    6  A    between atoms: C_14  and  C_15
REMARK    7  A    between atoms: C_24  and  C_25
REMARK                            x       y       z     vdW  Elec       q    Type
REMARK                         _______ _______ _______ _____ _____    ______ ____
ROOT
ATOM      1  C   UNL     1       1.906   8.255  18.741  0.00  0.00    +0.000 A 
ATOM      2  N   UNL     1       1.637   8.191  20.055  0.00  0.00    +0.000 NA
ATOM      3  O   UNL     1       2.169   6.952  20.443  0.00  0.00    +0.000 OA
ATOM      4  C   UNL     1       2.749   6.410  19.330  0.00  0.00    +0.000 A 
ATOM      5  N   UNL     1       2.596   7.159  18.258  0.00  0.00    +0.000 NA
ENDROOT
BRANCH   4   6
ATOM      6  C   UNL     1       3.424   5.061  19.428  0.00  0.00    +0.000 C 
ATOM      7  C   UNL     1       4.945   5.273  19.552  0.00  0.00    +0.000 C 
ATOM      8  C   UNL     1       5.331   5.233  18.104  0.00  0.00    +0.000 A 
ATOM      9  C   UNL     1       6.463   5.743  17.500  0.00  0.00    +0.000 A 
ATOM     10  C   UNL     1       6.608   5.563  16.124  0.00  0.00    +0.000 A 
ATOM     11  C   UNL     1       5.655   4.840  15.387  0.00  0.00    +0.000 A 
ATOM     12  C   UNL     1       4.523   4.305  16.013  0.00  0.00    +0.000 A 
ATOM     13  C   UNL     1       4.364   4.539  17.365  0.00  0.00    +0.000 A 
ATOM     14  N   UNL     1       3.264   4.234  18.196  0.00  0.00    +0.000 N 
ATOM     15  C   UNL     1       2.332   3.250  17.925  0.00  0.00    +0.000 C 
ATOM     16  C   UNL     1       1.231   3.061  18.939  0.00  0.00    +0.000 C 
ATOM     17  O   UNL     1       2.392   2.488  16.964  0.00  0.00    +0.000 OA
ENDBRANCH   4   6
BRANCH   1  18
ATOM     18  C   UNL     1       1.839   9.517  17.952  0.00  0.00    +0.000 C 
BRANCH  18  25
ATOM     19  C   UNL     1       0.496  11.409  19.030  0.00  0.00    +0.000 A 
ATOM     20  C   UNL     1      -0.743  11.990  19.334  0.00  0.00    +0.000 A 
ATOM     21  C   UNL     1      -1.931  11.431  18.863  0.00  0.00    +0.000 A 
ATOM     22  C   UNL     1      -1.901  10.302  18.048  0.00  0.00    +0.000 A 
ATOM     23  C   UNL     1      -3.176   9.676  17.564  0.00  0.00    +0.000 C 
ATOM     24  C   UNL     1      -0.660   9.739  17.709  0.00  0.00    +0.000 A 
ATOM     25  C   UNL     1       0.551  10.275  18.194  0.00  0.00    +0.000 A 
BRANCH  19  27
ATOM     26  C   UNL     1       2.114  13.149  19.062  0.00  0.00    +0.000 C 
ATOM     27  O   UNL     1       1.688  11.868  19.531  0.00  0.00    +0.000 OA
ENDBRANCH  19  27
ENDBRANCH  18  25
ENDBRANCH   1  18
TORSDOF 4
ENDMDL
MODEL 4
REMARK VINA RESULT:      -8.6      0.981      2.177
REMARK  Name = 
REMARK  7 active torsions:
REMARK  status: ('A' for Active; 'I' for Inactive)
REMARK    1  A    between atoms: C_1  and  O_2
REMARK    2  A    between atoms: O_2  and  C_3
REMARK    3  A    between atoms: C_6  and  C_7
REMARK    4  A    between atoms: C_9  and  C_10
REMARK    5  A    between atoms: C_10  and  C_11
REMARK    6  A    between atoms: C_14  and  C_15
REMARK    7  A    between atoms: C_24  and  C_25
REMARK                            x       y       z     vdW  Elec       q    Type
REMARK                         _______ _______ _______ _____ _____    ______ ____
ROOT
ATOM      1  C   UNL     1       1.650   8.843  18.782  0.00  0.00    +0.000 A 
ATOM      2  N   UNL     1       1.836   8.358  20.020  0.00  0.00    +0.000 NA
ATOM      3  O   UNL     1       2.318   7.059  19.799  0.00  0.00    +0.000 OA
ATOM      4  C   UNL     1       2.419   6.905  18.445  0.00  0.00    +0.000 A 
ATOM      5  N   UNL     1       2.001   7.960  17.778  0.00  0.00    +0.000 NA
ENDROOT
BRANCH   4   6
ATOM      6  C   UNL     1       2.924   5.596  17.883  0.00  0.00    +0.000 C 
ATOM      7  C   UNL     1       1.740   4.618  17.756  0.00  0.00    +0.000 C 
ATOM      8  C   UNL     1       1.817   3.943  19.092  0.00  0.00    +0.000 A 
ATOM      9  C   UNL     1       0.828   3.258  19.770  0.00  0.00    +0.000 A 
ATOM     10  C   UNL     1       1.151   2.695  21.005  0.00  0.00    +0.000 A 
ATOM     11  C   UNL     1       2.456   2.781  21.518  0.00  0.00    +0.000 A 
ATOM     12  C   UNL     1       3.458   3.456  20.811  0.00  0.00    +0.000 A 
ATOM     13  C   UNL     1       3.111   4.057  19.617  0.00  0.00    +0.000 A 
ATOM     14  N   UNL     1       3.884   4.899  18.790  0.00  0.00    +0.000 N 
ATOM     15  C   UNL     1       5.265   4.926  18.776  0.00  0.00    +0.000 C 
ATOM     16  C   UNL     1       5.917   5.887  17.813  0.00  0.00    +0.000 C 
ATOM     17  O   UNL     1       5.977   4.173  19.437  0.00  0.00    +0.000 OA
ENDBRANCH   4   6
BRANCH   1  18
ATOM     18  C   UNL     1       1.468  10.292  18.488  0.00  0.00    +0.000 C 
BRANCH  18  25
ATOM     19  C   UNL     1      -1.042  10.783  18.541  0.00  0.00    +0.000 A 
ATOM     20  C   UNL     1      -2.133  11.443  19.124  0.00  0.00    +0.000 A 
ATOM     21  C   UNL     1      -1.969  12.219  20.271  0.00  0.00    +0.000 A 
ATOM     22  C   UNL     1      -0.720  12.319  20.879  0.00  0.00    +0.000 A 
ATOM     23  C   UNL     1      -0.530  13.178  22.095  0.00  0.00    +0.000 C 
ATOM     24  C   UNL     1       0.367  11.628  20.321  0.00  0.00    +0.000 A 
ATOM     25  C   UNL     1       0.228  10.857  19.147  0.00  0.00    +0.000 A 
BRANCH  19  27
ATOM     26  C   UNL     1      -2.431   9.982  16.786  0.00  0.00    +0.000 C 
ATOM     27  O   UNL     1      -1.129  10.073  17.369  0.00  0.00    +0.000 OA
ENDBRANCH  19  27
ENDBRANCH  18  25
ENDBRANCH   1  18
TORSDOF 4
ENDMDL
MODEL 5
REMARK VINA RESULT:      -8.5      1.090      1.185
REMARK  Name = 
REMARK  7 active torsions:
REMARK  status: ('A' for Active; 'I' for Inactive)
REMARK    1  A    between atoms: C_1  and  O_2
REMARK    2  A    between atoms: O_2  and  C_3
REMARK    3  A    between atoms: C_6  and  C_7
REMARK    4  A    between atoms: C_9  and  C_10
REMARK    5  A    between atoms: C_10  and  C_11
REMARK    6  A    between atoms: C_14  and  C_15
REMARK    7  A    between atoms: C_24  and  C_25
REMARK                            x       y       z     vdW  Elec       q    Type
REMARK                         _______ _______ _______ _____ _____    ______ ____
ROOT
ATOM      1  C   UNL     1       1.794   8.567  19.495  0.00  0.00    +0.000 A 
ATOM      2  N   UNL     1       2.199   9.140  18.349  0.00  0.00    +0.000 NA
ATOM      3  O   UNL     1       2.717   8.069  17.607  0.00  0.00    +0.000 OA
ATOM      4  C   UNL     1       2.530   6.944  18.362  0.00  0.00    +0.000 A 
ATOM      5  N   UNL     1       1.989   7.200  19.534  0.00  0.00    +0.000 NA
ENDROOT
BRANCH   4   6
ATOM      6  C   UNL     1       2.984   5.607  17.823  0.00  0.00    +0.000 C 
ATOM      7  C   UNL     1       1.763   4.672  17.719  0.00  0.00    +0.000 C 
ATOM      8  C   UNL     1       1.821   4.019  19.067  0.00  0.00    +0.000 A 
ATOM      9  C   UNL     1       0.810   3.384  19.761  0.00  0.00    +0.000 A 
ATOM     10  C   UNL     1       1.116   2.833  21.006  0.00  0.00    +0.000 A 
ATOM     11  C   UNL     1       2.426   2.880  21.512  0.00  0.00    +0.000 A 
ATOM     12  C   UNL     1       3.450   3.503  20.789  0.00  0.00    +0.000 A 
ATOM     13  C   UNL     1       3.120   4.094  19.585  0.00  0.00    +0.000 A 
ATOM     14  N   UNL     1       3.920   4.892  18.739  0.00  0.00    +0.000 N 
ATOM     15  C   UNL     1       5.302   4.866  18.720  0.00  0.00    +0.000 C 
ATOM     16  C   UNL     1       5.985   5.784  17.736  0.00  0.00    +0.000 C 
ATOM     17  O   UNL     1       5.987   4.099  19.391  0.00  0.00    +0.000 OA
ENDBRANCH   4   6
BRANCH   1  18
ATOM     18  C   UNL     1       0.876   9.231  20.463  0.00  0.00    +0.000 C 
BRANCH  18  25
ATOM     19  C   UNL     1      -0.616  11.308  20.403  0.00  0.00    +0.000 A 
ATOM     20  C   UNL     1      -1.631  12.049  19.782  0.00  0.00    +0.000 A 
ATOM     21  C   UNL     1      -2.188  11.628  18.574  0.00  0.00    +0.000 A 
ATOM     22  C   UNL     1      -1.714  10.480  17.945  0.00  0.00    +0.000 A 
ATOM     23  C   UNL     1      -2.330  10.004  16.662  0.00  0.00    +0.000 C 
ATOM     24  C   UNL     1      -0.671   9.756  18.543  0.00  0.00    +0.000 A 
ATOM     25  C   UNL     1      -0.110  10.151  19.776  0.00  0.00    +0.000 A 
BRANCH  19  27
ATOM     26  C   UNL     1      -0.984  11.543  22.739  0.00  0.00    +0.000 C 
ATOM     27  O   UNL     1      -0.089  11.630  21.628  0.00  0.00    +0.000 OA
ENDBRANCH  19  27
ENDBRANCH  18  25
ENDBRANCH   1  18
TORSDOF 4
ENDMDL
MODEL 6
REMARK VINA RESULT:      -8.3      1.390      2.521
REMARK  Name = 
REMARK  7 active torsions:
REMARK  status: ('A' for Active; 'I' for Inactive)
REMARK    1  A    between atoms: C_1  and  O_2
REMARK    2  A    between atoms: O_2  and  C_3
REMARK    3  A    between atoms: C_6  and  C_7
REMARK    4  A    between atoms: C_9  and  C_10
REMARK    5  A    between atoms: C_10  and  C_11
REMARK    6  A    between atoms: C_14  and  C_15
REMARK    7  A    between atoms: C_24  and  C_25
REMARK                            x       y       z     vdW  Elec       q    Type
REMARK                         _______ _______ _______ _____ _____    ______ ____
ROOT
ATOM      1  C   UNL     1       1.671   8.844  19.143  0.00  0.00    +0.000 A 
ATOM      2  N   UNL     1       1.921   9.292  17.901  0.00  0.00    +0.000 NA
ATOM      3  O   UNL     1       2.523   8.195  17.267  0.00  0.00    +0.000 OA
ATOM      4  C   UNL     1       2.535   7.176  18.178  0.00  0.00    +0.000 A 
ATOM      5  N   UNL     1       2.045   7.530  19.347  0.00  0.00    +0.000 NA
ENDROOT
BRANCH   4   6
ATOM      6  C   UNL     1       3.121   5.839  17.786  0.00  0.00    +0.000 C 
ATOM      7  C   UNL     1       1.974   4.825  17.606  0.00  0.00    +0.000 C 
ATOM      8  C   UNL     1       1.908   4.260  18.992  0.00  0.00    +0.000 A 
ATOM      9  C   UNL     1       0.858   3.607  19.607  0.00  0.00    +0.000 A 
ATOM     10  C   UNL     1       1.045   3.152  20.913  0.00  0.00    +0.000 A 
ATOM     11  C   UNL     1       2.281   3.311  21.561  0.00  0.00    +0.000 A 
ATOM     12  C   UNL     1       3.347   3.951  20.920  0.00  0.00    +0.000 A 
ATOM     13  C   UNL     1       3.131   4.447  19.650  0.00  0.00    +0.000 A 
ATOM     14  N   UNL     1       3.980   5.240  18.849  0.00  0.00    +0.000 N 
ATOM     15  C   UNL     1       5.354   5.299  18.990  0.00  0.00    +0.000 C 
ATOM     16  C   UNL     1       6.097   6.196  18.032  0.00  0.00    +0.000 C 
ATOM     17  O   UNL     1       5.996   4.618  19.786  0.00  0.00    +0.000 OA
ENDBRANCH   4   6
BRANCH   1  18
ATOM     18  C   UNL     1       0.742   9.525  20.087  0.00  0.00    +0.000 C 
BRANCH  18  25
ATOM     19  C   UNL     1      -0.742  11.171  18.810  0.00  0.00    +0.000 A 
ATOM     20  C   UNL     1      -0.956  12.457  18.295  0.00  0.00    +0.000 A 
ATOM     21  C   UNL     1      -0.043  13.485  18.536  0.00  0.00    +0.000 A 
ATOM     22  C   UNL     1       1.079  13.256  19.328  0.00  0.00    +0.000 A 
ATOM     23  C   UNL     1       2.081  14.348  19.565  0.00  0.00    +0.000 C 
ATOM     24  C   UNL     1       1.277  11.980  19.878  0.00  0.00    +0.000 A 
ATOM     25  C   UNL     1       0.379  10.920  19.627  0.00  0.00    +0.000 A 
BRANCH  19  27
ATOM     26  C   UNL     1      -1.903   9.910  17.164  0.00  0.00    +0.000 C 
ATOM     27  O   UNL     1      -1.562  10.105  18.538  0.00  0.00    +0.000 OA
ENDBRANCH  19  27
ENDBRANCH  18  25
ENDBRANCH   1  18
TORSDOF 4
ENDMDL
MODEL 7
REMARK VINA RESULT:      -8.2      2.158      4.098
REMARK  Name = 
REMARK  7 active torsions:
REMARK  status: ('A' for Active; 'I' for Inactive)
REMARK    1  A    between atoms: C_1  and  O_2
REMARK    2  A    between atoms: O_2  and  C_3
REMARK    3  A    between atoms: C_6  and  C_7
REMARK    4  A    between atoms: C_9  and  C_10
REMARK    5  A    between atoms: C_10  and  C_11
REMARK    6  A    between atoms: C_14  and  C_15
REMARK    7  A    between atoms: C_24  and  C_25
REMARK                            x       y       z     vdW  Elec       q    Type
REMARK                         _______ _______ _______ _____ _____    ______ ____
ROOT
ATOM      1  C   UNL     1       2.149   8.567  18.168  0.00  0.00    +0.000 A 
ATOM      2  N   UNL     1       3.069   8.478  17.193  0.00  0.00    +0.000 NA
ATOM      3  O   UNL     1       3.714   7.261  17.456  0.00  0.00    +0.000 OA
ATOM      4  C   UNL     1       3.087   6.712  18.539  0.00  0.00    +0.000 A 
ATOM      5  N   UNL     1       2.137   7.483  19.025  0.00  0.00    +0.000 NA
ENDROOT
BRANCH   4   6
ATOM      6  C   UNL     1       3.555   5.375  19.068  0.00  0.00    +0.000 C 
ATOM      7  C   UNL     1       5.073   5.444  19.322  0.00  0.00    +0.000 C 
ATOM      8  C   UNL     1       5.580   4.967  17.994  0.00  0.00    +0.000 A 
ATOM      9  C   UNL     1       6.822   5.163  17.425  0.00  0.00    +0.000 A 
ATOM     10  C   UNL     1       7.065   4.599  16.172  0.00  0.00    +0.000 A 
ATOM     11  C   UNL     1       6.091   3.813  15.535  0.00  0.00    +0.000 A 
ATOM     12  C   UNL     1       4.843   3.597  16.132  0.00  0.00    +0.000 A 
ATOM     13  C   UNL     1       4.596   4.208  17.345  0.00  0.00    +0.000 A 
ATOM     14  N   UNL     1       3.394   4.265  18.083  0.00  0.00    +0.000 N 
ATOM     15  C   UNL     1       2.362   3.354  17.963  0.00  0.00    +0.000 C 
ATOM     16  C   UNL     1       1.158   3.572  18.846  0.00  0.00    +0.000 C 
ATOM     17  O   UNL     1       2.402   2.356  17.248  0.00  0.00    +0.000 OA
ENDBRANCH   4   6
BRANCH   1  18
ATOM     18  C   UNL     1       0.998   9.513  18.125  0.00  0.00    +0.000 C 
BRANCH  18  25
ATOM     19  C   UNL     1       0.624  10.952  20.207  0.00  0.00    +0.000 A 
ATOM     20  C   UNL     1       0.775  12.176  20.873  0.00  0.00    +0.000 A 
ATOM     21  C   UNL     1       1.492  13.223  20.293  0.00  0.00    +0.000 A 
ATOM     22  C   UNL     1       2.102  13.053  19.052  0.00  0.00    +0.000 A 
ATOM     23  C   UNL     1       2.847  14.185  18.408  0.00  0.00    +0.000 C 
ATOM     24  C   UNL     1       1.986  11.816  18.399  0.00  0.00    +0.000 A 
ATOM     25  C   UNL     1       1.246  10.752  18.958  0.00  0.00    +0.000 A 
BRANCH  19  27
ATOM     26  C   UNL     1       0.408   9.210  21.810  0.00  0.00    +0.000 C 
ATOM     27  O   UNL     1      -0.136   9.918  20.693  0.00  0.00    +0.000 OA
ENDBRANCH  19  27
ENDBRANCH  18  25
ENDBRANCH   1  18
TORSDOF 4
ENDMDL
MODEL 8
REMARK VINA RESULT:      -8.1      2.099      3.881
REMARK  Name = 
REMARK  7 active torsions:
REMARK  status: ('A' for Active; 'I' for Inactive)
REMARK    1  A    between atoms: C_1  and  O_2
REMARK    2  A    between atoms: O_2  and  C_3
REMARK    3  A    between atoms: C_6  and  C_7
REMARK    4  A    between atoms: C_9  and  C_10
REMARK    5  A    between atoms: C_10  and  C_11
REMARK    6  A    between atoms: C_14  and  C_15
REMARK    7  A    between atoms: C_24  and  C_25
REMARK                            x       y       z     vdW  Elec       q    Type
REMARK                         _______ _______ _______ _____ _____    ______ ____
ROOT
ATOM      1  C   UNL     1       2.080   8.470  18.239  0.00  0.00    +0.000 A 
ATOM      2  N   UNL     1       3.117   8.517  17.387  0.00  0.00    +0.000 NA
ATOM      3  O   UNL     1       3.835   7.347  17.673  0.00  0.00    +0.000 OA
ATOM      4  C   UNL     1       3.132   6.683  18.640  0.00  0.00    +0.000 A 
ATOM      5  N   UNL     1       2.062   7.341  19.035  0.00  0.00    +0.000 NA
ENDROOT
BRANCH   4   6
ATOM      6  C   UNL     1       3.653   5.363  19.161  0.00  0.00    +0.000 C 
ATOM      7  C   UNL     1       5.179   5.469  19.349  0.00  0.00    +0.000 C 
ATOM      8  C   UNL     1       5.639   4.990  18.006  0.00  0.00    +0.000 A 
ATOM      9  C   UNL     1       6.851   5.208  17.382  0.00  0.00    +0.000 A 
ATOM     10  C   UNL     1       7.054   4.637  16.126  0.00  0.00    +0.000 A 
ATOM     11  C   UNL     1       6.072   3.822  15.538  0.00  0.00    +0.000 A 
ATOM     12  C   UNL     1       4.856   3.585  16.190  0.00  0.00    +0.000 A 
ATOM     13  C   UNL     1       4.647   4.203  17.407  0.00  0.00    +0.000 A 
ATOM     14  N   UNL     1       3.476   4.240  18.194  0.00  0.00    +0.000 N 
ATOM     15  C   UNL     1       2.461   3.305  18.127  0.00  0.00    +0.000 C 
ATOM     16  C   UNL     1       1.290   3.504  19.058  0.00  0.00    +0.000 C 
ATOM     17  O   UNL     1       2.493   2.300  17.421  0.00  0.00    +0.000 OA
ENDBRANCH   4   6
BRANCH   1  18
ATOM     18  C   UNL     1       0.861   9.314  18.093  0.00  0.00    +0.000 C 
BRANCH  18  25
ATOM     19  C   UNL     1       1.306  11.522  19.307  0.00  0.00    +0.000 A 
ATOM     20  C   UNL     1       1.219  12.301  20.469  0.00  0.00    +0.000 A 
ATOM     21  C   UNL     1       0.562  11.824  21.603  0.00  0.00    +0.000 A 
ATOM     22  C   UNL     1      -0.053  10.574  21.585  0.00  0.00    +0.000 A 
ATOM     23  C   UNL     1      -0.734  10.041  22.811  0.00  0.00    +0.000 C 
ATOM     24  C   UNL     1      -0.002   9.807  20.410  0.00  0.00    +0.000 A 
ATOM     25  C   UNL     1       0.678  10.261  19.260  0.00  0.00    +0.000 A 
BRANCH  19  27
ATOM     26  C   UNL     1       2.475  13.257  18.180  0.00  0.00    +0.000 C 
ATOM     27  O   UNL     1       2.008  11.906  18.192  0.00  0.00    +0.000 OA
ENDBRANCH  19  27
ENDBRANCH  18  25
ENDBRANCH   1  18
TORSDOF 4
ENDMDL
MODEL 9
REMARK VINA RESULT:      -8.1      1.724      3.983
REMARK  Name = 
REMARK  7 active torsions:
REMARK  status: ('A' for Active; 'I' for Inactive)
REMARK    1  A    between atoms: C_1  and  O_2
REMARK    2  A    between atoms: O_2  and  C_3
REMARK    3  A    between atoms: C_6  and  C_7
REMARK    4  A    between atoms: C_9  and  C_10
REMARK    5  A    between atoms: C_10  and  C_11
REMARK    6  A    between atoms: C_14  and  C_15
REMARK    7  A    between atoms: C_24  and  C_25
REMARK                            x       y       z     vdW  Elec       q    Type
REMARK                         _______ _______ _______ _____ _____    ______ ____
ROOT
ATOM      1  C   UNL     1       1.830   8.312  18.700  0.00  0.00    +0.000 A 
ATOM      2  N   UNL     1       1.575   8.272  20.019  0.00  0.00    +0.000 NA
ATOM      3  O   UNL     1       2.119   7.044  20.424  0.00  0.00    +0.000 OA
ATOM      4  C   UNL     1       2.690   6.484  19.316  0.00  0.00    +0.000 A 
ATOM      5  N   UNL     1       2.522   7.212  18.232  0.00  0.00    +0.000 NA
ENDROOT
BRANCH   4   6
ATOM      6  C   UNL     1       3.375   5.142  19.433  0.00  0.00    +0.000 C 
ATOM      7  C   UNL     1       4.896   5.366  19.539  0.00  0.00    +0.000 C 
ATOM      8  C   UNL     1       5.269   5.301  18.089  0.00  0.00    +0.000 A 
ATOM      9  C   UNL     1       6.392   5.806  17.464  0.00  0.00    +0.000 A 
ATOM     10  C   UNL     1       6.525   5.601  16.091  0.00  0.00    +0.000 A 
ATOM     11  C   UNL     1       5.570   4.859  15.376  0.00  0.00    +0.000 A 
ATOM     12  C   UNL     1       4.448   4.328  16.023  0.00  0.00    +0.000 A 
ATOM     13  C   UNL     1       4.299   4.587  17.372  0.00  0.00    +0.000 A 
ATOM     14  N   UNL     1       3.210   4.290  18.219  0.00  0.00    +0.000 N 
ATOM     15  C   UNL     1       2.282   3.296  17.976  0.00  0.00    +0.000 C 
ATOM     16  C   UNL     1       1.191   3.119  19.003  0.00  0.00    +0.000 C 
ATOM     17  O   UNL     1       2.337   2.516  17.029  0.00  0.00    +0.000 OA
ENDBRANCH   4   6
BRANCH   1  18
ATOM     18  C   UNL     1       1.747   9.558  17.888  0.00  0.00    +0.000 C 
BRANCH  18  25
ATOM     19  C   UNL     1      -0.536  10.660  18.233  0.00  0.00    +0.000 A 
ATOM     20  C   UNL     1      -1.303  11.721  18.734  0.00  0.00    +0.000 A 
ATOM     21  C   UNL     1      -0.710  12.746  19.472  0.00  0.00    +0.000 A 
ATOM     22  C   UNL     1       0.653  12.709  19.756  0.00  0.00    +0.000 A 
ATOM     23  C   UNL     1       1.303  13.823  20.523  0.00  0.00    +0.000 C 
ATOM     24  C   UNL     1       1.417  11.627  19.290  0.00  0.00    +0.000 A 
ATOM     25  C   UNL     1       0.842  10.594  18.521  0.00  0.00    +0.000 A 
BRANCH  19  27
ATOM     26  C   UNL     1      -2.248   9.995  16.724  0.00  0.00    +0.000 C 
ATOM     27  O   UNL     1      -1.051   9.670  17.434  0.00  0.00    +0.000 OA
ENDBRANCH  19  27
ENDBRANCH  18  25
ENDBRANCH   1  18
TORSDOF 4
ENDMDL
