MODEL 1
REMARK VINA RESULT:      -9.4      0.000      0.000
REMARK  Name = 
REMARK  8 active torsions:
REMARK  status: ('A' for Active; 'I' for Inactive)
REMARK    1  A    between atoms: C_1  and  C_2
REMARK    2  A    between atoms: C_2  and  C_3
REMARK    3  A    between atoms: C_7  and  C_8
REMARK    4  A    between atoms: N_14  and  C_15
REMARK    5  A    between atoms: C_19  and  C_20
REMARK    6  A    between atoms: C_20  and  N_21
REMARK    7  A    between atoms: C_22  and  C_23
REMARK    8  A    between atoms: N_25  and  C_26
REMARK                            x       y       z     vdW  Elec       q    Type
REMARK                         _______ _______ _______ _____ _____    ______ ____
ROOT
ATOM      1  C   UNL     1       0.239  11.425  19.232  0.00  0.00    +0.000 A 
ATOM      2  C   UNL     1       1.014  10.494  18.529  0.00  0.00    +0.000 A 
ATOM      3  C   UNL     1       1.350   9.319  19.173  0.00  0.00    +0.000 A 
ATOM      4  C   UNL     1       0.949   9.044  20.477  0.00  0.00    +0.000 A 
ATOM      5  C   UNL     1       0.198   9.955  21.211  0.00  0.00    +0.000 A 
ATOM      6  C   UNL     1      -0.154  11.154  20.564  0.00  0.00    +0.000 A 
ATOM      7  C   UNL     1       1.437   7.693  20.866  0.00  0.00    +0.000 C 
ATOM      8  N   UNL     1       2.154   7.228  19.688  0.00  0.00    +0.000 N 
ATOM      9  C   UNL     1       2.130   8.178  18.667  0.00  0.00    +0.000 C 
ATOM     10  O   UNL     1       2.602   8.156  17.544  0.00  0.00    +0.000 OA
ENDROOT
BRANCH   8  11
ATOM     11  C   UNL     1       2.770   5.950  19.667  0.00  0.00    +0.000 A 
ATOM     12  C   UNL     1       2.202   4.822  20.261  0.00  0.00    +0.000 A 
ATOM     13  C   UNL     1       2.854   3.583  20.205  0.00  0.00    +0.000 A 
ATOM     14  C   UNL     1       4.092   3.456  19.570  0.00  0.00    +0.000 A 
ATOM     15  C   UNL     1       4.694   4.574  18.984  0.00  0.00    +0.000 A 
ATOM     16  C   UNL     1       4.011   5.798  19.032  0.00  0.00    +0.000 A 
BRANCH  15  17
ATOM     17  C   UNL     1       6.073   4.530  18.356  0.00  0.00    +0.000 C 
BRANCH  17  18
ATOM     18  N   UNL     1       6.196   5.168  17.049  0.00  0.00    +0.000 N 
ATOM     19  C   UNL     1       7.133   6.128  16.833  0.00  0.00    +0.000 A 
ATOM     20  C   UNL     1       7.474   7.357  17.558  0.00  0.00    +0.000 C 
ATOM     21  N   UNL     1       7.515   5.632  15.704  0.00  0.00    +0.000 NA
ATOM     22  N   UNL     1       6.740   4.536  15.938  0.00  0.00    +0.000 N 
ATOM     23  C   UNL     1       5.722   4.247  14.919  0.00  0.00    +0.000 C 
ENDBRANCH  17  18
ENDBRANCH  15  17
ENDBRANCH   8  11
BRANCH   5  24
ATOM     24  C   UNL     1      -0.234   9.703  22.632  0.00  0.00    +0.000 C 
ATOM     25  F   UNL     1       0.804   9.510  23.495  0.00  0.00    +0.000 F 
ATOM     26  F   UNL     1      -0.954  10.736  23.147  0.00  0.00    +0.000 F 
ATOM     27  F   UNL     1      -1.019   8.599  22.749  0.00  0.00    +0.000 F 
ENDBRANCH   5  24
BRANCH   1  29
ATOM     28  C   UNL     1       0.868  13.823  18.897  0.00  0.00    +0.000 C 
ATOM     29  C   UNL     1      -0.145  12.732  18.587  0.00  0.00    +0.000 C 
ENDBRANCH   1  29
TORSDOF 5
ENDMDL
MODEL 2
REMARK VINA RESULT:      -9.1      0.868      1.644
REMARK  Name = 
REMARK  8 active torsions:
REMARK  status: ('A' for Active; 'I' for Inactive)
REMARK    1  A    between atoms: C_1  and  C_2
REMARK    2  A    between atoms: C_2  and  C_3
REMARK    3  A    between atoms: C_7  and  C_8
REMARK    4  A    between atoms: N_14  and  C_15
REMARK    5  A    between atoms: C_19  and  C_20
REMARK    6  A    between atoms: C_20  and  N_21
REMARK    7  A    between atoms: C_22  and  C_23
REMARK    8  A    between atoms: N_25  and  C_26
REMARK                            x       y       z     vdW  Elec       q    Type
REMARK                         _______ _______ _______ _____ _____    ______ ____
ROOT
ATOM      1  C   UNL     1       0.351  11.596  19.275  0.00  0.00    +0.000 A 
ATOM      2  C   UNL     1       1.097  10.729  18.466  0.00  0.00    +0.000 A 
ATOM      3  C   UNL     1       1.435   9.495  18.987  0.00  0.00    +0.000 A 
ATOM      4  C   UNL     1       1.064   9.100  20.269  0.00  0.00    +0.000 A 
ATOM      5  C   UNL     1       0.343   9.944  21.105  0.00  0.00    +0.000 A 
ATOM      6  C   UNL     1      -0.011  11.203  20.585  0.00  0.00    +0.000 A 
ATOM      7  C   UNL     1       1.545   7.714  20.514  0.00  0.00    +0.000 C 
ATOM      8  N   UNL     1       2.226   7.356  19.279  0.00  0.00    +0.000 N 
ATOM      9  C   UNL     1       2.188   8.399  18.354  0.00  0.00    +0.000 C 
ATOM     10  O   UNL     1       2.630   8.480  17.222  0.00  0.00    +0.000 OA
ENDROOT
BRANCH   8  11
ATOM     11  C   UNL     1       2.825   6.081  19.120  0.00  0.00    +0.000 A 
ATOM     12  C   UNL     1       2.965   5.169  20.168  0.00  0.00    +0.000 A 
ATOM     13  C   UNL     1       3.561   3.921  19.951  0.00  0.00    +0.000 A 
ATOM     14  C   UNL     1       4.045   3.570  18.688  0.00  0.00    +0.000 A 
ATOM     15  C   UNL     1       3.938   4.471  17.625  0.00  0.00    +0.000 A 
ATOM     16  C   UNL     1       3.315   5.705  17.860  0.00  0.00    +0.000 A 
BRANCH  15  17
ATOM     17  C   UNL     1       4.518   4.195  16.252  0.00  0.00    +0.000 C 
BRANCH  17  18
ATOM     18  N   UNL     1       5.973   4.230  16.159  0.00  0.00    +0.000 N 
ATOM     19  C   UNL     1       6.585   4.578  14.997  0.00  0.00    +0.000 A 
ATOM     20  C   UNL     1       6.426   4.108  13.617  0.00  0.00    +0.000 C 
ATOM     21  N   UNL     1       7.431   5.368  15.570  0.00  0.00    +0.000 NA
ATOM     22  N   UNL     1       6.753   5.221  16.743  0.00  0.00    +0.000 N 
ATOM     23  C   UNL     1       7.539   4.706  17.872  0.00  0.00    +0.000 C 
ENDBRANCH  17  18
ENDBRANCH  15  17
ENDBRANCH   8  11
BRANCH   5  24
ATOM     24  C   UNL     1      -0.056   9.562  22.508  0.00  0.00    +0.000 C 
ATOM     25  F   UNL     1      -0.873   8.473  22.569  0.00  0.00    +0.000 F 
ATOM     26  F   UNL     1       1.017   9.264  23.289  0.00  0.00    +0.000 F 
ATOM     27  F   UNL     1      -0.724  10.559  23.148  0.00  0.00    +0.000 F 
ENDBRANCH   5  24
BRANCH   1  29
ATOM     28  C   UNL     1       1.166  13.896  18.724  0.00  0.00    +0.000 C 
ATOM     29  C   UNL     1      -0.033  12.963  18.768  0.00  0.00    +0.000 C 
ENDBRANCH   1  29
TORSDOF 5
ENDMDL
MODEL 3
REMARK VINA RESULT:      -8.8      0.787      1.596
REMARK  Name = 
REMARK  8 active torsions:
REMARK  status: ('A' for Active; 'I' for Inactive)
REMARK    1  A    between atoms: C_1  and  C_2
REMARK    2  A    between atoms: C_2  and  C_3
REMARK    3  A    between atoms: C_7  and  C_8
REMARK    4  A    between atoms: N_14  and  C_15
REMARK    5  A    between atoms: C_19  and  C_20
REMARK    6  A    between atoms: C_20  and  N_21
REMARK    7  A    between atoms: C_22  and  C_23
REMARK    8  A    between atoms: N_25  and  C_26
REMARK                            x       y       z     vdW  Elec       q    Type
REMARK                         _______ _______ _______ _____ _____    ______ ____
ROOT
ATOM      1  C   UNL     1       0.068  11.747  19.473  0.00  0.00    +0.000 A 
ATOM      2  C   UNL     1       0.814  10.906  18.637  0.00  0.00    +0.000 A 
ATOM      3  C   UNL     1       1.192   9.675  19.135  0.00  0.00    +0.000 A 
ATOM      4  C   UNL     1       0.860   9.257  20.421  0.00  0.00    +0.000 A 
ATOM      5  C   UNL     1       0.140  10.075  21.283  0.00  0.00    +0.000 A 
ATOM      6  C   UNL     1      -0.254  11.331  20.786  0.00  0.00    +0.000 A 
ATOM      7  C   UNL     1       1.379   7.880  20.639  0.00  0.00    +0.000 C 
ATOM      8  N   UNL     1       2.039   7.552  19.384  0.00  0.00    +0.000 N 
ATOM      9  C   UNL     1       1.955   8.604  18.473  0.00  0.00    +0.000 C 
ATOM     10  O   UNL     1       2.369   8.707  17.331  0.00  0.00    +0.000 OA
ENDROOT
BRANCH   8  11
ATOM     11  C   UNL     1       2.663   6.292  19.196  0.00  0.00    +0.000 A 
ATOM     12  C   UNL     1       1.951   5.094  19.116  0.00  0.00    +0.000 A 
ATOM     13  C   UNL     1       2.620   3.879  18.924  0.00  0.00    +0.000 A 
ATOM     14  C   UNL     1       4.014   3.839  18.830  0.00  0.00    +0.000 A 
ATOM     15  C   UNL     1       4.754   5.021  18.929  0.00  0.00    +0.000 A 
ATOM     16  C   UNL     1       4.061   6.228  19.096  0.00  0.00    +0.000 A 
BRANCH  15  17
ATOM     17  C   UNL     1       6.270   5.043  18.924  0.00  0.00    +0.000 C 
BRANCH  17  18
ATOM     18  N   UNL     1       6.891   5.690  17.773  0.00  0.00    +0.000 N 
ATOM     19  C   UNL     1       6.539   5.339  16.508  0.00  0.00    +0.000 A 
ATOM     20  C   UNL     1       6.446   4.040  15.833  0.00  0.00    +0.000 C 
ATOM     21  N   UNL     1       6.446   6.559  16.096  0.00  0.00    +0.000 NA
ATOM     22  N   UNL     1       6.602   6.990  17.378  0.00  0.00    +0.000 N 
ATOM     23  C   UNL     1       7.734   7.897  17.611  0.00  0.00    +0.000 C 
ENDBRANCH  17  18
ENDBRANCH  15  17
ENDBRANCH   8  11
BRANCH   5  24
ATOM     24  C   UNL     1      -0.217   9.669  22.690  0.00  0.00    +0.000 C 
ATOM     25  F   UNL     1      -0.962   8.529  22.760  0.00  0.00    +0.000 F 
ATOM     26  F   UNL     1       0.882   9.440  23.459  0.00  0.00    +0.000 F 
ATOM     27  F   UNL     1      -0.939  10.621  23.339  0.00  0.00    +0.000 F 
ENDBRANCH   5  24
BRANCH   1  29
ATOM     28  C   UNL     1       0.838  14.023  18.776  0.00  0.00    +0.000 C 
ATOM     29  C   UNL     1      -0.359  13.110  18.990  0.00  0.00    +0.000 C 
ENDBRANCH   1  29
TORSDOF 5
ENDMDL
MODEL 4
REMARK VINA RESULT:      -8.6      2.500      3.617
REMARK  Name = 
REMARK  8 active torsions:
REMARK  status: ('A' for Active; 'I' for Inactive)
REMARK    1  A    between atoms: C_1  and  C_2
REMARK    2  A    between atoms: C_2  and  C_3
REMARK    3  A    between atoms: C_7  and  C_8
REMARK    4  A    between atoms: N_14  and  C_15
REMARK    5  A    between atoms: C_19  and  C_20
REMARK    6  A    between atoms: C_20  and  N_21
REMARK    7  A    between atoms: C_22  and  C_23
REMARK    8  A    between atoms: N_25  and  C_26
REMARK                            x       y       z     vdW  Elec       q    Type
REMARK                         _______ _______ _______ _____ _____    ______ ____
ROOT
ATOM      1  C   UNL     1      -0.156  12.427  20.068  0.00  0.00    +0.000 A 
ATOM      2  C   UNL     1       0.576  11.834  19.032  0.00  0.00    +0.000 A 
ATOM      3  C   UNL     1       1.005  10.533  19.210  0.00  0.00    +0.000 A 
ATOM      4  C   UNL     1       0.735   9.812  20.369  0.00  0.00    +0.000 A 
ATOM      5  C   UNL     1       0.031  10.377  21.426  0.00  0.00    +0.000 A 
ATOM      6  C   UNL     1      -0.414  11.701  21.255  0.00  0.00    +0.000 A 
ATOM      7  C   UNL     1       1.296   8.440  20.235  0.00  0.00    +0.000 C 
ATOM      8  N   UNL     1       1.913   8.441  18.918  0.00  0.00    +0.000 N 
ATOM      9  C   UNL     1       1.766   9.676  18.286  0.00  0.00    +0.000 C 
ATOM     10  O   UNL     1       2.130  10.061  17.189  0.00  0.00    +0.000 OA
ENDROOT
BRANCH   8  11
ATOM     11  C   UNL     1       2.560   7.284  18.415  0.00  0.00    +0.000 A 
ATOM     12  C   UNL     1       3.786   7.326  17.748  0.00  0.00    +0.000 A 
ATOM     13  C   UNL     1       4.381   6.150  17.276  0.00  0.00    +0.000 A 
ATOM     14  C   UNL     1       3.752   4.914  17.446  0.00  0.00    +0.000 A 
ATOM     15  C   UNL     1       2.514   4.844  18.092  0.00  0.00    +0.000 A 
ATOM     16  C   UNL     1       1.949   6.031  18.577  0.00  0.00    +0.000 A 
BRANCH  15  17
ATOM     17  C   UNL     1       1.734   3.551  18.234  0.00  0.00    +0.000 C 
BRANCH  17  18
ATOM     18  N   UNL     1       2.136   2.685  19.337  0.00  0.00    +0.000 N 
ATOM     19  C   UNL     1       3.322   2.022  19.300  0.00  0.00    +0.000 A 
ATOM     20  C   UNL     1       3.939   1.159  18.288  0.00  0.00    +0.000 C 
ATOM     21  N   UNL     1       3.635   2.324  20.516  0.00  0.00    +0.000 NA
ATOM     22  N   UNL     1       2.565   3.165  20.569  0.00  0.00    +0.000 N 
ATOM     23  C   UNL     1       1.591   2.890  21.633  0.00  0.00    +0.000 C 
ENDBRANCH  17  18
ENDBRANCH  15  17
ENDBRANCH   8  11
BRANCH   5  24
ATOM     24  C   UNL     1      -0.259   9.638  22.706  0.00  0.00    +0.000 C 
ATOM     25  F   UNL     1      -1.067  10.321  23.565  0.00  0.00    +0.000 F 
ATOM     26  F   UNL     1      -0.876   8.445  22.489  0.00  0.00    +0.000 F 
ATOM     27  F   UNL     1       0.871   9.356  23.410  0.00  0.00    +0.000 F 
ENDBRANCH   5  24
BRANCH   1  29
ATOM     28  C   UNL     1       0.108  14.589  18.838  0.00  0.00    +0.000 C 
ATOM     29  C   UNL     1      -0.636  13.850  19.938  0.00  0.00    +0.000 C 
ENDBRANCH   1  29
TORSDOF 5
ENDMDL
MODEL 5
REMARK VINA RESULT:      -8.6      3.557      8.107
REMARK  Name = 
REMARK  8 active torsions:
REMARK  status: ('A' for Active; 'I' for Inactive)
REMARK    1  A    between atoms: C_1  and  C_2
REMARK    2  A    between atoms: C_2  and  C_3
REMARK    3  A    between atoms: C_7  and  C_8
REMARK    4  A    between atoms: N_14  and  C_15
REMARK    5  A    between atoms: C_19  and  C_20
REMARK    6  A    between atoms: C_20  and  N_21
REMARK    7  A    between atoms: C_22  and  C_23
REMARK    8  A    between atoms: N_25  and  C_26
REMARK                            x       y       z     vdW  Elec       q    Type
REMARK                         _______ _______ _______ _____ _____    ______ ____
ROOT
ATOM      1  C   UNL     1       4.312   5.235  17.560  0.00  0.00    +0.000 A 
ATOM      2  C   UNL     1       3.906   6.563  17.375  0.00  0.00    +0.000 A 
ATOM      3  C   UNL     1       2.976   7.079  18.255  0.00  0.00    +0.000 A 
ATOM      4  C   UNL     1       2.440   6.329  19.298  0.00  0.00    +0.000 A 
ATOM      5  C   UNL     1       2.804   5.003  19.496  0.00  0.00    +0.000 A 
ATOM      6  C   UNL     1       3.754   4.466  18.608  0.00  0.00    +0.000 A 
ATOM      7  C   UNL     1       1.501   7.178  20.081  0.00  0.00    +0.000 C 
ATOM      8  N   UNL     1       1.537   8.462  19.398  0.00  0.00    +0.000 N 
ATOM      9  C   UNL     1       2.397   8.432  18.301  0.00  0.00    +0.000 C 
ATOM     10  O   UNL     1       2.698   9.298  17.498  0.00  0.00    +0.000 OA
ENDROOT
BRANCH   8  11
ATOM     11  C   UNL     1       0.763   9.556  19.861  0.00  0.00    +0.000 A 
ATOM     12  C   UNL     1       0.713   9.939  21.203  0.00  0.00    +0.000 A 
ATOM     13  C   UNL     1      -0.066  11.032  21.603  0.00  0.00    +0.000 A 
ATOM     14  C   UNL     1      -0.823  11.748  20.671  0.00  0.00    +0.000 A 
ATOM     15  C   UNL     1      -0.808  11.374  19.325  0.00  0.00    +0.000 A 
ATOM     16  C   UNL     1      -0.002  10.292  18.944  0.00  0.00    +0.000 A 
BRANCH  15  17
ATOM     17  C   UNL     1      -1.671  12.048  18.275  0.00  0.00    +0.000 C 
BRANCH  17  18
ATOM     18  N   UNL     1      -2.764  11.243  17.741  0.00  0.00    +0.000 N 
ATOM     19  C   UNL     1      -4.057  11.620  17.926  0.00  0.00    +0.000 A 
ATOM     20  C   UNL     1      -4.812  12.001  19.123  0.00  0.00    +0.000 C 
ATOM     21  N   UNL     1      -4.395  11.396  16.700  0.00  0.00    +0.000 NA
ATOM     22  N   UNL     1      -3.085  11.190  16.389  0.00  0.00    +0.000 N 
ATOM     23  C   UNL     1      -2.769   9.881  15.802  0.00  0.00    +0.000 C 
ENDBRANCH  17  18
ENDBRANCH  15  17
ENDBRANCH   8  11
BRANCH   5  24
ATOM     24  C   UNL     1       2.228   4.151  20.598  0.00  0.00    +0.000 C 
ATOM     25  F   UNL     1       0.872   4.022  20.540  0.00  0.00    +0.000 F 
ATOM     26  F   UNL     1       2.720   2.883  20.586  0.00  0.00    +0.000 F 
ATOM     27  F   UNL     1       2.497   4.649  21.835  0.00  0.00    +0.000 F 
ENDBRANCH   5  24
BRANCH   1  29
ATOM     28  C   UNL     1       5.427   5.402  15.327  0.00  0.00    +0.000 C 
ATOM     29  C   UNL     1       5.313   4.611  16.620  0.00  0.00    +0.000 C 
ENDBRANCH   1  29
TORSDOF 5
ENDMDL
MODEL 6
REMARK VINA RESULT:      -8.5      3.644      8.143
REMARK  Name = 
REMARK  8 active torsions:
REMARK  status: ('A' for Active; 'I' for Inactive)
REMARK    1  A    between atoms: C_1  and  C_2
REMARK    2  A    between atoms: C_2  and  C_3
REMARK    3  A    between atoms: C_7  and  C_8
REMARK    4  A    between atoms: N_14  and  C_15
REMARK    5  A    between atoms: C_19  and  C_20
REMARK    6  A    between atoms: C_20  and  N_21
REMARK    7  A    between atoms: C_22  and  C_23
REMARK    8  A    between atoms: N_25  and  C_26
REMARK                            x       y       z     vdW  Elec       q    Type
REMARK                         _______ _______ _______ _____ _____    ______ ____
ROOT
ATOM      1  C   UNL     1       4.908   4.194  16.572  0.00  0.00    +0.000 A 
ATOM      2  C   UNL     1       4.625   5.556  16.739  0.00  0.00    +0.000 A 
ATOM      3  C   UNL     1       3.709   5.909  17.710  0.00  0.00    +0.000 A 
ATOM      4  C   UNL     1       3.069   4.966  18.509  0.00  0.00    +0.000 A 
ATOM      5  C   UNL     1       3.310   3.605  18.355  0.00  0.00    +0.000 A 
ATOM      6  C   UNL     1       4.245   3.234  17.371  0.00  0.00    +0.000 A 
ATOM      7  C   UNL     1       2.177   5.663  19.474  0.00  0.00    +0.000 C 
ATOM      8  N   UNL     1       2.351   7.072  19.155  0.00  0.00    +0.000 N 
ATOM      9  C   UNL     1       3.247   7.251  18.102  0.00  0.00    +0.000 C 
ATOM     10  O   UNL     1       3.654   8.265  17.562  0.00  0.00    +0.000 OA
ENDROOT
BRANCH   8  11
ATOM     11  C   UNL     1       1.656   8.074  19.879  0.00  0.00    +0.000 A 
ATOM     12  C   UNL     1       1.496   8.039  21.266  0.00  0.00    +0.000 A 
ATOM     13  C   UNL     1       0.804   9.060  21.929  0.00  0.00    +0.000 A 
ATOM     14  C   UNL     1       0.243  10.123  21.215  0.00  0.00    +0.000 A 
ATOM     15  C   UNL     1       0.369  10.173  19.824  0.00  0.00    +0.000 A 
ATOM     16  C   UNL     1       1.087   9.153  19.184  0.00  0.00    +0.000 A 
BRANCH  15  17
ATOM     17  C   UNL     1      -0.287  11.246  18.978  0.00  0.00    +0.000 C 
BRANCH  17  18
ATOM     18  N   UNL     1      -1.676  10.999  18.604  0.00  0.00    +0.000 N 
ATOM     19  C   UNL     1      -2.651  11.884  18.938  0.00  0.00    +0.000 A 
ATOM     20  C   UNL     1      -3.019  12.515  20.209  0.00  0.00    +0.000 C 
ATOM     21  N   UNL     1      -3.201  11.861  17.770  0.00  0.00    +0.000 NA
ATOM     22  N   UNL     1      -2.153  11.126  17.305  0.00  0.00    +0.000 N 
ATOM     23  C   UNL     1      -2.498   9.825  16.718  0.00  0.00    +0.000 C 
ENDBRANCH  17  18
ENDBRANCH  15  17
ENDBRANCH   8  11
BRANCH   5  24
ATOM     24  C   UNL     1       2.619   2.553  19.183  0.00  0.00    +0.000 C 
ATOM     25  F   UNL     1       2.882   1.277  18.781  0.00  0.00    +0.000 F 
ATOM     26  F   UNL     1       2.976   2.607  20.495  0.00  0.00    +0.000 F 
ATOM     27  F   UNL     1       1.264   2.676  19.155  0.00  0.00    +0.000 F 
ENDBRANCH   5  24
BRANCH   1  29
ATOM     28  C   UNL     1       6.788   4.890  15.076  0.00  0.00    +0.000 C 
ATOM     29  C   UNL     1       5.887   3.747  15.517  0.00  0.00    +0.000 C 
ENDBRANCH   1  29
TORSDOF 5
ENDMDL
MODEL 7
REMARK VINA RESULT:      -8.4      1.440      1.875
REMARK  Name = 
REMARK  8 active torsions:
REMARK  status: ('A' for Active; 'I' for Inactive)
REMARK    1  A    between atoms: C_1  and  C_2
REMARK    2  A    between atoms: C_2  and  C_3
REMARK    3  A    between atoms: C_7  and  C_8
REMARK    4  A    between atoms: N_14  and  C_15
REMARK    5  A    between atoms: C_19  and  C_20
REMARK    6  A    between atoms: C_20  and  N_21
REMARK    7  A    between atoms: C_22  and  C_23
REMARK    8  A    between atoms: N_25  and  C_26
REMARK                            x       y       z     vdW  Elec       q    Type
REMARK                         _______ _______ _______ _____ _____    ______ ____
ROOT
ATOM      1  C   UNL     1      -0.248  12.356  20.059  0.00  0.00    +0.000 A 
ATOM      2  C   UNL     1       0.513  11.760  19.044  0.00  0.00    +0.000 A 
ATOM      3  C   UNL     1       0.972  10.475  19.253  0.00  0.00    +0.000 A 
ATOM      4  C   UNL     1       0.707   9.771  20.424  0.00  0.00    +0.000 A 
ATOM      5  C   UNL     1      -0.025  10.339  21.460  0.00  0.00    +0.000 A 
ATOM      6  C   UNL     1      -0.502  11.647  21.257  0.00  0.00    +0.000 A 
ATOM      7  C   UNL     1       1.304   8.411  20.325  0.00  0.00    +0.000 C 
ATOM      8  N   UNL     1       1.937   8.402  19.014  0.00  0.00    +0.000 N 
ATOM      9  C   UNL     1       1.766   9.620  18.356  0.00  0.00    +0.000 C 
ATOM     10  O   UNL     1       2.134   9.992  17.256  0.00  0.00    +0.000 OA
ENDROOT
BRANCH   8  11
ATOM     11  C   UNL     1       2.619   7.252  18.543  0.00  0.00    +0.000 A 
ATOM     12  C   UNL     1       2.253   5.951  18.894  0.00  0.00    +0.000 A 
ATOM     13  C   UNL     1       2.961   4.852  18.393  0.00  0.00    +0.000 A 
ATOM     14  C   UNL     1       4.060   5.035  17.549  0.00  0.00    +0.000 A 
ATOM     15  C   UNL     1       4.462   6.326  17.198  0.00  0.00    +0.000 A 
ATOM     16  C   UNL     1       3.723   7.411  17.691  0.00  0.00    +0.000 A 
BRANCH  15  17
ATOM     17  C   UNL     1       5.695   6.603  16.359  0.00  0.00    +0.000 C 
BRANCH  17  18
ATOM     18  N   UNL     1       6.976   6.360  17.014  0.00  0.00    +0.000 N 
ATOM     19  C   UNL     1       7.538   7.309  17.809  0.00  0.00    +0.000 A 
ATOM     20  C   UNL     1       7.821   8.732  17.598  0.00  0.00    +0.000 C 
ATOM     21  N   UNL     1       7.841   6.476  18.748  0.00  0.00    +0.000 NA
ATOM     22  N   UNL     1       7.129   5.510  18.103  0.00  0.00    +0.000 N 
ATOM     23  C   UNL     1       7.877   4.297  17.749  0.00  0.00    +0.000 C 
ENDBRANCH  17  18
ENDBRANCH  15  17
ENDBRANCH   8  11
BRANCH   5  24
ATOM     24  C   UNL     1      -0.311   9.617  22.752  0.00  0.00    +0.000 C 
ATOM     25  F   UNL     1       0.798   9.391  23.512  0.00  0.00    +0.000 F 
ATOM     26  F   UNL     1      -1.172  10.304  23.550  0.00  0.00    +0.000 F 
ATOM     27  F   UNL     1      -0.875   8.396  22.551  0.00  0.00    +0.000 F 
ENDBRANCH   5  24
BRANCH   1  29
ATOM     28  C   UNL     1      -1.401  14.273  21.177  0.00  0.00    +0.000 C 
ATOM     29  C   UNL     1      -0.762  13.763  19.895  0.00  0.00    +0.000 C 
ENDBRANCH   1  29
TORSDOF 5
ENDMDL
MODEL 8
REMARK VINA RESULT:      -8.2      3.380      8.084
REMARK  Name = 
REMARK  8 active torsions:
REMARK  status: ('A' for Active; 'I' for Inactive)
REMARK    1  A    between atoms: C_1  and  C_2
REMARK    2  A    between atoms: C_2  and  C_3
REMARK    3  A    between atoms: C_7  and  C_8
REMARK    4  A    between atoms: N_14  and  C_15
REMARK    5  A    between atoms: C_19  and  C_20
REMARK    6  A    between atoms: C_20  and  N_21
REMARK    7  A    between atoms: C_22  and  C_23
REMARK    8  A    between atoms: N_25  and  C_26
REMARK                            x       y       z     vdW  Elec       q    Type
REMARK                         _______ _______ _______ _____ _____    ______ ____
ROOT
ATOM      1  C   UNL     1       4.293   4.842  17.649  0.00  0.00    +0.000 A 
ATOM      2  C   UNL     1       3.911   6.166  17.393  0.00  0.00    +0.000 A 
ATOM      3  C   UNL     1       3.021   6.759  18.266  0.00  0.00    +0.000 A 
ATOM      4  C   UNL     1       2.502   6.088  19.370  0.00  0.00    +0.000 A 
ATOM      5  C   UNL     1       2.842   4.768  19.641  0.00  0.00    +0.000 A 
ATOM      6  C   UNL     1       3.752   4.154  18.760  0.00  0.00    +0.000 A 
ATOM      7  C   UNL     1       1.608   7.007  20.126  0.00  0.00    +0.000 C 
ATOM      8  N   UNL     1       1.651   8.244  19.363  0.00  0.00    +0.000 N 
ATOM      9  C   UNL     1       2.474   8.125  18.243  0.00  0.00    +0.000 C 
ATOM     10  O   UNL     1       2.769   8.932  17.378  0.00  0.00    +0.000 OA
ENDROOT
BRANCH   8  11
ATOM     11  C   UNL     1       0.917   9.384  19.779  0.00  0.00    +0.000 A 
ATOM     12  C   UNL     1       0.737   9.725  21.121  0.00  0.00    +0.000 A 
ATOM     13  C   UNL     1       0.005  10.866  21.474  0.00  0.00    +0.000 A 
ATOM     14  C   UNL     1      -0.575  11.674  20.492  0.00  0.00    +0.000 A 
ATOM     15  C   UNL     1      -0.429  11.344  19.141  0.00  0.00    +0.000 A 
ATOM     16  C   UNL     1       0.328  10.212  18.811  0.00  0.00    +0.000 A 
BRANCH  15  17
ATOM     17  C   UNL     1      -1.103  12.123  18.028  0.00  0.00    +0.000 C 
BRANCH  17  18
ATOM     18  N   UNL     1      -2.529  11.868  17.849  0.00  0.00    +0.000 N 
ATOM     19  C   UNL     1      -2.956  10.857  17.047  0.00  0.00    +0.000 A 
ATOM     20  C   UNL     1      -2.631  10.488  15.666  0.00  0.00    +0.000 C 
ATOM     21  N   UNL     1      -3.832  10.431  17.894  0.00  0.00    +0.000 NA
ATOM     22  N   UNL     1      -3.331  11.290  18.825  0.00  0.00    +0.000 N 
ATOM     23  C   UNL     1      -4.290  12.251  19.386  0.00  0.00    +0.000 C 
ENDBRANCH  17  18
ENDBRANCH  15  17
ENDBRANCH   8  11
BRANCH   5  24
ATOM     24  C   UNL     1       2.282   4.002  20.811  0.00  0.00    +0.000 C 
ATOM     25  F   UNL     1       2.567   4.562  22.021  0.00  0.00    +0.000 F 
ATOM     26  F   UNL     1       0.927   3.897  20.763  0.00  0.00    +0.000 F 
ATOM     27  F   UNL     1       2.758   2.729  20.874  0.00  0.00    +0.000 F 
ENDBRANCH   5  24
BRANCH   1  29
ATOM     28  C   UNL     1       6.660   4.684  16.857  0.00  0.00    +0.000 C 
ATOM     29  C   UNL     1       5.248   4.137  16.721  0.00  0.00    +0.000 C 
ENDBRANCH   1  29
TORSDOF 5
ENDMDL
MODEL 9
REMARK VINA RESULT:      -8.2      3.441      7.825
REMARK  Name = 
REMARK  8 active torsions:
REMARK  status: ('A' for Active; 'I' for Inactive)
REMARK    1  A    between atoms: C_1  and  C_2
REMARK    2  A    between atoms: C_2  and  C_3
REMARK    3  A    between atoms: C_7  and  C_8
REMARK    4  A    between atoms: N_14  and  C_15
REMARK    5  A    between atoms: C_19  and  C_20
REMARK    6  A    between atoms: C_20  and  N_21
REMARK    7  A    between atoms: C_22  and  C_23
REMARK    8  A    between atoms: N_25  and  C_26
REMARK                            x       y       z     vdW  Elec       q    Type
REMARK                         _______ _______ _______ _____ _____    ______ ____
ROOT
ATOM      1  C   UNL     1       3.897   4.844  17.590  0.00  0.00    +0.000 A 
ATOM      2  C   UNL     1       3.538   6.198  17.641  0.00  0.00    +0.000 A 
ATOM      3  C   UNL     1       2.744   6.614  18.691  0.00  0.00    +0.000 A 
ATOM      4  C   UNL     1       2.297   5.741  19.679  0.00  0.00    +0.000 A 
ATOM      5  C   UNL     1       2.617   4.389  19.647  0.00  0.00    +0.000 A 
ATOM      6  C   UNL     1       3.429   3.953  18.584  0.00  0.00    +0.000 A 
ATOM      7  C   UNL     1       1.500   6.500  20.680  0.00  0.00    +0.000 C 
ATOM      8  N   UNL     1       1.519   7.866  20.180  0.00  0.00    +0.000 N 
ATOM      9  C   UNL     1       2.241   7.965  18.991  0.00  0.00    +0.000 C 
ATOM     10  O   UNL     1       2.489   8.926  18.284  0.00  0.00    +0.000 OA
ENDROOT
BRANCH   8  11
ATOM     11  C   UNL     1       0.858   8.908  20.880  0.00  0.00    +0.000 A 
ATOM     12  C   UNL     1       0.314   8.742  22.155  0.00  0.00    +0.000 A 
ATOM     13  C   UNL     1      -0.323   9.809  22.802  0.00  0.00    +0.000 A 
ATOM     14  C   UNL     1      -0.444  11.053  22.176  0.00  0.00    +0.000 A 
ATOM     15  C   UNL     1       0.073  11.241  20.891  0.00  0.00    +0.000 A 
ATOM     16  C   UNL     1       0.728  10.166  20.274  0.00  0.00    +0.000 A 
BRANCH  15  17
ATOM     17  C   UNL     1      -0.099  12.534  20.118  0.00  0.00    +0.000 C 
BRANCH  17  18
ATOM     18  N   UNL     1       0.844  13.598  20.446  0.00  0.00    +0.000 N 
ATOM     19  C   UNL     1       0.826  14.187  21.671  0.00  0.00    +0.000 A 
ATOM     20  C   UNL     1      -0.253  14.786  22.463  0.00  0.00    +0.000 C 
ATOM     21  N   UNL     1       2.108  14.140  21.815  0.00  0.00    +0.000 NA
ATOM     22  N   UNL     1       2.194  13.376  20.690  0.00  0.00    +0.000 N 
ATOM     23  C   UNL     1       3.040  13.915  19.618  0.00  0.00    +0.000 C 
ENDBRANCH  17  18
ENDBRANCH  15  17
ENDBRANCH   8  11
BRANCH   5  24
ATOM     24  C   UNL     1       2.132   3.409  20.684  0.00  0.00    +0.000 C 
ATOM     25  F   UNL     1       2.562   3.689  21.948  0.00  0.00    +0.000 F 
ATOM     26  F   UNL     1       0.775   3.359  20.758  0.00  0.00    +0.000 F 
ATOM     27  F   UNL     1       2.543   2.137  20.430  0.00  0.00    +0.000 F 
ENDBRANCH   5  24
BRANCH   1  29
ATOM     28  C   UNL     1       5.502   5.457  15.771  0.00  0.00    +0.000 C 
ATOM     29  C   UNL     1       4.749   4.329  16.459  0.00  0.00    +0.000 C 
ENDBRANCH   1  29
TORSDOF 5
ENDMDL
