MODEL 1
REMARK VINA RESULT:      -8.6      0.000      0.000
REMARK  Name = 
REMARK  5 active torsions:
REMARK  status: ('A' for Active; 'I' for Inactive)
REMARK    1  A    between atoms: C_2  and  C_12
REMARK    2  A    between atoms: N_3  and  C_4
REMARK    3  A    between atoms: C_4  and  C_5
REMARK    4  A    between atoms: N_14  and  C_15
REMARK    5  A    between atoms: C_22  and  C_23
REMARK                            x       y       z     vdW  Elec       q    Type
REMARK                         _______ _______ _______ _____ _____    ______ ____
ROOT
ATOM      1  C   UNL     1       4.166   6.794  17.720  0.00  0.00    +0.000 A 
ATOM      2  C   UNL     1       3.536   8.014  17.866  0.00  0.00    +0.000 A 
ATOM      3  N   UNL     1       2.355   7.793  18.530  0.00  0.00    +0.000 N 
ATOM      4  N   UNL     1       2.183   6.480  18.801  0.00  0.00    +0.000 NA
ATOM      5  C   UNL     1       3.255   5.852  18.287  0.00  0.00    +0.000 A 
ENDROOT
BRANCH   3   6
ATOM      6  C   UNL     1       1.384   8.762  18.909  0.00  0.00    +0.000 A 
ATOM      7  C   UNL     1       0.720   9.532  17.940  0.00  0.00    +0.000 A 
ATOM      8  C   UNL     1      -0.247  10.463  18.324  0.00  0.00    +0.000 A 
ATOM      9  C   UNL     1      -0.551  10.640  19.671  0.00  0.00    +0.000 A 
ATOM     10  C   UNL     1       0.111   9.888  20.641  0.00  0.00    +0.000 A 
ATOM     11  C   UNL     1       1.076   8.949  20.264  0.00  0.00    +0.000 A 
ENDBRANCH   3   6
BRANCH   5  12
ATOM     12  C   UNL     1       3.340   4.391  18.336  0.00  0.00    +0.000 A 
ATOM     13  C   UNL     1       2.602   3.572  17.476  0.00  0.00    +0.000 A 
ATOM     14  C   UNL     1       2.699   2.185  17.573  0.00  0.00    +0.000 A 
ATOM     15  C   UNL     1       3.526   1.651  18.547  0.00  0.00    +0.000 A 
ATOM     16  N   UNL     1       4.245   2.399  19.409  0.00  0.00    +0.000 NA
ATOM     17  C   UNL     1       4.132   3.748  19.284  0.00  0.00    +0.000 A 
ENDBRANCH   5  12
BRANCH   1  19
ATOM     18  O   UNL     1       6.491   7.134  17.615  0.00  0.00    +0.000 OA
ATOM     19  C   UNL     1       5.495   6.582  17.166  0.00  0.00    +0.000 C 
ATOM     20  N   UNL     1       5.543   5.717  16.094  0.00  0.00    +0.000 N 
ATOM     21  H   UNL     1       4.733   5.163  15.861  0.00  0.00    +0.000 HD
BRANCH  20  22
ATOM     22  C   UNL     1       6.792   5.405  15.438  0.00  0.00    +0.000 C 
BRANCH  22  23
ATOM     23  C   UNL     1       6.577   4.697  14.132  0.00  0.00    +0.000 A 
ATOM     24  C   UNL     1       5.451   3.884  13.929  0.00  0.00    +0.000 A 
ATOM     25  C   UNL     1       5.262   3.229  12.710  0.00  0.00    +0.000 A 
ATOM     26  C   UNL     1       6.188   3.383  11.679  0.00  0.00    +0.000 A 
ATOM     27  C   UNL     1       7.305   4.197  11.867  0.00  0.00    +0.000 A 
ATOM     28  C   UNL     1       7.488   4.846  13.084  0.00  0.00    +0.000 A 
ATOM     29  F   UNL     1       8.564   5.630  13.244  0.00  0.00    +0.000 F 
ENDBRANCH  22  23
ENDBRANCH  20  22
ENDBRANCH   1  19
TORSDOF 5
ENDMDL
MODEL 2
REMARK VINA RESULT:      -8.5      0.726      1.159
REMARK  Name = 
REMARK  5 active torsions:
REMARK  status: ('A' for Active; 'I' for Inactive)
REMARK    1  A    between atoms: C_2  and  C_12
REMARK    2  A    between atoms: N_3  and  C_4
REMARK    3  A    between atoms: C_4  and  C_5
REMARK    4  A    between atoms: N_14  and  C_15
REMARK    5  A    between atoms: C_22  and  C_23
REMARK                            x       y       z     vdW  Elec       q    Type
REMARK                         _______ _______ _______ _____ _____    ______ ____
ROOT
ATOM      1  C   UNL     1       3.889   6.726  17.372  0.00  0.00    +0.000 A 
ATOM      2  C   UNL     1       3.292   7.933  17.677  0.00  0.00    +0.000 A 
ATOM      3  N   UNL     1       2.385   7.705  18.682  0.00  0.00    +0.000 N 
ATOM      4  N   UNL     1       2.355   6.398  19.026  0.00  0.00    +0.000 NA
ATOM      5  C   UNL     1       3.235   5.781  18.219  0.00  0.00    +0.000 A 
ENDROOT
BRANCH   3   6
ATOM      6  C   UNL     1       1.546   8.660  19.321  0.00  0.00    +0.000 A 
ATOM      7  C   UNL     1       1.229   8.541  20.684  0.00  0.00    +0.000 A 
ATOM      8  C   UNL     1       0.424   9.498  21.304  0.00  0.00    +0.000 A 
ATOM      9  C   UNL     1      -0.076  10.572  20.573  0.00  0.00    +0.000 A 
ATOM     10  C   UNL     1       0.225  10.693  19.217  0.00  0.00    +0.000 A 
ATOM     11  C   UNL     1       1.036   9.742  18.590  0.00  0.00    +0.000 A 
ENDBRANCH   3   6
BRANCH   5  12
ATOM     12  C   UNL     1       3.384   4.325  18.276  0.00  0.00    +0.000 A 
ATOM     13  C   UNL     1       2.801   3.479  17.328  0.00  0.00    +0.000 A 
ATOM     14  C   UNL     1       2.954   2.097  17.435  0.00  0.00    +0.000 A 
ATOM     15  C   UNL     1       3.676   1.596  18.504  0.00  0.00    +0.000 A 
ATOM     16  N   UNL     1       4.243   2.371  19.451  0.00  0.00    +0.000 NA
ATOM     17  C   UNL     1       4.081   3.714  19.316  0.00  0.00    +0.000 A 
ENDBRANCH   5  12
BRANCH   1  19
ATOM     18  O   UNL     1       5.099   7.186  15.408  0.00  0.00    +0.000 OA
ATOM     19  C   UNL     1       4.986   6.530  16.436  0.00  0.00    +0.000 C 
ATOM     20  N   UNL     1       5.883   5.548  16.793  0.00  0.00    +0.000 N 
ATOM     21  H   UNL     1       5.844   5.147  17.719  0.00  0.00    +0.000 HD
BRANCH  20  22
ATOM     22  C   UNL     1       7.025   5.237  15.966  0.00  0.00    +0.000 C 
BRANCH  22  23
ATOM     23  C   UNL     1       6.620   4.633  14.652  0.00  0.00    +0.000 A 
ATOM     24  C   UNL     1       5.460   3.850  14.546  0.00  0.00    +0.000 A 
ATOM     25  C   UNL     1       5.092   3.293  13.320  0.00  0.00    +0.000 A 
ATOM     26  C   UNL     1       5.872   3.517  12.186  0.00  0.00    +0.000 A 
ATOM     27  C   UNL     1       7.021   4.302  12.277  0.00  0.00    +0.000 A 
ATOM     28  C   UNL     1       7.382   4.854  13.504  0.00  0.00    +0.000 A 
ATOM     29  F   UNL     1       8.485   5.612  13.572  0.00  0.00    +0.000 F 
ENDBRANCH  22  23
ENDBRANCH  20  22
ENDBRANCH   1  19
TORSDOF 5
ENDMDL
MODEL 3
REMARK VINA RESULT:      -8.3      0.548      1.296
REMARK  Name = 
REMARK  5 active torsions:
REMARK  status: ('A' for Active; 'I' for Inactive)
REMARK    1  A    between atoms: C_2  and  C_12
REMARK    2  A    between atoms: N_3  and  C_4
REMARK    3  A    between atoms: C_4  and  C_5
REMARK    4  A    between atoms: N_14  and  C_15
REMARK    5  A    between atoms: C_22  and  C_23
REMARK                            x       y       z     vdW  Elec       q    Type
REMARK                         _______ _______ _______ _____ _____    ______ ____
ROOT
ATOM      1  C   UNL     1       4.115   6.869  17.628  0.00  0.00    +0.000 A 
ATOM      2  C   UNL     1       3.462   8.078  17.774  0.00  0.00    +0.000 A 
ATOM      3  N   UNL     1       2.321   7.848  18.500  0.00  0.00    +0.000 N 
ATOM      4  N   UNL     1       2.195   6.539  18.814  0.00  0.00    +0.000 NA
ATOM      5  C   UNL     1       3.255   5.923  18.264  0.00  0.00    +0.000 A 
ENDROOT
BRANCH   3   6
ATOM      6  C   UNL     1       1.346   8.804  18.901  0.00  0.00    +0.000 A 
ATOM      7  C   UNL     1       1.040   8.993  20.258  0.00  0.00    +0.000 A 
ATOM      8  C   UNL     1       0.099   9.951  20.640  0.00  0.00    +0.000 A 
ATOM      9  C   UNL     1      -0.549  10.718  19.676  0.00  0.00    +0.000 A 
ATOM     10  C   UNL     1      -0.259  10.530  18.325  0.00  0.00    +0.000 A 
ATOM     11  C   UNL     1       0.687   9.577  17.935  0.00  0.00    +0.000 A 
ENDBRANCH   3   6
BRANCH   5  12
ATOM     12  C   UNL     1       3.378   4.465  18.348  0.00  0.00    +0.000 A 
ATOM     13  C   UNL     1       4.240   3.841  19.254  0.00  0.00    +0.000 A 
ATOM     14  C   UNL     1       4.339   2.451  19.284  0.00  0.00    +0.000 A 
ATOM     15  C   UNL     1       3.580   1.719  18.388  0.00  0.00    +0.000 A 
ATOM     16  N   UNL     1       2.747   2.275  17.485  0.00  0.00    +0.000 NA
ATOM     17  C   UNL     1       2.670   3.633  17.485  0.00  0.00    +0.000 A 
ENDBRANCH   5  12
BRANCH   1  19
ATOM     18  O   UNL     1       6.346   7.458  17.175  0.00  0.00    +0.000 OA
ATOM     19  C   UNL     1       5.419   6.673  17.016  0.00  0.00    +0.000 C 
ATOM     20  N   UNL     1       5.530   5.541  16.239  0.00  0.00    +0.000 N 
ATOM     21  H   UNL     1       4.801   4.843  16.266  0.00  0.00    +0.000 HD
BRANCH  20  22
ATOM     22  C   UNL     1       6.764   5.209  15.566  0.00  0.00    +0.000 C 
BRANCH  22  23
ATOM     23  C   UNL     1       6.521   4.600  14.215  0.00  0.00    +0.000 A 
ATOM     24  C   UNL     1       5.382   3.817  13.972  0.00  0.00    +0.000 A 
ATOM     25  C   UNL     1       5.166   3.255  12.712  0.00  0.00    +0.000 A 
ATOM     26  C   UNL     1       6.079   3.474  11.680  0.00  0.00    +0.000 A 
ATOM     27  C   UNL     1       7.209   4.259  11.909  0.00  0.00    +0.000 A 
ATOM     28  C   UNL     1       7.418   4.816  13.167  0.00  0.00    +0.000 A 
ATOM     29  F   UNL     1       8.505   5.573  13.367  0.00  0.00    +0.000 F 
ENDBRANCH  22  23
ENDBRANCH  20  22
ENDBRANCH   1  19
TORSDOF 5
ENDMDL
MODEL 4
REMARK VINA RESULT:      -8.3      2.698      3.511
REMARK  Name = 
REMARK  5 active torsions:
REMARK  status: ('A' for Active; 'I' for Inactive)
REMARK    1  A    between atoms: C_2  and  C_12
REMARK    2  A    between atoms: N_3  and  C_4
REMARK    3  A    between atoms: C_4  and  C_5
REMARK    4  A    between atoms: N_14  and  C_15
REMARK    5  A    between atoms: C_22  and  C_23
REMARK                            x       y       z     vdW  Elec       q    Type
REMARK                         _______ _______ _______ _____ _____    ______ ____
ROOT
ATOM      1  C   UNL     1       2.151   7.039  19.233  0.00  0.00    +0.000 A 
ATOM      2  C   UNL     1       1.735   8.338  19.452  0.00  0.00    +0.000 A 
ATOM      3  N   UNL     1       1.089   8.368  20.662  0.00  0.00    +0.000 N 
ATOM      4  N   UNL     1       1.050   7.141  21.228  0.00  0.00    +0.000 NA
ATOM      5  C   UNL     1       1.658   6.314  20.360  0.00  0.00    +0.000 A 
ENDROOT
BRANCH   3   6
ATOM      6  C   UNL     1       0.504   9.499  21.300  0.00  0.00    +0.000 A 
ATOM      7  C   UNL     1       0.640  10.784  20.751  0.00  0.00    +0.000 A 
ATOM      8  C   UNL     1       0.042  11.880  21.374  0.00  0.00    +0.000 A 
ATOM      9  C   UNL     1      -0.685  11.707  22.548  0.00  0.00    +0.000 A 
ATOM     10  C   UNL     1      -0.816  10.436  23.106  0.00  0.00    +0.000 A 
ATOM     11  C   UNL     1      -0.225   9.332  22.485  0.00  0.00    +0.000 A 
ENDBRANCH   3   6
BRANCH   5  12
ATOM     12  C   UNL     1       1.711   4.876  20.635  0.00  0.00    +0.000 A 
ATOM     13  C   UNL     1       0.934   3.953  19.930  0.00  0.00    +0.000 A 
ATOM     14  C   UNL     1       1.003   2.596  20.240  0.00  0.00    +0.000 A 
ATOM     15  C   UNL     1       1.841   2.198  21.268  0.00  0.00    +0.000 A 
ATOM     16  N   UNL     1       2.598   3.053  21.987  0.00  0.00    +0.000 NA
ATOM     17  C   UNL     1       2.512   4.369  21.655  0.00  0.00    +0.000 A 
ENDBRANCH   5  12
BRANCH   1  19
ATOM     18  O   UNL     1       2.922   5.432  17.700  0.00  0.00    +0.000 OA
ATOM     19  C   UNL     1       2.966   6.581  18.119  0.00  0.00    +0.000 C 
ATOM     20  N   UNL     1       3.796   7.538  17.578  0.00  0.00    +0.000 N 
ATOM     21  H   UNL     1       3.685   8.505  17.844  0.00  0.00    +0.000 HD
BRANCH  20  22
ATOM     22  C   UNL     1       4.666   7.235  16.465  0.00  0.00    +0.000 C 
BRANCH  22  23
ATOM     23  C   UNL     1       5.766   6.290  16.854  0.00  0.00    +0.000 A 
ATOM     24  C   UNL     1       6.554   6.529  17.990  0.00  0.00    +0.000 A 
ATOM     25  C   UNL     1       7.575   5.643  18.343  0.00  0.00    +0.000 A 
ATOM     26  C   UNL     1       7.816   4.507  17.570  0.00  0.00    +0.000 A 
ATOM     27  C   UNL     1       7.032   4.255  16.445  0.00  0.00    +0.000 A 
ATOM     28  C   UNL     1       6.016   5.142  16.099  0.00  0.00    +0.000 A 
ATOM     29  F   UNL     1       5.268   4.880  15.018  0.00  0.00    +0.000 F 
ENDBRANCH  22  23
ENDBRANCH  20  22
ENDBRANCH   1  19
TORSDOF 5
ENDMDL
MODEL 5
REMARK VINA RESULT:      -8.3      1.185      1.498
REMARK  Name = 
REMARK  5 active torsions:
REMARK  status: ('A' for Active; 'I' for Inactive)
REMARK    1  A    between atoms: C_2  and  C_12
REMARK    2  A    between atoms: N_3  and  C_4
REMARK    3  A    between atoms: C_4  and  C_5
REMARK    4  A    between atoms: N_14  and  C_15
REMARK    5  A    between atoms: C_22  and  C_23
REMARK                            x       y       z     vdW  Elec       q    Type
REMARK                         _______ _______ _______ _____ _____    ______ ____
ROOT
ATOM      1  C   UNL     1       3.897   6.782  17.438  0.00  0.00    +0.000 A 
ATOM      2  C   UNL     1       3.307   8.000  17.712  0.00  0.00    +0.000 A 
ATOM      3  N   UNL     1       2.330   7.785  18.652  0.00  0.00    +0.000 N 
ATOM      4  N   UNL     1       2.248   6.477  18.984  0.00  0.00    +0.000 NA
ATOM      5  C   UNL     1       3.167   5.846  18.232  0.00  0.00    +0.000 A 
ENDROOT
BRANCH   3   6
ATOM      6  C   UNL     1       1.471   8.755  19.241  0.00  0.00    +0.000 A 
ATOM      7  C   UNL     1       0.908   9.782  18.466  0.00  0.00    +0.000 A 
ATOM      8  C   UNL     1       0.049  10.714  19.051  0.00  0.00    +0.000 A 
ATOM      9  C   UNL     1      -0.248  10.635  20.409  0.00  0.00    +0.000 A 
ATOM     10  C   UNL     1       0.315   9.625  21.188  0.00  0.00    +0.000 A 
ATOM     11  C   UNL     1       1.172   8.685  20.608  0.00  0.00    +0.000 A 
ENDBRANCH   3   6
BRANCH   5  12
ATOM     12  C   UNL     1       3.281   4.387  18.288  0.00  0.00    +0.000 A 
ATOM     13  C   UNL     1       2.543   3.549  17.446  0.00  0.00    +0.000 A 
ATOM     14  C   UNL     1       2.669   2.165  17.549  0.00  0.00    +0.000 A 
ATOM     15  C   UNL     1       3.523   1.652  18.510  0.00  0.00    +0.000 A 
ATOM     16  N   UNL     1       4.243   2.419  19.355  0.00  0.00    +0.000 NA
ATOM     17  C   UNL     1       4.102   3.765  19.225  0.00  0.00    +0.000 A 
ENDBRANCH   5  12
BRANCH   1  19
ATOM     18  O   UNL     1       5.141   7.070  15.463  0.00  0.00    +0.000 OA
ATOM     19  C   UNL     1       5.049   6.568  16.576  0.00  0.00    +0.000 C 
ATOM     20  N   UNL     1       6.025   5.752  17.106  0.00  0.00    +0.000 N 
ATOM     21  H   UNL     1       5.985   5.493  18.081  0.00  0.00    +0.000 HD
BRANCH  20  22
ATOM     22  C   UNL     1       7.229   5.447  16.370  0.00  0.00    +0.000 C 
BRANCH  22  23
ATOM     23  C   UNL     1       6.929   4.844  15.028  0.00  0.00    +0.000 A 
ATOM     24  C   UNL     1       7.553   5.325  13.866  0.00  0.00    +0.000 A 
ATOM     25  C   UNL     1       7.267   4.757  12.623  0.00  0.00    +0.000 A 
ATOM     26  C   UNL     1       6.363   3.700  12.526  0.00  0.00    +0.000 A 
ATOM     27  C   UNL     1       5.745   3.207  13.675  0.00  0.00    +0.000 A 
ATOM     28  C   UNL     1       6.035   3.779  14.911  0.00  0.00    +0.000 A 
ATOM     29  F   UNL     1       5.438   3.288  16.006  0.00  0.00    +0.000 F 
ENDBRANCH  22  23
ENDBRANCH  20  22
ENDBRANCH   1  19
TORSDOF 5
ENDMDL
MODEL 6
REMARK VINA RESULT:      -8.2      4.550     10.376
REMARK  Name = 
REMARK  5 active torsions:
REMARK  status: ('A' for Active; 'I' for Inactive)
REMARK    1  A    between atoms: C_2  and  C_12
REMARK    2  A    between atoms: N_3  and  C_4
REMARK    3  A    between atoms: C_4  and  C_5
REMARK    4  A    between atoms: N_14  and  C_15
REMARK    5  A    between atoms: C_22  and  C_23
REMARK                            x       y       z     vdW  Elec       q    Type
REMARK                         _______ _______ _______ _____ _____    ______ ____
ROOT
ATOM      1  C   UNL     1       1.268   8.865  20.525  0.00  0.00    +0.000 A 
ATOM      2  C   UNL     1       1.856   7.635  20.302  0.00  0.00    +0.000 A 
ATOM      3  N   UNL     1       2.171   7.562  18.968  0.00  0.00    +0.000 N 
ATOM      4  N   UNL     1       1.794   8.683  18.313  0.00  0.00    +0.000 NA
ATOM      5  C   UNL     1       1.212   9.471  19.234  0.00  0.00    +0.000 A 
ENDROOT
BRANCH   3   6
ATOM      6  C   UNL     1       2.802   6.483  18.288  0.00  0.00    +0.000 A 
ATOM      7  C   UNL     1       4.031   6.665  17.634  0.00  0.00    +0.000 A 
ATOM      8  C   UNL     1       4.651   5.593  16.991  0.00  0.00    +0.000 A 
ATOM      9  C   UNL     1       4.049   4.337  16.987  0.00  0.00    +0.000 A 
ATOM     10  C   UNL     1       2.824   4.149  17.624  0.00  0.00    +0.000 A 
ATOM     11  C   UNL     1       2.200   5.217  18.276  0.00  0.00    +0.000 A 
ENDBRANCH   3   6
BRANCH   5  12
ATOM     12  C   UNL     1       0.609  10.744  18.830  0.00  0.00    +0.000 A 
ATOM     13  C   UNL     1       1.307  11.954  18.898  0.00  0.00    +0.000 A 
ATOM     14  C   UNL     1       0.685  13.144  18.522  0.00  0.00    +0.000 A 
ATOM     15  C   UNL     1      -0.632  13.093  18.102  0.00  0.00    +0.000 A 
ATOM     16  N   UNL     1      -1.352  11.953  18.035  0.00  0.00    +0.000 NA
ATOM     17  C   UNL     1      -0.715  10.809  18.403  0.00  0.00    +0.000 A 
ENDBRANCH   5  12
BRANCH   1  19
ATOM     18  O   UNL     1       1.624   9.392  22.788  0.00  0.00    +0.000 OA
ATOM     19  C   UNL     1       0.876   9.400  21.819  0.00  0.00    +0.000 C 
ATOM     20  N   UNL     1      -0.402   9.910  21.871  0.00  0.00    +0.000 N 
ATOM     21  H   UNL     1      -0.923  10.045  21.017  0.00  0.00    +0.000 HD
BRANCH  20  22
ATOM     22  C   UNL     1      -0.935  10.478  23.088  0.00  0.00    +0.000 C 
BRANCH  22  23
ATOM     23  C   UNL     1      -1.335  11.914  22.909  0.00  0.00    +0.000 A 
ATOM     24  C   UNL     1      -0.514  12.809  22.206  0.00  0.00    +0.000 A 
ATOM     25  C   UNL     1      -0.896  14.143  22.045  0.00  0.00    +0.000 A 
ATOM     26  C   UNL     1      -2.103  14.596  22.577  0.00  0.00    +0.000 A 
ATOM     27  C   UNL     1      -2.931  13.712  23.269  0.00  0.00    +0.000 A 
ATOM     28  C   UNL     1      -2.544  12.384  23.425  0.00  0.00    +0.000 A 
ATOM     29  F   UNL     1      -3.356  11.548  24.086  0.00  0.00    +0.000 F 
ENDBRANCH  22  23
ENDBRANCH  20  22
ENDBRANCH   1  19
TORSDOF 5
ENDMDL
MODEL 7
REMARK VINA RESULT:      -8.1      4.104     10.155
REMARK  Name = 
REMARK  5 active torsions:
REMARK  status: ('A' for Active; 'I' for Inactive)
REMARK    1  A    between atoms: C_2  and  C_12
REMARK    2  A    between atoms: N_3  and  C_4
REMARK    3  A    between atoms: C_4  and  C_5
REMARK    4  A    between atoms: N_14  and  C_15
REMARK    5  A    between atoms: C_22  and  C_23
REMARK                            x       y       z     vdW  Elec       q    Type
REMARK                         _______ _______ _______ _____ _____    ______ ____
ROOT
ATOM      1  C   UNL     1       1.282   8.802  20.587  0.00  0.00    +0.000 A 
ATOM      2  C   UNL     1       1.879   7.580  20.348  0.00  0.00    +0.000 A 
ATOM      3  N   UNL     1       2.160   7.511  19.007  0.00  0.00    +0.000 N 
ATOM      4  N   UNL     1       1.752   8.627  18.362  0.00  0.00    +0.000 NA
ATOM      5  C   UNL     1       1.185   9.408  19.298  0.00  0.00    +0.000 A 
ENDROOT
BRANCH   3   6
ATOM      6  C   UNL     1       2.786   6.439  18.310  0.00  0.00    +0.000 A 
ATOM      7  C   UNL     1       2.200   5.163  18.278  0.00  0.00    +0.000 A 
ATOM      8  C   UNL     1       2.813   4.127  17.572  0.00  0.00    +0.000 A 
ATOM      9  C   UNL     1       4.013   4.350  16.903  0.00  0.00    +0.000 A 
ATOM     10  C   UNL     1       4.607   5.611  16.938  0.00  0.00    +0.000 A 
ATOM     11  C   UNL     1       3.997   6.656  17.638  0.00  0.00    +0.000 A 
ENDBRANCH   3   6
BRANCH   5  12
ATOM     12  C   UNL     1       0.556  10.674  18.911  0.00  0.00    +0.000 A 
ATOM     13  C   UNL     1      -0.802  10.764  18.592  0.00  0.00    +0.000 A 
ATOM     14  C   UNL     1      -1.352  11.987  18.210  0.00  0.00    +0.000 A 
ATOM     15  C   UNL     1      -0.519  13.090  18.140  0.00  0.00    +0.000 A 
ATOM     16  N   UNL     1       0.800  13.049  18.423  0.00  0.00    +0.000 NA
ATOM     17  C   UNL     1       1.304  11.843  18.798  0.00  0.00    +0.000 A 
ENDBRANCH   5  12
BRANCH   1  19
ATOM     18  O   UNL     1       1.697   9.349  22.836  0.00  0.00    +0.000 OA
ATOM     19  C   UNL     1       0.918   9.332  21.892  0.00  0.00    +0.000 C 
ATOM     20  N   UNL     1      -0.372   9.808  21.984  0.00  0.00    +0.000 N 
ATOM     21  H   UNL     1      -0.923   9.924  21.146  0.00  0.00    +0.000 HD
BRANCH  20  22
ATOM     22  C   UNL     1      -0.880  10.366  23.215  0.00  0.00    +0.000 C 
BRANCH  22  23
ATOM     23  C   UNL     1      -1.565  11.685  22.993  0.00  0.00    +0.000 A 
ATOM     24  C   UNL     1      -2.856  11.919  23.489  0.00  0.00    +0.000 A 
ATOM     25  C   UNL     1      -3.484  13.148  23.277  0.00  0.00    +0.000 A 
ATOM     26  C   UNL     1      -2.828  14.159  22.575  0.00  0.00    +0.000 A 
ATOM     27  C   UNL     1      -1.540  13.940  22.086  0.00  0.00    +0.000 A 
ATOM     28  C   UNL     1      -0.921  12.712  22.301  0.00  0.00    +0.000 A 
ATOM     29  F   UNL     1       0.320  12.522  21.830  0.00  0.00    +0.000 F 
ENDBRANCH  22  23
ENDBRANCH  20  22
ENDBRANCH   1  19
TORSDOF 5
ENDMDL
MODEL 8
REMARK VINA RESULT:      -8.0      3.937      8.895
REMARK  Name = 
REMARK  5 active torsions:
REMARK  status: ('A' for Active; 'I' for Inactive)
REMARK    1  A    between atoms: C_2  and  C_12
REMARK    2  A    between atoms: N_3  and  C_4
REMARK    3  A    between atoms: C_4  and  C_5
REMARK    4  A    between atoms: N_14  and  C_15
REMARK    5  A    between atoms: C_22  and  C_23
REMARK                            x       y       z     vdW  Elec       q    Type
REMARK                         _______ _______ _______ _____ _____    ______ ____
ROOT
ATOM      1  C   UNL     1       1.797   9.158  18.642  0.00  0.00    +0.000 A 
ATOM      2  C   UNL     1       2.512   8.365  17.766  0.00  0.00    +0.000 A 
ATOM      3  N   UNL     1       2.717   7.153  18.377  0.00  0.00    +0.000 N 
ATOM      4  N   UNL     1       2.184   7.133  19.619  0.00  0.00    +0.000 NA
ATOM      5  C   UNL     1       1.651   8.352  19.812  0.00  0.00    +0.000 A 
ENDROOT
BRANCH   3   6
ATOM      6  C   UNL     1       3.398   6.022  17.844  0.00  0.00    +0.000 A 
ATOM      7  C   UNL     1       2.942   4.720  18.104  0.00  0.00    +0.000 A 
ATOM      8  C   UNL     1       3.605   3.621  17.556  0.00  0.00    +0.000 A 
ATOM      9  C   UNL     1       4.728   3.809  16.755  0.00  0.00    +0.000 A 
ATOM     10  C   UNL     1       5.194   5.098  16.500  0.00  0.00    +0.000 A 
ATOM     11  C   UNL     1       4.532   6.204  17.040  0.00  0.00    +0.000 A 
ENDBRANCH   3   6
BRANCH   5  12
ATOM     12  C   UNL     1       1.060   8.694  21.108  0.00  0.00    +0.000 A 
ATOM     13  C   UNL     1      -0.321   8.668  21.327  0.00  0.00    +0.000 A 
ATOM     14  C   UNL     1      -0.840   9.021  22.572  0.00  0.00    +0.000 A 
ATOM     15  C   UNL     1       0.042   9.410  23.565  0.00  0.00    +0.000 A 
ATOM     16  N   UNL     1       1.379   9.467  23.397  0.00  0.00    +0.000 NA
ATOM     17  C   UNL     1       1.854   9.111  22.174  0.00  0.00    +0.000 A 
ENDBRANCH   5  12
BRANCH   1  19
ATOM     18  O   UNL     1       1.999  11.455  18.187  0.00  0.00    +0.000 OA
ATOM     19  C   UNL     1       1.274  10.485  18.358  0.00  0.00    +0.000 C 
ATOM     20  N   UNL     1      -0.101  10.565  18.303  0.00  0.00    +0.000 N 
ATOM     21  H   UNL     1      -0.651   9.720  18.287  0.00  0.00    +0.000 HD
BRANCH  20  22
ATOM     22  C   UNL     1      -0.769  11.816  18.028  0.00  0.00    +0.000 C 
BRANCH  22  23
ATOM     23  C   UNL     1      -2.226  11.619  17.721  0.00  0.00    +0.000 A 
ATOM     24  C   UNL     1      -2.643  11.202  16.448  0.00  0.00    +0.000 A 
ATOM     25  C   UNL     1      -4.001  11.022  16.172  0.00  0.00    +0.000 A 
ATOM     26  C   UNL     1      -4.954  11.248  17.165  0.00  0.00    +0.000 A 
ATOM     27  C   UNL     1      -4.549  11.653  18.436  0.00  0.00    +0.000 A 
ATOM     28  C   UNL     1      -3.194  11.831  18.704  0.00  0.00    +0.000 A 
ATOM     29  F   UNL     1      -2.822  12.213  19.933  0.00  0.00    +0.000 F 
ENDBRANCH  22  23
ENDBRANCH  20  22
ENDBRANCH   1  19
TORSDOF 5
ENDMDL
MODEL 9
REMARK VINA RESULT:      -7.9      1.101      1.329
REMARK  Name = 
REMARK  5 active torsions:
REMARK  status: ('A' for Active; 'I' for Inactive)
REMARK    1  A    between atoms: C_2  and  C_12
REMARK    2  A    between atoms: N_3  and  C_4
REMARK    3  A    between atoms: C_4  and  C_5
REMARK    4  A    between atoms: N_14  and  C_15
REMARK    5  A    between atoms: C_22  and  C_23
REMARK                            x       y       z     vdW  Elec       q    Type
REMARK                         _______ _______ _______ _____ _____    ______ ____
ROOT
ATOM      1  C   UNL     1       4.015   6.441  17.779  0.00  0.00    +0.000 A 
ATOM      2  C   UNL     1       3.739   7.794  17.766  0.00  0.00    +0.000 A 
ATOM      3  N   UNL     1       2.515   7.973  18.361  0.00  0.00    +0.000 N 
ATOM      4  N   UNL     1       1.978   6.792  18.741  0.00  0.00    +0.000 NA
ATOM      5  C   UNL     1       2.857   5.847  18.365  0.00  0.00    +0.000 A 
ENDROOT
BRANCH   3   6
ATOM      6  C   UNL     1       1.833   9.203  18.579  0.00  0.00    +0.000 A 
ATOM      7  C   UNL     1       0.700   9.260  19.407  0.00  0.00    +0.000 A 
ATOM      8  C   UNL     1       0.054  10.476  19.631  0.00  0.00    +0.000 A 
ATOM      9  C   UNL     1       0.524  11.640  19.027  0.00  0.00    +0.000 A 
ATOM     10  C   UNL     1       1.641  11.590  18.194  0.00  0.00    +0.000 A 
ATOM     11  C   UNL     1       2.298  10.377  17.970  0.00  0.00    +0.000 A 
ENDBRANCH   3   6
BRANCH   5  12
ATOM     12  C   UNL     1       2.534   4.431  18.556  0.00  0.00    +0.000 A 
ATOM     13  C   UNL     1       2.639   3.496  17.521  0.00  0.00    +0.000 A 
ATOM     14  C   UNL     1       2.302   2.162  17.744  0.00  0.00    +0.000 A 
ATOM     15  C   UNL     1       1.849   1.800  19.001  0.00  0.00    +0.000 A 
ATOM     16  N   UNL     1       1.716   2.667  20.026  0.00  0.00    +0.000 NA
ATOM     17  C   UNL     1       2.058   3.960  19.777  0.00  0.00    +0.000 A 
ENDBRANCH   5  12
BRANCH   1  19
ATOM     18  O   UNL     1       5.876   5.027  18.040  0.00  0.00    +0.000 OA
ATOM     19  C   UNL     1       5.257   5.820  17.343  0.00  0.00    +0.000 C 
ATOM     20  N   UNL     1       5.684   6.199  16.090  0.00  0.00    +0.000 N 
ATOM     21  H   UNL     1       5.067   6.724  15.488  0.00  0.00    +0.000 HD
BRANCH  20  22
ATOM     22  C   UNL     1       6.899   5.667  15.519  0.00  0.00    +0.000 C 
BRANCH  22  23
ATOM     23  C   UNL     1       6.633   4.872  14.273  0.00  0.00    +0.000 A 
ATOM     24  C   UNL     1       5.484   4.074  14.159  0.00  0.00    +0.000 A 
ATOM     25  C   UNL     1       5.247   3.338  12.997  0.00  0.00    +0.000 A 
ATOM     26  C   UNL     1       6.147   3.395  11.933  0.00  0.00    +0.000 A 
ATOM     27  C   UNL     1       7.287   4.193  12.032  0.00  0.00    +0.000 A 
ATOM     28  C   UNL     1       7.518   4.924  13.194  0.00  0.00    +0.000 A 
ATOM     29  F   UNL     1       8.614   5.691  13.269  0.00  0.00    +0.000 F 
ENDBRANCH  22  23
ENDBRANCH  20  22
ENDBRANCH   1  19
TORSDOF 5
ENDMDL
