MODEL 1
REMARK VINA RESULT:      -9.7      0.000      0.000
REMARK  Name = 
REMARK  7 active torsions:
REMARK  status: ('A' for Active; 'I' for Inactive)
REMARK    1  A    between atoms: C_1  and  C_2
REMARK    2  A    between atoms: C_4  and  C_5
REMARK    3  A    between atoms: N_7  and  C_8
REMARK    4  A    between atoms: C_10  and  C_11
REMARK    5  A    between atoms: C_13  and  C_14
REMARK    6  A    between atoms: N_16  and  C_17
REMARK    7  A    between atoms: C_25  and  N_26
REMARK                            x       y       z     vdW  Elec       q    Type
REMARK                         _______ _______ _______ _____ _____    ______ ____
ROOT
ATOM      1  C   UNL     1       1.862   8.740  18.555  0.00  0.00    +0.000 C 
ATOM      2  O   UNL     1       1.847   8.933  17.352  0.00  0.00    +0.000 OA
ATOM      3  N   UNL     1       2.570   7.624  19.109  0.00  0.00    +0.000 N 
ATOM      4  H   UNL     1       2.377   7.324  20.059  0.00  0.00    +0.000 HD
ENDROOT
BRANCH   1   8
ATOM      5  C   UNL     1       0.010   9.400  23.154  0.00  0.00    +0.000 C 
ATOM      6  C   UNL     1       0.120   9.918  21.739  0.00  0.00    +0.000 A 
ATOM      7  C   UNL     1       0.883   9.140  20.837  0.00  0.00    +0.000 A 
ATOM      8  C   UNL     1       1.036   9.527  19.503  0.00  0.00    +0.000 A 
ATOM      9  C   UNL     1       0.410  10.687  19.045  0.00  0.00    +0.000 A 
ATOM     10  C   UNL     1      -0.345  11.472  19.923  0.00  0.00    +0.000 A 
ATOM     11  C   UNL     1      -0.481  11.120  21.282  0.00  0.00    +0.000 A 
BRANCH  11  12
ATOM     12  N   UNL     1      -1.186  12.014  22.152  0.00  0.00    +0.000 N 
ATOM     13  C   UNL     1      -2.548  12.157  22.323  0.00  0.00    +0.000 A 
ATOM     14  N   UNL     1      -2.815  13.132  23.161  0.00  0.00    +0.000 NA
ATOM     15  C   UNL     1      -1.578  13.577  23.501  0.00  0.00    +0.000 A 
ATOM     16  N   UNL     1      -0.563  12.927  22.934  0.00  0.00    +0.000 NA
ENDBRANCH  11  12
ENDBRANCH   1   8
BRANCH   3  17
ATOM     17  C   UNL     1       3.253   6.729  18.283  0.00  0.00    +0.000 A 
ATOM     18  C   UNL     1       4.008   7.043  17.176  0.00  0.00    +0.000 A 
ATOM     19  C   UNL     1       4.581   5.816  16.777  0.00  0.00    +0.000 A 
ATOM     20  N   UNL     1       4.258   4.815  17.599  0.00  0.00    +0.000 NA
ATOM     21  N   UNL     1       3.345   5.352  18.447  0.00  0.00    +0.000 N 
BRANCH  21  22
ATOM     22  C   UNL     1       2.559   4.532  19.295  0.00  0.00    +0.000 A 
ATOM     23  C   UNL     1       1.488   3.810  18.754  0.00  0.00    +0.000 A 
ATOM     24  C   UNL     1       0.713   2.996  19.580  0.00  0.00    +0.000 A 
ATOM     25  C   UNL     1       0.977   2.926  20.949  0.00  0.00    +0.000 A 
ATOM     26  C   UNL     1       2.014   3.672  21.498  0.00  0.00    +0.000 A 
ATOM     27  C   UNL     1       2.806   4.476  20.678  0.00  0.00    +0.000 A 
ENDBRANCH  21  22
BRANCH  19  28
ATOM     28  C   UNL     1       5.442   5.678  15.528  0.00  0.00    +0.000 C 
ATOM     29  C   UNL     1       5.658   4.274  14.979  0.00  0.00    +0.000 C 
ATOM     30  C   UNL     1       6.822   5.036  15.519  0.00  0.00    +0.000 C 
ATOM     31  C   UNL     1       7.535   4.539  16.729  0.00  0.00    +0.000 C 
ENDBRANCH  19  28
ENDBRANCH   3  17
TORSDOF 5
ENDMDL
MODEL 2
REMARK VINA RESULT:      -9.1      0.711      1.529
REMARK  Name = 
REMARK  7 active torsions:
REMARK  status: ('A' for Active; 'I' for Inactive)
REMARK    1  A    between atoms: C_1  and  C_2
REMARK    2  A    between atoms: C_4  and  C_5
REMARK    3  A    between atoms: N_7  and  C_8
REMARK    4  A    between atoms: C_10  and  C_11
REMARK    5  A    between atoms: C_13  and  C_14
REMARK    6  A    between atoms: N_16  and  C_17
REMARK    7  A    between atoms: C_25  and  N_26
REMARK                            x       y       z     vdW  Elec       q    Type
REMARK                         _______ _______ _______ _____ _____    ______ ____
ROOT
ATOM      1  C   UNL     1       1.966   8.809  18.383  0.00  0.00    +0.000 C 
ATOM      2  O   UNL     1       2.151   9.062  17.206  0.00  0.00    +0.000 OA
ATOM      3  N   UNL     1       2.497   7.613  18.967  0.00  0.00    +0.000 N 
ATOM      4  H   UNL     1       2.138   7.282  19.856  0.00  0.00    +0.000 HD
ENDROOT
BRANCH   1   8
ATOM      5  C   UNL     1      -0.768  12.933  19.110  0.00  0.00    +0.000 C 
ATOM      6  C   UNL     1      -0.313  11.596  19.647  0.00  0.00    +0.000 A 
ATOM      7  C   UNL     1       0.575  10.856  18.832  0.00  0.00    +0.000 A 
ATOM      8  C   UNL     1       1.062   9.612  19.243  0.00  0.00    +0.000 A 
ATOM      9  C   UNL     1       0.687   9.100  20.485  0.00  0.00    +0.000 A 
ATOM     10  C   UNL     1      -0.194   9.815  21.303  0.00  0.00    +0.000 A 
ATOM     11  C   UNL     1      -0.728  11.053  20.892  0.00  0.00    +0.000 A 
BRANCH  11  12
ATOM     12  N   UNL     1      -1.699  11.692  21.731  0.00  0.00    +0.000 N 
ATOM     13  C   UNL     1      -1.762  11.723  23.109  0.00  0.00    +0.000 A 
ATOM     14  N   UNL     1      -2.841  12.352  23.514  0.00  0.00    +0.000 NA
ATOM     15  C   UNL     1      -3.432  12.709  22.345  0.00  0.00    +0.000 A 
ATOM     16  N   UNL     1      -2.776  12.350  21.243  0.00  0.00    +0.000 NA
ENDBRANCH  11  12
ENDBRANCH   1   8
BRANCH   3  17
ATOM     17  C   UNL     1       3.233   6.708  18.199  0.00  0.00    +0.000 A 
ATOM     18  C   UNL     1       4.014   7.002  17.105  0.00  0.00    +0.000 A 
ATOM     19  C   UNL     1       4.636   5.779  16.774  0.00  0.00    +0.000 A 
ATOM     20  N   UNL     1       4.316   4.801  17.624  0.00  0.00    +0.000 NA
ATOM     21  N   UNL     1       3.360   5.342  18.421  0.00  0.00    +0.000 N 
BRANCH  21  22
ATOM     22  C   UNL     1       2.571   4.532  19.276  0.00  0.00    +0.000 A 
ATOM     23  C   UNL     1       1.518   3.784  18.735  0.00  0.00    +0.000 A 
ATOM     24  C   UNL     1       0.741   2.980  19.568  0.00  0.00    +0.000 A 
ATOM     25  C   UNL     1       0.984   2.943  20.942  0.00  0.00    +0.000 A 
ATOM     26  C   UNL     1       2.004   3.715  21.489  0.00  0.00    +0.000 A 
ATOM     27  C   UNL     1       2.798   4.510  20.663  0.00  0.00    +0.000 A 
ENDBRANCH  21  22
BRANCH  19  28
ATOM     28  C   UNL     1       5.542   5.619  15.559  0.00  0.00    +0.000 C 
ATOM     29  C   UNL     1       5.779   4.206  15.045  0.00  0.00    +0.000 C 
ATOM     30  C   UNL     1       6.922   4.980  15.612  0.00  0.00    +0.000 C 
ATOM     31  C   UNL     1       7.593   4.508  16.856  0.00  0.00    +0.000 C 
ENDBRANCH  19  28
ENDBRANCH   3  17
TORSDOF 5
ENDMDL
MODEL 3
REMARK VINA RESULT:      -8.8      2.541      4.672
REMARK  Name = 
REMARK  7 active torsions:
REMARK  status: ('A' for Active; 'I' for Inactive)
REMARK    1  A    between atoms: C_1  and  C_2
REMARK    2  A    between atoms: C_4  and  C_5
REMARK    3  A    between atoms: N_7  and  C_8
REMARK    4  A    between atoms: C_10  and  C_11
REMARK    5  A    between atoms: C_13  and  C_14
REMARK    6  A    between atoms: N_16  and  C_17
REMARK    7  A    between atoms: C_25  and  N_26
REMARK                            x       y       z     vdW  Elec       q    Type
REMARK                         _______ _______ _______ _____ _____    ______ ____
ROOT
ATOM      1  C   UNL     1       3.728   6.229  17.558  0.00  0.00    +0.000 C 
ATOM      2  O   UNL     1       4.082   5.217  18.138  0.00  0.00    +0.000 OA
ATOM      3  N   UNL     1       4.285   6.575  16.284  0.00  0.00    +0.000 N 
ATOM      4  H   UNL     1       4.185   7.520  15.928  0.00  0.00    +0.000 HD
ENDROOT
BRANCH   1   8
ATOM      5  C   UNL     1       1.129   7.842  21.514  0.00  0.00    +0.000 C 
ATOM      6  C   UNL     1       1.569   8.094  20.092  0.00  0.00    +0.000 A 
ATOM      7  C   UNL     1       2.388   7.106  19.498  0.00  0.00    +0.000 A 
ATOM      8  C   UNL     1       2.841   7.240  18.182  0.00  0.00    +0.000 A 
ATOM      9  C   UNL     1       2.462   8.355  17.433  0.00  0.00    +0.000 A 
ATOM     10  C   UNL     1       1.657   9.346  18.004  0.00  0.00    +0.000 A 
ATOM     11  C   UNL     1       1.221   9.249  19.342  0.00  0.00    +0.000 A 
BRANCH  11  12
ATOM     12  N   UNL     1       0.479  10.341  19.900  0.00  0.00    +0.000 N 
ATOM     13  C   UNL     1       0.918  11.342  20.742  0.00  0.00    +0.000 A 
ATOM     14  N   UNL     1      -0.075  12.125  21.096  0.00  0.00    +0.000 NA
ATOM     15  C   UNL     1      -1.132  11.577  20.442  0.00  0.00    +0.000 A 
ATOM     16  N   UNL     1      -0.848  10.511  19.695  0.00  0.00    +0.000 NA
ENDBRANCH  11  12
ENDBRANCH   1   8
BRANCH   3  17
ATOM     17  C   UNL     1       5.248   5.765  15.680  0.00  0.00    +0.000 A 
ATOM     18  C   UNL     1       5.043   4.858  14.666  0.00  0.00    +0.000 A 
ATOM     19  C   UNL     1       6.336   4.399  14.332  0.00  0.00    +0.000 A 
ATOM     20  N   UNL     1       7.288   5.008  15.042  0.00  0.00    +0.000 NA
ATOM     21  N   UNL     1       6.611   5.751  15.953  0.00  0.00    +0.000 N 
BRANCH  21  22
ATOM     22  C   UNL     1       7.272   6.330  17.065  0.00  0.00    +0.000 A 
ATOM     23  C   UNL     1       7.545   5.542  18.190  0.00  0.00    +0.000 A 
ATOM     24  C   UNL     1       8.200   6.102  19.286  0.00  0.00    +0.000 A 
ATOM     25  C   UNL     1       8.553   7.452  19.283  0.00  0.00    +0.000 A 
ATOM     26  C   UNL     1       8.248   8.249  18.185  0.00  0.00    +0.000 A 
ATOM     27  C   UNL     1       7.609   7.696  17.076  0.00  0.00    +0.000 A 
ENDBRANCH  21  22
BRANCH  19  28
ATOM     28  C   UNL     1       6.580   3.311  13.294  0.00  0.00    +0.000 C 
ATOM     29  C   UNL     1       6.982   3.757  11.895  0.00  0.00    +0.000 C 
ATOM     30  C   UNL     1       5.674   3.067  12.096  0.00  0.00    +0.000 C 
ATOM     31  C   UNL     1       4.403   3.796  11.830  0.00  0.00    +0.000 C 
ENDBRANCH  19  28
ENDBRANCH   3  17
TORSDOF 5
ENDMDL
MODEL 4
REMARK VINA RESULT:      -8.8      1.108      1.679
REMARK  Name = 
REMARK  7 active torsions:
REMARK  status: ('A' for Active; 'I' for Inactive)
REMARK    1  A    between atoms: C_1  and  C_2
REMARK    2  A    between atoms: C_4  and  C_5
REMARK    3  A    between atoms: N_7  and  C_8
REMARK    4  A    between atoms: C_10  and  C_11
REMARK    5  A    between atoms: C_13  and  C_14
REMARK    6  A    between atoms: N_16  and  C_17
REMARK    7  A    between atoms: C_25  and  N_26
REMARK                            x       y       z     vdW  Elec       q    Type
REMARK                         _______ _______ _______ _____ _____    ______ ____
ROOT
ATOM      1  C   UNL     1       2.366   7.593  18.265  0.00  0.00    +0.000 C 
ATOM      2  O   UNL     1       1.860   7.052  17.296  0.00  0.00    +0.000 OA
ATOM      3  N   UNL     1       3.616   7.132  18.790  0.00  0.00    +0.000 N 
ATOM      4  H   UNL     1       3.904   7.406  19.724  0.00  0.00    +0.000 HD
ENDROOT
BRANCH   1   8
ATOM      5  C   UNL     1       0.600   9.232  22.647  0.00  0.00    +0.000 C 
ATOM      6  C   UNL     1       0.803   9.503  21.175  0.00  0.00    +0.000 A 
ATOM      7  C   UNL     1       1.441   8.486  20.426  0.00  0.00    +0.000 A 
ATOM      8  C   UNL     1       1.667   8.635  19.055  0.00  0.00    +0.000 A 
ATOM      9  C   UNL     1       1.239   9.794  18.408  0.00  0.00    +0.000 A 
ATOM     10  C   UNL     1       0.611  10.814  19.132  0.00  0.00    +0.000 A 
ATOM     11  C   UNL     1       0.407  10.700  20.523  0.00  0.00    +0.000 A 
BRANCH  11  12
ATOM     12  N   UNL     1      -0.154  11.816  21.225  0.00  0.00    +0.000 N 
ATOM     13  C   UNL     1      -1.477  12.071  21.524  0.00  0.00    +0.000 A 
ATOM     14  N   UNL     1      -1.607  13.233  22.120  0.00  0.00    +0.000 NA
ATOM     15  C   UNL     1      -0.326  13.679  22.182  0.00  0.00    +0.000 A 
ATOM     16  N   UNL     1       0.589  12.856  21.671  0.00  0.00    +0.000 NA
ENDBRANCH  11  12
ENDBRANCH   1   8
BRANCH   3  17
ATOM     17  C   UNL     1       4.281   6.050  18.210  0.00  0.00    +0.000 A 
ATOM     18  C   UNL     1       5.343   6.109  17.337  0.00  0.00    +0.000 A 
ATOM     19  C   UNL     1       5.723   4.762  17.148  0.00  0.00    +0.000 A 
ATOM     20  N   UNL     1       4.995   3.922  17.886  0.00  0.00    +0.000 NA
ATOM     21  N   UNL     1       4.031   4.702  18.438  0.00  0.00    +0.000 N 
BRANCH  21  22
ATOM     22  C   UNL     1       2.898   4.132  19.071  0.00  0.00    +0.000 A 
ATOM     23  C   UNL     1       2.770   4.221  20.462  0.00  0.00    +0.000 A 
ATOM     24  C   UNL     1       1.655   3.669  21.093  0.00  0.00    +0.000 A 
ATOM     25  C   UNL     1       0.685   2.996  20.348  0.00  0.00    +0.000 A 
ATOM     26  C   UNL     1       0.828   2.870  18.970  0.00  0.00    +0.000 A 
ATOM     27  C   UNL     1       1.930   3.434  18.328  0.00  0.00    +0.000 A 
ENDBRANCH  21  22
BRANCH  19  28
ATOM     28  C   UNL     1       6.826   4.347  16.183  0.00  0.00    +0.000 C 
ATOM     29  C   UNL     1       7.228   5.347  15.109  0.00  0.00    +0.000 C 
ATOM     30  C   UNL     1       6.594   4.058  14.707  0.00  0.00    +0.000 C 
ATOM     31  C   UNL     1       5.261   4.064  14.040  0.00  0.00    +0.000 C 
ENDBRANCH  19  28
ENDBRANCH   3  17
TORSDOF 5
ENDMDL
MODEL 5
REMARK VINA RESULT:      -8.8      1.099      1.421
REMARK  Name = 
REMARK  7 active torsions:
REMARK  status: ('A' for Active; 'I' for Inactive)
REMARK    1  A    between atoms: C_1  and  C_2
REMARK    2  A    between atoms: C_4  and  C_5
REMARK    3  A    between atoms: N_7  and  C_8
REMARK    4  A    between atoms: C_10  and  C_11
REMARK    5  A    between atoms: C_13  and  C_14
REMARK    6  A    between atoms: N_16  and  C_17
REMARK    7  A    between atoms: C_25  and  N_26
REMARK                            x       y       z     vdW  Elec       q    Type
REMARK                         _______ _______ _______ _____ _____    ______ ____
ROOT
ATOM      1  C   UNL     1       2.710   7.973  18.148  0.00  0.00    +0.000 C 
ATOM      2  O   UNL     1       2.778   7.959  16.931  0.00  0.00    +0.000 OA
ATOM      3  N   UNL     1       3.371   6.971  18.930  0.00  0.00    +0.000 N 
ATOM      4  H   UNL     1       3.113   6.835  19.901  0.00  0.00    +0.000 HD
ENDROOT
BRANCH   1   8
ATOM      5  C   UNL     1      -0.088   8.999  22.164  0.00  0.00    +0.000 C 
ATOM      6  C   UNL     1       0.464   9.476  20.841  0.00  0.00    +0.000 A 
ATOM      7  C   UNL     1       1.277   8.565  20.129  0.00  0.00    +0.000 A 
ATOM      8  C   UNL     1       1.828   8.906  18.890  0.00  0.00    +0.000 A 
ATOM      9  C   UNL     1       1.554  10.156  18.335  0.00  0.00    +0.000 A 
ATOM     10  C   UNL     1       0.756  11.074  19.027  0.00  0.00    +0.000 A 
ATOM     11  C   UNL     1       0.223  10.764  20.295  0.00  0.00    +0.000 A 
BRANCH  11  12
ATOM     12  N   UNL     1      -0.507  11.779  20.996  0.00  0.00    +0.000 N 
ATOM     13  C   UNL     1      -1.818  12.175  20.823  0.00  0.00    +0.000 A 
ATOM     14  N   UNL     1      -2.108  13.187  21.607  0.00  0.00    +0.000 NA
ATOM     15  C   UNL     1      -0.940  13.396  22.267  0.00  0.00    +0.000 A 
ATOM     16  N   UNL     1       0.050  12.564  21.947  0.00  0.00    +0.000 NA
ENDBRANCH  11  12
ENDBRANCH   1   8
BRANCH   3  17
ATOM     17  C   UNL     1       4.103   5.952  18.316  0.00  0.00    +0.000 A 
ATOM     18  C   UNL     1       5.200   6.104  17.499  0.00  0.00    +0.000 A 
ATOM     19  C   UNL     1       5.640   4.787  17.247  0.00  0.00    +0.000 A 
ATOM     20  N   UNL     1       4.912   3.876  17.898  0.00  0.00    +0.000 NA
ATOM     21  N   UNL     1       3.896   4.584  18.450  0.00  0.00    +0.000 N 
BRANCH  21  22
ATOM     22  C   UNL     1       2.758   3.936  18.992  0.00  0.00    +0.000 A 
ATOM     23  C   UNL     1       1.961   3.137  18.162  0.00  0.00    +0.000 A 
ATOM     24  C   UNL     1       0.844   2.490  18.689  0.00  0.00    +0.000 A 
ATOM     25  C   UNL     1       0.495   2.663  20.029  0.00  0.00    +0.000 A 
ATOM     26  C   UNL     1       1.260   3.487  20.848  0.00  0.00    +0.000 A 
ATOM     27  C   UNL     1       2.390   4.125  20.336  0.00  0.00    +0.000 A 
ENDBRANCH  21  22
BRANCH  19  28
ATOM     28  C   UNL     1       6.801   4.472  16.312  0.00  0.00    +0.000 C 
ATOM     29  C   UNL     1       7.163   5.522  15.271  0.00  0.00    +0.000 C 
ATOM     30  C   UNL     1       6.637   4.199  14.823  0.00  0.00    +0.000 C 
ATOM     31  C   UNL     1       5.329   4.124  14.112  0.00  0.00    +0.000 C 
ENDBRANCH  19  28
ENDBRANCH   3  17
TORSDOF 5
ENDMDL
MODEL 6
REMARK VINA RESULT:      -8.7      2.574      4.613
REMARK  Name = 
REMARK  7 active torsions:
REMARK  status: ('A' for Active; 'I' for Inactive)
REMARK    1  A    between atoms: C_1  and  C_2
REMARK    2  A    between atoms: C_4  and  C_5
REMARK    3  A    between atoms: N_7  and  C_8
REMARK    4  A    between atoms: C_10  and  C_11
REMARK    5  A    between atoms: C_13  and  C_14
REMARK    6  A    between atoms: N_16  and  C_17
REMARK    7  A    between atoms: C_25  and  N_26
REMARK                            x       y       z     vdW  Elec       q    Type
REMARK                         _______ _______ _______ _____ _____    ______ ____
ROOT
ATOM      1  C   UNL     1       3.728   6.222  17.586  0.00  0.00    +0.000 C 
ATOM      2  O   UNL     1       4.090   5.216  18.172  0.00  0.00    +0.000 OA
ATOM      3  N   UNL     1       4.277   6.560  16.306  0.00  0.00    +0.000 N 
ATOM      4  H   UNL     1       4.170   7.501  15.943  0.00  0.00    +0.000 HD
ENDROOT
BRANCH   1   8
ATOM      5  C   UNL     1       1.125   7.845  21.535  0.00  0.00    +0.000 C 
ATOM      6  C   UNL     1       1.565   8.093  20.112  0.00  0.00    +0.000 A 
ATOM      7  C   UNL     1       2.386   7.104  19.522  0.00  0.00    +0.000 A 
ATOM      8  C   UNL     1       2.838   7.234  18.205  0.00  0.00    +0.000 A 
ATOM      9  C   UNL     1       2.457   8.344  17.452  0.00  0.00    +0.000 A 
ATOM     10  C   UNL     1       1.650   9.336  18.020  0.00  0.00    +0.000 A 
ATOM     11  C   UNL     1       1.215   9.244  19.358  0.00  0.00    +0.000 A 
BRANCH  11  12
ATOM     12  N   UNL     1       0.470  10.336  19.911  0.00  0.00    +0.000 N 
ATOM     13  C   UNL     1      -0.811  10.750  19.607  0.00  0.00    +0.000 A 
ATOM     14  N   UNL     1      -1.123  11.835  20.276  0.00  0.00    +0.000 NA
ATOM     15  C   UNL     1       0.000  12.070  21.002  0.00  0.00    +0.000 A 
ATOM     16  N   UNL     1       0.983  11.186  20.831  0.00  0.00    +0.000 NA
ENDBRANCH  11  12
ENDBRANCH   1   8
BRANCH   3  17
ATOM     17  C   UNL     1       5.241   5.750  15.705  0.00  0.00    +0.000 A 
ATOM     18  C   UNL     1       5.040   4.852  14.681  0.00  0.00    +0.000 A 
ATOM     19  C   UNL     1       6.334   4.390  14.355  0.00  0.00    +0.000 A 
ATOM     20  N   UNL     1       7.283   4.988  15.078  0.00  0.00    +0.000 NA
ATOM     21  N   UNL     1       6.602   5.727  15.989  0.00  0.00    +0.000 N 
BRANCH  21  22
ATOM     22  C   UNL     1       7.255   6.295  17.111  0.00  0.00    +0.000 A 
ATOM     23  C   UNL     1       7.625   7.645  17.082  0.00  0.00    +0.000 A 
ATOM     24  C   UNL     1       8.263   8.213  18.185  0.00  0.00    +0.000 A 
ATOM     25  C   UNL     1       8.567   7.435  19.302  0.00  0.00    +0.000 A 
ATOM     26  C   UNL     1       8.238   6.083  19.320  0.00  0.00    +0.000 A 
ATOM     27  C   UNL     1       7.584   5.509  18.230  0.00  0.00    +0.000 A 
ENDBRANCH  21  22
BRANCH  19  28
ATOM     28  C   UNL     1       6.582   3.309  13.311  0.00  0.00    +0.000 C 
ATOM     29  C   UNL     1       6.994   3.763  11.918  0.00  0.00    +0.000 C 
ATOM     30  C   UNL     1       5.683   3.075  12.105  0.00  0.00    +0.000 C 
ATOM     31  C   UNL     1       4.415   3.811  11.836  0.00  0.00    +0.000 C 
ENDBRANCH  19  28
ENDBRANCH   3  17
TORSDOF 5
ENDMDL
MODEL 7
REMARK VINA RESULT:      -8.6      1.205      1.999
REMARK  Name = 
REMARK  7 active torsions:
REMARK  status: ('A' for Active; 'I' for Inactive)
REMARK    1  A    between atoms: C_1  and  C_2
REMARK    2  A    between atoms: C_4  and  C_5
REMARK    3  A    between atoms: N_7  and  C_8
REMARK    4  A    between atoms: C_10  and  C_11
REMARK    5  A    between atoms: C_13  and  C_14
REMARK    6  A    between atoms: N_16  and  C_17
REMARK    7  A    between atoms: C_25  and  N_26
REMARK                            x       y       z     vdW  Elec       q    Type
REMARK                         _______ _______ _______ _____ _____    ______ ____
ROOT
ATOM      1  C   UNL     1       2.435   7.336  18.401  0.00  0.00    +0.000 C 
ATOM      2  O   UNL     1       1.838   6.811  17.478  0.00  0.00    +0.000 OA
ATOM      3  N   UNL     1       3.734   6.873  18.789  0.00  0.00    +0.000 N 
ATOM      4  H   UNL     1       4.114   7.131  19.694  0.00  0.00    +0.000 HD
ENDROOT
BRANCH   1   8
ATOM      5  C   UNL     1       0.224  11.788  18.951  0.00  0.00    +0.000 C 
ATOM      6  C   UNL     1       0.707  10.516  19.608  0.00  0.00    +0.000 A 
ATOM      7  C   UNL     1       1.326   9.564  18.766  0.00  0.00    +0.000 A 
ATOM      8  C   UNL     1       1.816   8.359  19.278  0.00  0.00    +0.000 A 
ATOM      9  C   UNL     1       1.714   8.099  20.645  0.00  0.00    +0.000 A 
ATOM     10  C   UNL     1       1.101   9.027  21.494  0.00  0.00    +0.000 A 
ATOM     11  C   UNL     1       0.566  10.231  20.992  0.00  0.00    +0.000 A 
BRANCH  11  12
ATOM     12  N   UNL     1      -0.134  11.096  21.895  0.00  0.00    +0.000 N 
ATOM     13  C   UNL     1      -1.085  10.771  22.841  0.00  0.00    +0.000 A 
ATOM     14  N   UNL     1      -1.549  11.849  23.429  0.00  0.00    +0.000 NA
ATOM     15  C   UNL     1      -0.852  12.842  22.820  0.00  0.00    +0.000 A 
ATOM     16  N   UNL     1       0.025  12.440  21.900  0.00  0.00    +0.000 NA
ENDBRANCH  11  12
ENDBRANCH   1   8
BRANCH   3  17
ATOM     17  C   UNL     1       4.342   5.807  18.123  0.00  0.00    +0.000 A 
ATOM     18  C   UNL     1       5.358   5.885  17.199  0.00  0.00    +0.000 A 
ATOM     19  C   UNL     1       5.696   4.541  16.927  0.00  0.00    +0.000 A 
ATOM     20  N   UNL     1       4.986   3.682  17.662  0.00  0.00    +0.000 NA
ATOM     21  N   UNL     1       4.072   4.455  18.300  0.00  0.00    +0.000 N 
BRANCH  21  22
ATOM     22  C   UNL     1       2.959   3.879  18.964  0.00  0.00    +0.000 A 
ATOM     23  C   UNL     1       1.907   3.348  18.207  0.00  0.00    +0.000 A 
ATOM     24  C   UNL     1       0.811   2.774  18.852  0.00  0.00    +0.000 A 
ATOM     25  C   UNL     1       0.741   2.759  20.245  0.00  0.00    +0.000 A 
ATOM     26  C   UNL     1       1.764   3.321  21.001  0.00  0.00    +0.000 A 
ATOM     27  C   UNL     1       2.873   3.882  20.367  0.00  0.00    +0.000 A 
ENDBRANCH  21  22
BRANCH  19  28
ATOM     28  C   UNL     1       6.737   4.150  15.886  0.00  0.00    +0.000 C 
ATOM     29  C   UNL     1       7.129   5.202  14.859  0.00  0.00    +0.000 C 
ATOM     30  C   UNL     1       6.427   3.965  14.407  0.00  0.00    +0.000 C 
ATOM     31  C   UNL     1       5.067   4.062  13.807  0.00  0.00    +0.000 C 
ENDBRANCH  19  28
ENDBRANCH   3  17
TORSDOF 5
ENDMDL
MODEL 8
REMARK VINA RESULT:      -8.6      2.958      8.677
REMARK  Name = 
REMARK  7 active torsions:
REMARK  status: ('A' for Active; 'I' for Inactive)
REMARK    1  A    between atoms: C_1  and  C_2
REMARK    2  A    between atoms: C_4  and  C_5
REMARK    3  A    between atoms: N_7  and  C_8
REMARK    4  A    between atoms: C_10  and  C_11
REMARK    5  A    between atoms: C_13  and  C_14
REMARK    6  A    between atoms: N_16  and  C_17
REMARK    7  A    between atoms: C_25  and  N_26
REMARK                            x       y       z     vdW  Elec       q    Type
REMARK                         _______ _______ _______ _____ _____    ______ ____
ROOT
ATOM      1  C   UNL     1       1.977   9.516  18.214  0.00  0.00    +0.000 C 
ATOM      2  O   UNL     1       2.424  10.181  17.295  0.00  0.00    +0.000 OA
ATOM      3  N   UNL     1       1.164  10.121  19.227  0.00  0.00    +0.000 N 
ATOM      4  H   UNL     1       1.008   9.638  20.105  0.00  0.00    +0.000 HD
ENDROOT
BRANCH   1   8
ATOM      5  C   UNL     1       1.634   5.327  20.925  0.00  0.00    +0.000 C 
ATOM      6  C   UNL     1       2.219   6.016  19.714  0.00  0.00    +0.000 A 
ATOM      7  C   UNL     1       1.868   7.373  19.526  0.00  0.00    +0.000 A 
ATOM      8  C   UNL     1       2.364   8.103  18.442  0.00  0.00    +0.000 A 
ATOM      9  C   UNL     1       3.237   7.491  17.542  0.00  0.00    +0.000 A 
ATOM     10  C   UNL     1       3.592   6.148  17.707  0.00  0.00    +0.000 A 
ATOM     11  C   UNL     1       3.072   5.383  18.772  0.00  0.00    +0.000 A 
BRANCH  11  12
ATOM     12  N   UNL     1       3.397   3.989  18.834  0.00  0.00    +0.000 N 
ATOM     13  C   UNL     1       2.740   2.923  18.254  0.00  0.00    +0.000 A 
ATOM     14  N   UNL     1       3.300   1.786  18.596  0.00  0.00    +0.000 NA
ATOM     15  C   UNL     1       4.321   2.187  19.396  0.00  0.00    +0.000 A 
ATOM     16  N   UNL     1       4.433   3.505  19.558  0.00  0.00    +0.000 NA
ENDBRANCH  11  12
ENDBRANCH   1   8
BRANCH   3  17
ATOM     17  C   UNL     1       0.870  11.485  19.188  0.00  0.00    +0.000 A 
ATOM     18  C   UNL     1       1.666  12.512  19.640  0.00  0.00    +0.000 A 
ATOM     19  C   UNL     1       0.981  13.687  19.260  0.00  0.00    +0.000 A 
ATOM     20  N   UNL     1      -0.133  13.423  18.573  0.00  0.00    +0.000 NA
ATOM     21  N   UNL     1      -0.263  12.075  18.639  0.00  0.00    +0.000 N 
BRANCH  21  22
ATOM     22  C   UNL     1      -1.470  11.434  18.263  0.00  0.00    +0.000 A 
ATOM     23  C   UNL     1      -2.686  11.901  18.778  0.00  0.00    +0.000 A 
ATOM     24  C   UNL     1      -3.879  11.280  18.409  0.00  0.00    +0.000 A 
ATOM     25  C   UNL     1      -3.865  10.174  17.558  0.00  0.00    +0.000 A 
ATOM     26  C   UNL     1      -2.657   9.681  17.076  0.00  0.00    +0.000 A 
ATOM     27  C   UNL     1      -1.459  10.305  17.425  0.00  0.00    +0.000 A 
ENDBRANCH  21  22
BRANCH  19  28
ATOM     28  C   UNL     1       1.469  15.081  19.631  0.00  0.00    +0.000 C 
ATOM     29  C   UNL     1       1.126  16.219  18.680  0.00  0.00    +0.000 C 
ATOM     30  C   UNL     1       2.554  15.829  18.869  0.00  0.00    +0.000 C 
ATOM     31  C   UNL     1       3.327  15.269  17.724  0.00  0.00    +0.000 C 
ENDBRANCH  19  28
ENDBRANCH   3  17
TORSDOF 5
ENDMDL
MODEL 9
REMARK VINA RESULT:      -8.4      1.670      2.042
REMARK  Name = 
REMARK  7 active torsions:
REMARK  status: ('A' for Active; 'I' for Inactive)
REMARK    1  A    between atoms: C_1  and  C_2
REMARK    2  A    between atoms: C_4  and  C_5
REMARK    3  A    between atoms: N_7  and  C_8
REMARK    4  A    between atoms: C_10  and  C_11
REMARK    5  A    between atoms: C_13  and  C_14
REMARK    6  A    between atoms: N_16  and  C_17
REMARK    7  A    between atoms: C_25  and  N_26
REMARK                            x       y       z     vdW  Elec       q    Type
REMARK                         _______ _______ _______ _____ _____    ______ ____
ROOT
ATOM      1  C   UNL     1       2.770   6.996  19.110  0.00  0.00    +0.000 C 
ATOM      2  O   UNL     1       3.480   6.496  19.965  0.00  0.00    +0.000 OA
ATOM      3  N   UNL     1       2.868   6.580  17.743  0.00  0.00    +0.000 N 
ATOM      4  H   UNL     1       2.471   7.157  17.009  0.00  0.00    +0.000 HD
ENDROOT
BRANCH   1   8
ATOM      5  C   UNL     1      -0.131   9.579  22.260  0.00  0.00    +0.000 C 
ATOM      6  C   UNL     1       0.477   9.479  20.881  0.00  0.00    +0.000 A 
ATOM      7  C   UNL     1       1.289   8.348  20.627  0.00  0.00    +0.000 A 
ATOM      8  C   UNL     1       1.889   8.158  19.379  0.00  0.00    +0.000 A 
ATOM      9  C   UNL     1       1.668   9.084  18.360  0.00  0.00    +0.000 A 
ATOM     10  C   UNL     1       0.873  10.211  18.593  0.00  0.00    +0.000 A 
ATOM     11  C   UNL     1       0.290  10.443  19.855  0.00  0.00    +0.000 A 
BRANCH  11  12
ATOM     12  N   UNL     1      -0.435  11.662  20.061  0.00  0.00    +0.000 N 
ATOM     13  C   UNL     1      -1.765  11.929  19.806  0.00  0.00    +0.000 A 
ATOM     14  N   UNL     1      -2.047  13.186  20.060  0.00  0.00    +0.000 NA
ATOM     15  C   UNL     1      -0.853  13.678  20.481  0.00  0.00    +0.000 A 
ATOM     16  N   UNL     1       0.145  12.797  20.516  0.00  0.00    +0.000 NA
ENDBRANCH  11  12
ENDBRANCH   1   8
BRANCH   3  17
ATOM     17  C   UNL     1       3.782   5.597  17.358  0.00  0.00    +0.000 A 
ATOM     18  C   UNL     1       4.802   5.734  16.444  0.00  0.00    +0.000 A 
ATOM     19  C   UNL     1       5.503   4.510  16.508  0.00  0.00    +0.000 A 
ATOM     20  N   UNL     1       5.000   3.686  17.429  0.00  0.00    +0.000 NA
ATOM     21  N   UNL     1       3.871   4.303  17.859  0.00  0.00    +0.000 N 
BRANCH  21  22
ATOM     22  C   UNL     1       2.909   3.616  18.640  0.00  0.00    +0.000 A 
ATOM     23  C   UNL     1       1.668   3.293  18.077  0.00  0.00    +0.000 A 
ATOM     24  C   UNL     1       0.718   2.611  18.837  0.00  0.00    +0.000 A 
ATOM     25  C   UNL     1       0.984   2.280  20.167  0.00  0.00    +0.000 A 
ATOM     26  C   UNL     1       2.199   2.634  20.743  0.00  0.00    +0.000 A 
ATOM     27  C   UNL     1       3.163   3.300  19.987  0.00  0.00    +0.000 A 
ENDBRANCH  21  22
BRANCH  19  28
ATOM     28  C   UNL     1       6.680   4.188  15.596  0.00  0.00    +0.000 C 
ATOM     29  C   UNL     1       7.077   5.240  14.570  0.00  0.00    +0.000 C 
ATOM     30  C   UNL     1       6.546   3.926  14.103  0.00  0.00    +0.000 C 
ATOM     31  C   UNL     1       5.253   3.870  13.363  0.00  0.00    +0.000 C 
ENDBRANCH  19  28
ENDBRANCH   3  17
TORSDOF 5
ENDMDL
