MODEL 1
REMARK VINA RESULT:      -9.6      0.000      0.000
REMARK  Name = 
REMARK  5 active torsions:
REMARK  status: ('A' for Active; 'I' for Inactive)
REMARK    1  A    between atoms: C_1  and  N_2
REMARK    2  A    between atoms: C_8  and  N_9
REMARK    3  A    between atoms: C_10  and  C_12
REMARK    4  A    between atoms: N_17  and  C_18
REMARK    5  A    between atoms: C_18  and  C_19
REMARK                            x       y       z     vdW  Elec       q    Type
REMARK                         _______ _______ _______ _____ _____    ______ ____
ROOT
ATOM      1  N   UNL     1       2.201   7.542  19.518  0.00  0.00    +0.000 N 
ATOM      2  C   UNL     1       2.705   7.724  18.237  0.00  0.00    +0.000 C 
ATOM      3  O   UNL     1       2.585   8.711  17.520  0.00  0.00    +0.000 OA
ATOM      4  H   UNL     1       2.398   6.640  19.946  0.00  0.00    +0.000 HD
ENDROOT
BRANCH   1  12
ATOM      5  C   UNL     1      -2.194  13.261  20.933  0.00  0.00    +0.000 C 
ATOM      6  N   UNL     1      -1.343  12.099  20.967  0.00  0.00    +0.000 N 
ATOM      7  C   UNL     1      -0.898  11.483  22.101  0.00  0.00    +0.000 C 
ATOM      8  O   UNL     1      -1.117  11.754  23.269  0.00  0.00    +0.000 OA
ATOM      9  C   UNL     1      -0.053  10.375  21.657  0.00  0.00    +0.000 A 
ATOM     10  C   UNL     1       0.647   9.442  22.377  0.00  0.00    +0.000 A 
ATOM     11  C   UNL     1       1.389   8.505  21.650  0.00  0.00    +0.000 A 
ATOM     12  C   UNL     1       1.434   8.494  20.233  0.00  0.00    +0.000 A 
ATOM     13  C   UNL     1       0.699   9.461  19.529  0.00  0.00    +0.000 A 
ATOM     14  C   UNL     1      -0.027  10.380  20.273  0.00  0.00    +0.000 A 
ATOM     15  C   UNL     1      -0.862  11.498  19.834  0.00  0.00    +0.000 C 
ATOM     16  O   UNL     1      -1.048  11.787  18.671  0.00  0.00    +0.000 OA
ENDBRANCH   1  12
BRANCH   2  17
ATOM     17  C   UNL     1       3.489   6.556  17.657  0.00  0.00    +0.000 A 
ATOM     18  C   UNL     1       4.576   6.932  16.725  0.00  0.00    +0.000 A 
ATOM     19  C   UNL     1       5.293   5.942  16.203  0.00  0.00    +0.000 A 
ATOM     20  C   UNL     1       4.963   4.536  16.502  0.00  0.00    +0.000 A 
ATOM     21  O   UNL     1       5.614   3.652  15.950  0.00  0.00    +0.000 OA
ATOM     22  N   UNL     1       3.898   4.323  17.377  0.00  0.00    +0.000 N 
ATOM     23  N   UNL     1       3.164   5.342  17.980  0.00  0.00    +0.000 NA
BRANCH  22  24
ATOM     24  C   UNL     1       3.351   2.966  17.484  0.00  0.00    +0.000 C 
BRANCH  24  25
ATOM     25  C   UNL     1       2.654   2.787  18.817  0.00  0.00    +0.000 A 
ATOM     26  C   UNL     1       1.264   2.954  18.910  0.00  0.00    +0.000 A 
ATOM     27  C   UNL     1       0.647   3.057  20.156  0.00  0.00    +0.000 A 
ATOM     28  C   UNL     1       1.405   2.957  21.321  0.00  0.00    +0.000 A 
ATOM     29  C   UNL     1       2.773   2.704  21.241  0.00  0.00    +0.000 A 
ATOM     30  C   UNL     1       3.397   2.618  19.996  0.00  0.00    +0.000 A 
ENDBRANCH  24  25
ENDBRANCH  22  24
ENDBRANCH   2  17
TORSDOF 4
ENDMDL
MODEL 2
REMARK VINA RESULT:      -9.5      1.144      2.036
REMARK  Name = 
REMARK  5 active torsions:
REMARK  status: ('A' for Active; 'I' for Inactive)
REMARK    1  A    between atoms: C_1  and  N_2
REMARK    2  A    between atoms: C_8  and  N_9
REMARK    3  A    between atoms: C_10  and  C_12
REMARK    4  A    between atoms: N_17  and  C_18
REMARK    5  A    between atoms: C_18  and  C_19
REMARK                            x       y       z     vdW  Elec       q    Type
REMARK                         _______ _______ _______ _____ _____    ______ ____
ROOT
ATOM      1  N   UNL     1       2.155   8.083  19.190  0.00  0.00    +0.000 N 
ATOM      2  C   UNL     1       2.797   8.031  17.961  0.00  0.00    +0.000 C 
ATOM      3  O   UNL     1       2.650   8.789  17.009  0.00  0.00    +0.000 OA
ATOM      4  H   UNL     1       2.405   7.350  19.851  0.00  0.00    +0.000 HD
ENDROOT
BRANCH   1  12
ATOM      5  C   UNL     1      -2.256  12.237  23.352  0.00  0.00    +0.000 C 
ATOM      6  N   UNL     1      -1.512  11.591  22.300  0.00  0.00    +0.000 N 
ATOM      7  C   UNL     1      -1.680  11.818  20.965  0.00  0.00    +0.000 C 
ATOM      8  O   UNL     1      -2.443  12.580  20.396  0.00  0.00    +0.000 OA
ATOM      9  C   UNL     1      -0.738  10.934  20.280  0.00  0.00    +0.000 A 
ATOM     10  C   UNL     1      -0.495  10.750  18.943  0.00  0.00    +0.000 A 
ATOM     11  C   UNL     1       0.473   9.801  18.598  0.00  0.00    +0.000 A 
ATOM     12  C   UNL     1       1.187   9.047  19.563  0.00  0.00    +0.000 A 
ATOM     13  C   UNL     1       0.916   9.266  20.923  0.00  0.00    +0.000 A 
ATOM     14  C   UNL     1      -0.049  10.212  21.239  0.00  0.00    +0.000 A 
ATOM     15  C   UNL     1      -0.555  10.641  22.543  0.00  0.00    +0.000 C 
ATOM     16  O   UNL     1      -0.164  10.196  23.600  0.00  0.00    +0.000 OA
ENDBRANCH   1  12
BRANCH   2  17
ATOM     17  C   UNL     1       3.791   6.894  17.775  0.00  0.00    +0.000 A 
ATOM     18  C   UNL     1       4.508   6.893  16.480  0.00  0.00    +0.000 A 
ATOM     19  C   UNL     1       5.394   5.923  16.280  0.00  0.00    +0.000 A 
ATOM     20  C   UNL     1       5.592   4.867  17.291  0.00  0.00    +0.000 A 
ATOM     21  O   UNL     1       6.377   3.956  17.039  0.00  0.00    +0.000 OA
ATOM     22  N   UNL     1       4.833   4.976  18.457  0.00  0.00    +0.000 N 
ATOM     23  N   UNL     1       3.937   6.011  18.714  0.00  0.00    +0.000 NA
BRANCH  22  24
ATOM     24  C   UNL     1       4.779   3.818  19.357  0.00  0.00    +0.000 C 
BRANCH  24  25
ATOM     25  C   UNL     1       3.349   3.340  19.506  0.00  0.00    +0.000 A 
ATOM     26  C   UNL     1       2.650   2.859  18.388  0.00  0.00    +0.000 A 
ATOM     27  C   UNL     1       1.270   2.668  18.447  0.00  0.00    +0.000 A 
ATOM     28  C   UNL     1       0.580   2.920  19.632  0.00  0.00    +0.000 A 
ATOM     29  C   UNL     1       1.277   3.314  20.773  0.00  0.00    +0.000 A 
ATOM     30  C   UNL     1       2.656   3.523  20.712  0.00  0.00    +0.000 A 
ENDBRANCH  24  25
ENDBRANCH  22  24
ENDBRANCH   2  17
TORSDOF 4
ENDMDL
MODEL 3
REMARK VINA RESULT:      -9.3      1.879      2.074
REMARK  Name = 
REMARK  5 active torsions:
REMARK  status: ('A' for Active; 'I' for Inactive)
REMARK    1  A    between atoms: C_1  and  N_2
REMARK    2  A    between atoms: C_8  and  N_9
REMARK    3  A    between atoms: C_10  and  C_12
REMARK    4  A    between atoms: N_17  and  C_18
REMARK    5  A    between atoms: C_18  and  C_19
REMARK                            x       y       z     vdW  Elec       q    Type
REMARK                         _______ _______ _______ _____ _____    ______ ____
ROOT
ATOM      1  N   UNL     1       1.945   8.451  17.710  0.00  0.00    +0.000 N 
ATOM      2  C   UNL     1       2.527   7.512  18.551  0.00  0.00    +0.000 C 
ATOM      3  O   UNL     1       2.388   7.410  19.765  0.00  0.00    +0.000 OA
ATOM      4  H   UNL     1       2.197   8.378  16.727  0.00  0.00    +0.000 HD
ENDROOT
BRANCH   1  12
ATOM      5  C   UNL     1      -4.225  12.285  18.829  0.00  0.00    +0.000 C 
ATOM      6  N   UNL     1      -2.880  11.769  18.768  0.00  0.00    +0.000 N 
ATOM      7  C   UNL     1      -1.767  12.423  19.209  0.00  0.00    +0.000 C 
ATOM      8  O   UNL     1      -1.665  13.519  19.732  0.00  0.00    +0.000 OA
ATOM      9  C   UNL     1      -0.637  11.538  18.926  0.00  0.00    +0.000 A 
ATOM     10  C   UNL     1       0.705  11.702  19.156  0.00  0.00    +0.000 A 
ATOM     11  C   UNL     1       1.549  10.664  18.748  0.00  0.00    +0.000 A 
ATOM     12  C   UNL     1       1.070   9.484  18.124  0.00  0.00    +0.000 A 
ATOM     13  C   UNL     1      -0.310   9.349  17.911  0.00  0.00    +0.000 A 
ATOM     14  C   UNL     1      -1.127  10.393  18.324  0.00  0.00    +0.000 A 
ATOM     15  C   UNL     1      -2.578  10.549  18.223  0.00  0.00    +0.000 C 
ATOM     16  O   UNL     1      -3.315   9.721  17.734  0.00  0.00    +0.000 OA
ENDBRANCH   1  12
BRANCH   2  17
ATOM     17  C   UNL     1       3.449   6.501  17.887  0.00  0.00    +0.000 A 
ATOM     18  C   UNL     1       4.310   7.048  16.814  0.00  0.00    +0.000 A 
ATOM     19  C   UNL     1       5.140   6.200  16.214  0.00  0.00    +0.000 A 
ATOM     20  C   UNL     1       5.139   4.769  16.571  0.00  0.00    +0.000 A 
ATOM     21  O   UNL     1       5.880   4.011  15.949  0.00  0.00    +0.000 OA
ATOM     22  N   UNL     1       4.259   4.384  17.583  0.00  0.00    +0.000 N 
ATOM     23  N   UNL     1       3.418   5.260  18.265  0.00  0.00    +0.000 NA
BRANCH  22  24
ATOM     24  C   UNL     1       4.014   2.950  17.778  0.00  0.00    +0.000 C 
BRANCH  24  25
ATOM     25  C   UNL     1       3.042   2.737  18.920  0.00  0.00    +0.000 A 
ATOM     26  C   UNL     1       1.660   2.785  18.684  0.00  0.00    +0.000 A 
ATOM     27  C   UNL     1       0.763   2.858  19.749  0.00  0.00    +0.000 A 
ATOM     28  C   UNL     1       1.235   2.846  21.060  0.00  0.00    +0.000 A 
ATOM     29  C   UNL     1       2.600   2.711  21.308  0.00  0.00    +0.000 A 
ATOM     30  C   UNL     1       3.501   2.656  20.244  0.00  0.00    +0.000 A 
ENDBRANCH  24  25
ENDBRANCH  22  24
ENDBRANCH   2  17
TORSDOF 4
ENDMDL
MODEL 4
REMARK VINA RESULT:      -9.3      1.987      2.378
REMARK  Name = 
REMARK  5 active torsions:
REMARK  status: ('A' for Active; 'I' for Inactive)
REMARK    1  A    between atoms: C_1  and  N_2
REMARK    2  A    between atoms: C_8  and  N_9
REMARK    3  A    between atoms: C_10  and  C_12
REMARK    4  A    between atoms: N_17  and  C_18
REMARK    5  A    between atoms: C_18  and  C_19
REMARK                            x       y       z     vdW  Elec       q    Type
REMARK                         _______ _______ _______ _____ _____    ______ ____
ROOT
ATOM      1  N   UNL     1       2.417   8.597  17.595  0.00  0.00    +0.000 N 
ATOM      2  C   UNL     1       2.726   7.513  18.406  0.00  0.00    +0.000 C 
ATOM      3  O   UNL     1       2.413   7.344  19.579  0.00  0.00    +0.000 OA
ATOM      4  H   UNL     1       2.783   8.557  16.646  0.00  0.00    +0.000 HD
ENDROOT
BRANCH   1  12
ATOM      5  C   UNL     1       0.776  15.475  19.602  0.00  0.00    +0.000 C 
ATOM      6  N   UNL     1       0.787  14.082  19.231  0.00  0.00    +0.000 N 
ATOM      7  C   UNL     1      -0.298  13.256  19.246  0.00  0.00    +0.000 C 
ATOM      8  O   UNL     1      -1.454  13.498  19.548  0.00  0.00    +0.000 OA
ATOM      9  C   UNL     1       0.184  11.943  18.820  0.00  0.00    +0.000 A 
ATOM     10  C   UNL     1      -0.481  10.753  18.667  0.00  0.00    +0.000 A 
ATOM     11  C   UNL     1       0.276   9.652  18.255  0.00  0.00    +0.000 A 
ATOM     12  C   UNL     1       1.668   9.729  18.000  0.00  0.00    +0.000 A 
ATOM     13  C   UNL     1       2.314  10.964  18.162  0.00  0.00    +0.000 A 
ATOM     14  C   UNL     1       1.542  12.041  18.572  0.00  0.00    +0.000 A 
ATOM     15  C   UNL     1       1.926  13.428  18.841  0.00  0.00    +0.000 C 
ATOM     16  O   UNL     1       3.056  13.851  18.726  0.00  0.00    +0.000 OA
ENDBRANCH   1  12
BRANCH   2  17
ATOM     17  C   UNL     1       3.559   6.415  17.761  0.00  0.00    +0.000 A 
ATOM     18  C   UNL     1       4.488   6.870  16.703  0.00  0.00    +0.000 A 
ATOM     19  C   UNL     1       5.242   5.943  16.121  0.00  0.00    +0.000 A 
ATOM     20  C   UNL     1       5.096   4.521  16.483  0.00  0.00    +0.000 A 
ATOM     21  O   UNL     1       5.771   3.691  15.877  0.00  0.00    +0.000 OA
ATOM     22  N   UNL     1       4.165   4.227  17.479  0.00  0.00    +0.000 N 
ATOM     23  N   UNL     1       3.401   5.184  18.143  0.00  0.00    +0.000 NA
BRANCH  22  24
ATOM     24  C   UNL     1       3.779   2.825  17.674  0.00  0.00    +0.000 C 
BRANCH  24  25
ATOM     25  C   UNL     1       2.895   2.692  18.897  0.00  0.00    +0.000 A 
ATOM     26  C   UNL     1       1.503   2.821  18.775  0.00  0.00    +0.000 A 
ATOM     27  C   UNL     1       0.705   2.968  19.909  0.00  0.00    +0.000 A 
ATOM     28  C   UNL     1       1.283   2.948  21.176  0.00  0.00    +0.000 A 
ATOM     29  C   UNL     1       2.654   2.734  21.313  0.00  0.00    +0.000 A 
ATOM     30  C   UNL     1       3.458   2.605  20.180  0.00  0.00    +0.000 A 
ENDBRANCH  24  25
ENDBRANCH  22  24
ENDBRANCH   2  17
TORSDOF 4
ENDMDL
MODEL 5
REMARK VINA RESULT:      -9.2      0.965      2.020
REMARK  Name = 
REMARK  5 active torsions:
REMARK  status: ('A' for Active; 'I' for Inactive)
REMARK    1  A    between atoms: C_1  and  N_2
REMARK    2  A    between atoms: C_8  and  N_9
REMARK    3  A    between atoms: C_10  and  C_12
REMARK    4  A    between atoms: N_17  and  C_18
REMARK    5  A    between atoms: C_18  and  C_19
REMARK                            x       y       z     vdW  Elec       q    Type
REMARK                         _______ _______ _______ _____ _____    ______ ____
ROOT
ATOM      1  N   UNL     1       1.977   8.005  18.933  0.00  0.00    +0.000 N 
ATOM      2  C   UNL     1       2.775   8.091  17.801  0.00  0.00    +0.000 C 
ATOM      3  O   UNL     1       2.867   9.033  17.020  0.00  0.00    +0.000 OA
ATOM      4  H   UNL     1       2.032   7.129  19.446  0.00  0.00    +0.000 HD
ENDROOT
BRANCH   1  12
ATOM      5  C   UNL     1      -1.946  12.260  23.465  0.00  0.00    +0.000 C 
ATOM      6  N   UNL     1      -1.292  11.616  22.353  0.00  0.00    +0.000 N 
ATOM      7  C   UNL     1      -1.486  11.927  21.039  0.00  0.00    +0.000 C 
ATOM      8  O   UNL     1      -2.205  12.775  20.539  0.00  0.00    +0.000 OA
ATOM      9  C   UNL     1      -0.642  11.010  20.275  0.00  0.00    +0.000 A 
ATOM     10  C   UNL     1      -0.459  10.880  18.922  0.00  0.00    +0.000 A 
ATOM     11  C   UNL     1       0.418   9.879  18.493  0.00  0.00    +0.000 A 
ATOM     12  C   UNL     1       1.102   9.021  19.391  0.00  0.00    +0.000 A 
ATOM     13  C   UNL     1       0.895   9.186  20.769  0.00  0.00    +0.000 A 
ATOM     14  C   UNL     1       0.020  10.186  21.169  0.00  0.00    +0.000 A 
ATOM     15  C   UNL     1      -0.406  10.583  22.511  0.00  0.00    +0.000 C 
ATOM     16  O   UNL     1      -0.015  10.053  23.529  0.00  0.00    +0.000 OA
ENDBRANCH   1  12
BRANCH   2  17
ATOM     17  C   UNL     1       3.627   6.869  17.491  0.00  0.00    +0.000 A 
ATOM     18  C   UNL     1       4.820   7.131  16.654  0.00  0.00    +0.000 A 
ATOM     19  C   UNL     1       5.598   6.092  16.368  0.00  0.00    +0.000 A 
ATOM     20  C   UNL     1       5.234   4.736  16.819  0.00  0.00    +0.000 A 
ATOM     21  O   UNL     1       5.951   3.796  16.481  0.00  0.00    +0.000 OA
ATOM     22  N   UNL     1       4.070   4.627  17.580  0.00  0.00    +0.000 N 
ATOM     23  N   UNL     1       3.266   5.706  17.939  0.00  0.00    +0.000 NA
BRANCH  22  24
ATOM     24  C   UNL     1       3.516   3.287  17.808  0.00  0.00    +0.000 C 
BRANCH  24  25
ATOM     25  C   UNL     1       2.750   3.255  19.116  0.00  0.00    +0.000 A 
ATOM     26  C   UNL     1       3.424   2.985  20.316  0.00  0.00    +0.000 A 
ATOM     27  C   UNL     1       2.708   2.690  21.476  0.00  0.00    +0.000 A 
ATOM     28  C   UNL     1       1.315   2.699  21.458  0.00  0.00    +0.000 A 
ATOM     29  C   UNL     1       0.636   3.052  20.293  0.00  0.00    +0.000 A 
ATOM     30  C   UNL     1       1.349   3.330  19.126  0.00  0.00    +0.000 A 
ENDBRANCH  24  25
ENDBRANCH  22  24
ENDBRANCH   2  17
TORSDOF 4
ENDMDL
MODEL 6
REMARK VINA RESULT:      -9.2      2.021      3.739
REMARK  Name = 
REMARK  5 active torsions:
REMARK  status: ('A' for Active; 'I' for Inactive)
REMARK    1  A    between atoms: C_1  and  N_2
REMARK    2  A    between atoms: C_8  and  N_9
REMARK    3  A    between atoms: C_10  and  C_12
REMARK    4  A    between atoms: N_17  and  C_18
REMARK    5  A    between atoms: C_18  and  C_19
REMARK                            x       y       z     vdW  Elec       q    Type
REMARK                         _______ _______ _______ _____ _____    ______ ____
ROOT
ATOM      1  N   UNL     1       1.321   7.795  21.056  0.00  0.00    +0.000 N 
ATOM      2  C   UNL     1       1.933   7.622  19.823  0.00  0.00    +0.000 C 
ATOM      3  O   UNL     1       2.048   8.448  18.924  0.00  0.00    +0.000 OA
ATOM      4  H   UNL     1       1.315   6.980  21.665  0.00  0.00    +0.000 HD
ENDROOT
BRANCH   1  12
ATOM      5  C   UNL     1      -0.526  14.896  21.503  0.00  0.00    +0.000 C 
ATOM      6  N   UNL     1      -0.372  13.470  21.649  0.00  0.00    +0.000 N 
ATOM      7  C   UNL     1      -0.960  12.711  22.619  0.00  0.00    +0.000 C 
ATOM      8  O   UNL     1      -1.711  13.046  23.519  0.00  0.00    +0.000 OA
ATOM      9  C   UNL     1      -0.506  11.340  22.393  0.00  0.00    +0.000 A 
ATOM     10  C   UNL     1      -0.783  10.183  23.074  0.00  0.00    +0.000 A 
ATOM     11  C   UNL     1      -0.170   9.013  22.615  0.00  0.00    +0.000 A 
ATOM     12  C   UNL     1       0.702   8.991  21.498  0.00  0.00    +0.000 A 
ATOM     13  C   UNL     1       0.958  10.193  20.820  0.00  0.00    +0.000 A 
ATOM     14  C   UNL     1       0.339  11.340  21.296  0.00  0.00    +0.000 A 
ATOM     15  C   UNL     1       0.422  12.721  20.821  0.00  0.00    +0.000 C 
ATOM     16  O   UNL     1       1.090  13.071  19.872  0.00  0.00    +0.000 OA
ENDBRANCH   1  12
BRANCH   2  17
ATOM     17  C   UNL     1       2.519   6.244  19.556  0.00  0.00    +0.000 A 
ATOM     18  C   UNL     1       2.287   5.247  20.626  0.00  0.00    +0.000 A 
ATOM     19  C   UNL     1       2.774   4.025  20.428  0.00  0.00    +0.000 A 
ATOM     20  C   UNL     1       3.562   3.717  19.220  0.00  0.00    +0.000 A 
ATOM     21  O   UNL     1       4.044   2.592  19.108  0.00  0.00    +0.000 OA
ATOM     22  N   UNL     1       3.725   4.757  18.305  0.00  0.00    +0.000 N 
ATOM     23  N   UNL     1       3.181   6.030  18.461  0.00  0.00    +0.000 NA
BRANCH  22  24
ATOM     24  C   UNL     1       4.724   4.593  17.242  0.00  0.00    +0.000 C 
BRANCH  24  25
ATOM     25  C   UNL     1       5.987   5.353  17.592  0.00  0.00    +0.000 A 
ATOM     26  C   UNL     1       6.738   4.984  18.719  0.00  0.00    +0.000 A 
ATOM     27  C   UNL     1       7.740   5.823  19.205  0.00  0.00    +0.000 A 
ATOM     28  C   UNL     1       8.028   7.019  18.551  0.00  0.00    +0.000 A 
ATOM     29  C   UNL     1       7.347   7.353  17.381  0.00  0.00    +0.000 A 
ATOM     30  C   UNL     1       6.332   6.524  16.902  0.00  0.00    +0.000 A 
ENDBRANCH  24  25
ENDBRANCH  22  24
ENDBRANCH   2  17
TORSDOF 4
ENDMDL
MODEL 7
REMARK VINA RESULT:      -9.1      2.694      4.384
REMARK  Name = 
REMARK  5 active torsions:
REMARK  status: ('A' for Active; 'I' for Inactive)
REMARK    1  A    between atoms: C_1  and  N_2
REMARK    2  A    between atoms: C_8  and  N_9
REMARK    3  A    between atoms: C_10  and  C_12
REMARK    4  A    between atoms: N_17  and  C_18
REMARK    5  A    between atoms: C_18  and  C_19
REMARK                            x       y       z     vdW  Elec       q    Type
REMARK                         _______ _______ _______ _____ _____    ______ ____
ROOT
ATOM      1  N   UNL     1       1.853   8.559  18.028  0.00  0.00    +0.000 N 
ATOM      2  C   UNL     1       2.166   7.640  19.021  0.00  0.00    +0.000 C 
ATOM      3  O   UNL     1       2.084   7.795  20.235  0.00  0.00    +0.000 OA
ATOM      4  H   UNL     1       2.002   8.244  17.072  0.00  0.00    +0.000 HD
ENDROOT
BRANCH   1  12
ATOM      5  C   UNL     1       1.770  15.859  18.882  0.00  0.00    +0.000 C 
ATOM      6  N   UNL     1       1.475  14.454  18.753  0.00  0.00    +0.000 N 
ATOM      7  C   UNL     1       0.248  13.888  18.940  0.00  0.00    +0.000 C 
ATOM      8  O   UNL     1      -0.814  14.412  19.229  0.00  0.00    +0.000 OA
ATOM      9  C   UNL     1       0.426  12.452  18.730  0.00  0.00    +0.000 A 
ATOM     10  C   UNL     1      -0.475  11.420  18.799  0.00  0.00    +0.000 A 
ATOM     11  C   UNL     1       0.016  10.132  18.560  0.00  0.00    +0.000 A 
ATOM     12  C   UNL     1       1.376   9.873  18.256  0.00  0.00    +0.000 A 
ATOM     13  C   UNL     1       2.268  10.954  18.188  0.00  0.00    +0.000 A 
ATOM     14  C   UNL     1       1.757  12.221  18.430  0.00  0.00    +0.000 A 
ATOM     15  C   UNL     1       2.430  13.521  18.448  0.00  0.00    +0.000 C 
ATOM     16  O   UNL     1       3.614  13.672  18.231  0.00  0.00    +0.000 OA
ENDBRANCH   1  12
BRANCH   2  17
ATOM     17  C   UNL     1       2.678   6.290  18.543  0.00  0.00    +0.000 A 
ATOM     18  C   UNL     1       2.113   5.119  19.250  0.00  0.00    +0.000 A 
ATOM     19  C   UNL     1       2.526   3.918  18.856  0.00  0.00    +0.000 A 
ATOM     20  C   UNL     1       3.551   3.784  17.804  0.00  0.00    +0.000 A 
ATOM     21  O   UNL     1       3.947   2.657  17.513  0.00  0.00    +0.000 OA
ATOM     22  N   UNL     1       4.016   4.971  17.238  0.00  0.00    +0.000 N 
ATOM     23  N   UNL     1       3.562   6.239  17.594  0.00  0.00    +0.000 NA
BRANCH  22  24
ATOM     24  C   UNL     1       5.222   4.914  16.403  0.00  0.00    +0.000 C 
BRANCH  24  25
ATOM     25  C   UNL     1       6.377   5.597  17.107  0.00  0.00    +0.000 A 
ATOM     26  C   UNL     1       6.968   4.997  18.229  0.00  0.00    +0.000 A 
ATOM     27  C   UNL     1       7.840   5.722  19.040  0.00  0.00    +0.000 A 
ATOM     28  C   UNL     1       8.159   7.040  18.719  0.00  0.00    +0.000 A 
ATOM     29  C   UNL     1       7.645   7.618  17.559  0.00  0.00    +0.000 A 
ATOM     30  C   UNL     1       6.758   6.900  16.755  0.00  0.00    +0.000 A 
ENDBRANCH  24  25
ENDBRANCH  22  24
ENDBRANCH   2  17
TORSDOF 4
ENDMDL
MODEL 8
REMARK VINA RESULT:      -9.1      1.907      3.740
REMARK  Name = 
REMARK  5 active torsions:
REMARK  status: ('A' for Active; 'I' for Inactive)
REMARK    1  A    between atoms: C_1  and  N_2
REMARK    2  A    between atoms: C_8  and  N_9
REMARK    3  A    between atoms: C_10  and  C_12
REMARK    4  A    between atoms: N_17  and  C_18
REMARK    5  A    between atoms: C_18  and  C_19
REMARK                            x       y       z     vdW  Elec       q    Type
REMARK                         _______ _______ _______ _____ _____    ______ ____
ROOT
ATOM      1  N   UNL     1       1.316   7.765  21.340  0.00  0.00    +0.000 N 
ATOM      2  C   UNL     1       1.887   7.464  20.111  0.00  0.00    +0.000 C 
ATOM      3  O   UNL     1       1.967   8.189  19.126  0.00  0.00    +0.000 OA
ATOM      4  H   UNL     1       1.337   7.019  22.031  0.00  0.00    +0.000 HD
ENDROOT
BRANCH   1  12
ATOM      5  C   UNL     1      -0.360  14.922  21.259  0.00  0.00    +0.000 C 
ATOM      6  N   UNL     1      -0.254  13.504  21.498  0.00  0.00    +0.000 N 
ATOM      7  C   UNL     1      -0.917  12.819  22.473  0.00  0.00    +0.000 C 
ATOM      8  O   UNL     1      -1.710  13.224  23.306  0.00  0.00    +0.000 OA
ATOM      9  C   UNL     1      -0.488  11.426  22.355  0.00  0.00    +0.000 A 
ATOM     10  C   UNL     1      -0.836  10.319  23.086  0.00  0.00    +0.000 A 
ATOM     11  C   UNL     1      -0.229   9.109  22.732  0.00  0.00    +0.000 A 
ATOM     12  C   UNL     1       0.706   8.999  21.673  0.00  0.00    +0.000 A 
ATOM     13  C   UNL     1       1.033  10.152  20.942  0.00  0.00    +0.000 A 
ATOM     14  C   UNL     1       0.419  11.340  21.313  0.00  0.00    +0.000 A 
ATOM     15  C   UNL     1       0.566  12.688  20.763  0.00  0.00    +0.000 C 
ATOM     16  O   UNL     1       1.298  12.965  19.837  0.00  0.00    +0.000 OA
ENDBRANCH   1  12
BRANCH   2  17
ATOM     17  C   UNL     1       2.472   6.066  19.972  0.00  0.00    +0.000 A 
ATOM     18  C   UNL     1       1.635   4.978  20.526  0.00  0.00    +0.000 A 
ATOM     19  C   UNL     1       2.104   3.739  20.416  0.00  0.00    +0.000 A 
ATOM     20  C   UNL     1       3.432   3.489  19.824  0.00  0.00    +0.000 A 
ATOM     21  O   UNL     1       3.852   2.334  19.798  0.00  0.00    +0.000 OA
ATOM     22  N   UNL     1       4.126   4.608  19.364  0.00  0.00    +0.000 N 
ATOM     23  N   UNL     1       3.635   5.910  19.418  0.00  0.00    +0.000 NA
BRANCH  22  24
ATOM     24  C   UNL     1       5.547   4.453  19.034  0.00  0.00    +0.000 C 
BRANCH  24  25
ATOM     25  C   UNL     1       5.761   4.649  17.546  0.00  0.00    +0.000 A 
ATOM     26  C   UNL     1       4.845   4.113  16.629  0.00  0.00    +0.000 A 
ATOM     27  C   UNL     1       5.158   4.051  15.272  0.00  0.00    +0.000 A 
ATOM     28  C   UNL     1       6.373   4.556  14.813  0.00  0.00    +0.000 A 
ATOM     29  C   UNL     1       7.254   5.168  15.703  0.00  0.00    +0.000 A 
ATOM     30  C   UNL     1       6.951   5.216  17.064  0.00  0.00    +0.000 A 
ENDBRANCH  24  25
ENDBRANCH  22  24
ENDBRANCH   2  17
TORSDOF 4
ENDMDL
MODEL 9
REMARK VINA RESULT:      -9.0      1.753      3.721
REMARK  Name = 
REMARK  5 active torsions:
REMARK  status: ('A' for Active; 'I' for Inactive)
REMARK    1  A    between atoms: C_1  and  N_2
REMARK    2  A    between atoms: C_8  and  N_9
REMARK    3  A    between atoms: C_10  and  C_12
REMARK    4  A    between atoms: N_17  and  C_18
REMARK    5  A    between atoms: C_18  and  C_19
REMARK                            x       y       z     vdW  Elec       q    Type
REMARK                         _______ _______ _______ _____ _____    ______ ____
ROOT
ATOM      1  N   UNL     1       1.261   7.770  21.231  0.00  0.00    +0.000 N 
ATOM      2  C   UNL     1       1.897   7.505  20.027  0.00  0.00    +0.000 C 
ATOM      3  O   UNL     1       1.990   8.244  19.053  0.00  0.00    +0.000 OA
ATOM      4  H   UNL     1       1.281   7.018  21.916  0.00  0.00    +0.000 HD
ENDROOT
BRANCH   1  12
ATOM      5  C   UNL     1      -1.430  14.583  20.620  0.00  0.00    +0.000 C 
ATOM      6  N   UNL     1      -1.051  13.250  21.018  0.00  0.00    +0.000 N 
ATOM      7  C   UNL     1      -1.312  12.688  22.233  0.00  0.00    +0.000 C 
ATOM      8  O   UNL     1      -1.899  13.153  23.194  0.00  0.00    +0.000 OA
ATOM      9  C   UNL     1      -0.727  11.348  22.195  0.00  0.00    +0.000 A 
ATOM     10  C   UNL     1      -0.692  10.361  23.147  0.00  0.00    +0.000 A 
ATOM     11  C   UNL     1      -0.030   9.177  22.809  0.00  0.00    +0.000 A 
ATOM     12  C   UNL     1       0.586   8.974  21.548  0.00  0.00    +0.000 A 
ATOM     13  C   UNL     1       0.524  10.004  20.596  0.00  0.00    +0.000 A 
ATOM     14  C   UNL     1      -0.137  11.169  20.956  0.00  0.00    +0.000 A 
ATOM     15  C   UNL     1      -0.350  12.404  20.200  0.00  0.00    +0.000 C 
ATOM     16  O   UNL     1       0.051  12.582  19.070  0.00  0.00    +0.000 OA
ENDBRANCH   1  12
BRANCH   2  17
ATOM     17  C   UNL     1       2.544   6.134  19.901  0.00  0.00    +0.000 A 
ATOM     18  C   UNL     1       1.748   5.012  20.447  0.00  0.00    +0.000 A 
ATOM     19  C   UNL     1       2.273   3.795  20.349  0.00  0.00    +0.000 A 
ATOM     20  C   UNL     1       3.618   3.601  19.776  0.00  0.00    +0.000 A 
ATOM     21  O   UNL     1       4.089   2.466  19.760  0.00  0.00    +0.000 OA
ATOM     22  N   UNL     1       4.269   4.748  19.321  0.00  0.00    +0.000 N 
ATOM     23  N   UNL     1       3.721   6.028  19.364  0.00  0.00    +0.000 NA
BRANCH  22  24
ATOM     24  C   UNL     1       5.700   4.654  19.011  0.00  0.00    +0.000 C 
BRANCH  24  25
ATOM     25  C   UNL     1       5.901   4.482  17.519  0.00  0.00    +0.000 A 
ATOM     26  C   UNL     1       7.177   4.645  16.960  0.00  0.00    +0.000 A 
ATOM     27  C   UNL     1       7.334   4.753  15.578  0.00  0.00    +0.000 A 
ATOM     28  C   UNL     1       6.224   4.664  14.741  0.00  0.00    +0.000 A 
ATOM     29  C   UNL     1       4.963   4.415  15.281  0.00  0.00    +0.000 A 
ATOM     30  C   UNL     1       4.800   4.324  16.664  0.00  0.00    +0.000 A 
ENDBRANCH  24  25
ENDBRANCH  22  24
ENDBRANCH   2  17
TORSDOF 4
ENDMDL
