MODEL 1
REMARK VINA RESULT:      -8.3      0.000      0.000
REMARK  Name = 
REMARK  5 active torsions:
REMARK  status: ('A' for Active; 'I' for Inactive)
REMARK    1  A    between atoms: C_2  and  C_18
REMARK    2  A    between atoms: N_3  and  C_4
REMARK    3  A    between atoms: C_7  and  O_8
REMARK    4  A    between atoms: O_8  and  C_9
REMARK    5  A    between atoms: C_9  and  C_10
REMARK                            x       y       z     vdW  Elec       q    Type
REMARK                         _______ _______ _______ _____ _____    ______ ____
ROOT
ATOM      1  O   UNL     1       8.532   7.338  19.116  0.00  0.00    +0.000 OA
ATOM      2  C   UNL     1       8.246   8.140  18.231  0.00  0.00    +0.000 C 
ATOM      3  N   UNL     1       7.294   7.962  17.243  0.00  0.00    +0.000 N 
ATOM      4  H   UNL     1       7.249   8.704  16.553  0.00  0.00    +0.000 HD
ENDROOT
BRANCH   2   5
ATOM      5  C   UNL     1       8.872   9.550  18.197  0.00  0.00    +0.000 C 
ATOM      6  C   UNL     1       7.969  10.514  17.417  0.00  0.00    +0.000 C 
ATOM      7  O   UNL     1       8.133  11.911  17.696  0.00  0.00    +0.000 OA
ATOM      8  C   UNL     1       9.202  12.190  18.495  0.00  0.00    +0.000 A 
ATOM      9  C   UNL     1       9.774  13.454  18.378  0.00  0.00    +0.000 A 
ATOM     10  C   UNL     1      10.912  13.768  19.121  0.00  0.00    +0.000 A 
ATOM     11  C   UNL     1      11.440  12.836  20.018  0.00  0.00    +0.000 A 
ATOM     12  C   UNL     1      10.830  11.590  20.178  0.00  0.00    +0.000 A 
ATOM     13  C   UNL     1       9.725  11.266  19.397  0.00  0.00    +0.000 A 
ATOM     14  O   UNL     1       9.178  10.015  19.516  0.00  0.00    +0.000 OA
ENDBRANCH   2   5
BRANCH   3  15
ATOM     15  C   UNL     1       6.399   6.880  17.072  0.00  0.00    +0.000 A 
ATOM     16  C   UNL     1       6.784   5.586  16.735  0.00  0.00    +0.000 A 
ATOM     17  C   UNL     1       5.826   4.560  16.651  0.00  0.00    +0.000 A 
ATOM     18  C   UNL     1       4.481   4.819  16.916  0.00  0.00    +0.000 A 
ATOM     19  C   UNL     1       4.087   6.123  17.205  0.00  0.00    +0.000 A 
ATOM     20  C   UNL     1       5.045   7.145  17.291  0.00  0.00    +0.000 A 
BRANCH  18  21
ATOM     21  O   UNL     1       3.648   3.731  16.862  0.00  0.00    +0.000 OA
BRANCH  21  22
ATOM     22  C   UNL     1       3.907   2.703  17.823  0.00  0.00    +0.000 C 
BRANCH  22  23
ATOM     23  C   UNL     1       3.011   2.876  19.028  0.00  0.00    +0.000 A 
ATOM     24  C   UNL     1       1.665   3.232  18.862  0.00  0.00    +0.000 A 
ATOM     25  C   UNL     1       0.812   3.323  19.963  0.00  0.00    +0.000 A 
ATOM     26  C   UNL     1       1.296   3.056  21.242  0.00  0.00    +0.000 A 
ATOM     27  C   UNL     1       2.630   2.697  21.421  0.00  0.00    +0.000 A 
ATOM     28  C   UNL     1       3.485   2.605  20.321  0.00  0.00    +0.000 A 
ENDBRANCH  22  23
ENDBRANCH  21  22
ENDBRANCH  18  21
ENDBRANCH   3  15
TORSDOF 5
ENDMDL
MODEL 2
REMARK VINA RESULT:      -8.2      5.372      8.096
REMARK  Name = 
REMARK  5 active torsions:
REMARK  status: ('A' for Active; 'I' for Inactive)
REMARK    1  A    between atoms: C_2  and  C_18
REMARK    2  A    between atoms: N_3  and  C_4
REMARK    3  A    between atoms: C_7  and  O_8
REMARK    4  A    between atoms: O_8  and  C_9
REMARK    5  A    between atoms: C_9  and  C_10
REMARK                            x       y       z     vdW  Elec       q    Type
REMARK                         _______ _______ _______ _____ _____    ______ ____
ROOT
ATOM      1  O   UNL     1       2.204   9.740  17.211  0.00  0.00    +0.000 OA
ATOM      2  C   UNL     1       1.825   9.227  18.261  0.00  0.00    +0.000 C 
ATOM      3  N   UNL     1       2.077   7.930  18.675  0.00  0.00    +0.000 N 
ATOM      4  H   UNL     1       1.617   7.661  19.539  0.00  0.00    +0.000 HD
ENDROOT
BRANCH   2   5
ATOM      5  C   UNL     1       1.088  10.055  19.334  0.00  0.00    +0.000 C 
ATOM      6  C   UNL     1       0.300  11.195  18.676  0.00  0.00    +0.000 C 
ATOM      7  O   UNL     1      -0.794  11.735  19.431  0.00  0.00    +0.000 OA
ATOM      8  C   UNL     1      -0.863  11.267  20.710  0.00  0.00    +0.000 A 
ATOM      9  C   UNL     1      -1.479  12.082  21.655  0.00  0.00    +0.000 A 
ATOM     10  C   UNL     1      -1.515  11.683  22.991  0.00  0.00    +0.000 A 
ATOM     11  C   UNL     1      -0.985  10.446  23.366  0.00  0.00    +0.000 A 
ATOM     12  C   UNL     1      -0.420   9.603  22.406  0.00  0.00    +0.000 A 
ATOM     13  C   UNL     1      -0.343  10.030  21.084  0.00  0.00    +0.000 A 
ATOM     14  O   UNL     1       0.274   9.221  20.166  0.00  0.00    +0.000 OA
ENDBRANCH   2   5
BRANCH   3  15
ATOM     15  C   UNL     1       2.870   6.946  18.043  0.00  0.00    +0.000 A 
ATOM     16  C   UNL     1       4.056   7.207  17.364  0.00  0.00    +0.000 A 
ATOM     17  C   UNL     1       4.811   6.152  16.822  0.00  0.00    +0.000 A 
ATOM     18  C   UNL     1       4.392   4.829  16.967  0.00  0.00    +0.000 A 
ATOM     19  C   UNL     1       3.181   4.569  17.603  0.00  0.00    +0.000 A 
ATOM     20  C   UNL     1       2.429   5.624  18.145  0.00  0.00    +0.000 A 
BRANCH  18  21
ATOM     21  O   UNL     1       5.237   3.881  16.450  0.00  0.00    +0.000 OA
BRANCH  21  22
ATOM     22  C   UNL     1       6.540   4.345  16.084  0.00  0.00    +0.000 C 
BRANCH  22  23
ATOM     23  C   UNL     1       6.684   4.367  14.580  0.00  0.00    +0.000 A 
ATOM     24  C   UNL     1       7.621   5.215  13.973  0.00  0.00    +0.000 A 
ATOM     25  C   UNL     1       7.812   5.190  12.590  0.00  0.00    +0.000 A 
ATOM     26  C   UNL     1       7.068   4.315  11.800  0.00  0.00    +0.000 A 
ATOM     27  C   UNL     1       6.136   3.464  12.391  0.00  0.00    +0.000 A 
ATOM     28  C   UNL     1       5.945   3.487  13.774  0.00  0.00    +0.000 A 
ENDBRANCH  22  23
ENDBRANCH  21  22
ENDBRANCH  18  21
ENDBRANCH   3  15
TORSDOF 5
ENDMDL
MODEL 3
REMARK VINA RESULT:      -7.7      5.618      8.164
REMARK  Name = 
REMARK  5 active torsions:
REMARK  status: ('A' for Active; 'I' for Inactive)
REMARK    1  A    between atoms: C_2  and  C_18
REMARK    2  A    between atoms: N_3  and  C_4
REMARK    3  A    between atoms: C_7  and  O_8
REMARK    4  A    between atoms: O_8  and  C_9
REMARK    5  A    between atoms: C_9  and  C_10
REMARK                            x       y       z     vdW  Elec       q    Type
REMARK                         _______ _______ _______ _____ _____    ______ ____
ROOT
ATOM      1  O   UNL     1       1.851   9.475  17.561  0.00  0.00    +0.000 OA
ATOM      2  C   UNL     1       1.552   8.872  18.588  0.00  0.00    +0.000 C 
ATOM      3  N   UNL     1       2.021   7.628  18.972  0.00  0.00    +0.000 N 
ATOM      4  H   UNL     1       1.603   7.256  19.818  0.00  0.00    +0.000 HD
ENDROOT
BRANCH   2   5
ATOM      5  C   UNL     1       0.664   9.526  19.668  0.00  0.00    +0.000 C 
ATOM      6  C   UNL     1       1.211   9.211  21.067  0.00  0.00    +0.000 C 
ATOM      7  O   UNL     1       0.825  10.105  22.120  0.00  0.00    +0.000 OA
ATOM      8  C   UNL     1      -0.123  11.013  21.751  0.00  0.00    +0.000 A 
ATOM      9  C   UNL     1      -0.943  11.522  22.753  0.00  0.00    +0.000 A 
ATOM     10  C   UNL     1      -1.974  12.400  22.421  0.00  0.00    +0.000 A 
ATOM     11  C   UNL     1      -2.144  12.809  21.095  0.00  0.00    +0.000 A 
ATOM     12  C   UNL     1      -1.283  12.343  20.100  0.00  0.00    +0.000 A 
ATOM     13  C   UNL     1      -0.288  11.428  20.432  0.00  0.00    +0.000 A 
ATOM     14  O   UNL     1       0.507  10.929  19.433  0.00  0.00    +0.000 OA
ENDBRANCH   2   5
BRANCH   3  15
ATOM     15  C   UNL     1       2.984   6.817  18.329  0.00  0.00    +0.000 A 
ATOM     16  C   UNL     1       4.018   7.303  17.535  0.00  0.00    +0.000 A 
ATOM     17  C   UNL     1       4.968   6.422  16.989  0.00  0.00    +0.000 A 
ATOM     18  C   UNL     1       4.898   5.052  17.246  0.00  0.00    +0.000 A 
ATOM     19  C   UNL     1       3.837   4.558  18.000  0.00  0.00    +0.000 A 
ATOM     20  C   UNL     1       2.891   5.440  18.546  0.00  0.00    +0.000 A 
BRANCH  18  21
ATOM     21  O   UNL     1       5.911   4.298  16.712  0.00  0.00    +0.000 OA
BRANCH  21  22
ATOM     22  C   UNL     1       6.936   5.028  16.030  0.00  0.00    +0.000 C 
BRANCH  22  23
ATOM     23  C   UNL     1       6.881   4.743  14.547  0.00  0.00    +0.000 A 
ATOM     24  C   UNL     1       7.744   5.411  13.667  0.00  0.00    +0.000 A 
ATOM     25  C   UNL     1       7.752   5.102  12.306  0.00  0.00    +0.000 A 
ATOM     26  C   UNL     1       6.897   4.121  11.810  0.00  0.00    +0.000 A 
ATOM     27  C   UNL     1       6.036   3.446  12.673  0.00  0.00    +0.000 A 
ATOM     28  C   UNL     1       6.028   3.753  14.035  0.00  0.00    +0.000 A 
ENDBRANCH  22  23
ENDBRANCH  21  22
ENDBRANCH  18  21
ENDBRANCH   3  15
TORSDOF 5
ENDMDL
MODEL 4
REMARK VINA RESULT:      -7.7      7.430     10.620
REMARK  Name = 
REMARK  5 active torsions:
REMARK  status: ('A' for Active; 'I' for Inactive)
REMARK    1  A    between atoms: C_2  and  C_18
REMARK    2  A    between atoms: N_3  and  C_4
REMARK    3  A    between atoms: C_7  and  O_8
REMARK    4  A    between atoms: O_8  and  C_9
REMARK    5  A    between atoms: C_9  and  C_10
REMARK                            x       y       z     vdW  Elec       q    Type
REMARK                         _______ _______ _______ _____ _____    ______ ____
ROOT
ATOM      1  O   UNL     1       1.876   8.434  18.880  0.00  0.00    +0.000 OA
ATOM      2  C   UNL     1       1.907   7.708  19.870  0.00  0.00    +0.000 C 
ATOM      3  N   UNL     1       1.468   8.037  21.140  0.00  0.00    +0.000 N 
ATOM      4  H   UNL     1       1.644   7.334  21.850  0.00  0.00    +0.000 HD
ENDROOT
BRANCH   2   5
ATOM      5  C   UNL     1       2.358   6.235  19.767  0.00  0.00    +0.000 C 
ATOM      6  C   UNL     1       1.610   5.378  20.795  0.00  0.00    +0.000 C 
ATOM      7  O   UNL     1       1.534   3.972  20.521  0.00  0.00    +0.000 OA
ATOM      8  C   UNL     1       2.298   3.576  19.463  0.00  0.00    +0.000 A 
ATOM      9  C   UNL     1       2.737   2.256  19.451  0.00  0.00    +0.000 A 
ATOM     10  C   UNL     1       3.579   1.817  18.429  0.00  0.00    +0.000 A 
ATOM     11  C   UNL     1       3.933   2.687  17.394  0.00  0.00    +0.000 A 
ATOM     12  C   UNL     1       3.444   3.995  17.376  0.00  0.00    +0.000 A 
ATOM     13  C   UNL     1       2.645   4.439  18.425  0.00  0.00    +0.000 A 
ATOM     14  O   UNL     1       2.228   5.744  18.429  0.00  0.00    +0.000 OA
ENDBRANCH   2   5
BRANCH   3  15
ATOM     15  C   UNL     1       0.828   9.224  21.566  0.00  0.00    +0.000 A 
ATOM     16  C   UNL     1       0.978  10.463  20.954  0.00  0.00    +0.000 A 
ATOM     17  C   UNL     1       0.249  11.575  21.411  0.00  0.00    +0.000 A 
ATOM     18  C   UNL     1      -0.646  11.450  22.474  0.00  0.00    +0.000 A 
ATOM     19  C   UNL     1      -0.762  10.222  23.121  0.00  0.00    +0.000 A 
ATOM     20  C   UNL     1      -0.034   9.113  22.661  0.00  0.00    +0.000 A 
BRANCH  18  21
ATOM     21  O   UNL     1      -1.346  12.585  22.794  0.00  0.00    +0.000 OA
BRANCH  21  22
ATOM     22  C   UNL     1      -2.456  12.890  21.944  0.00  0.00    +0.000 C 
BRANCH  22  23
ATOM     23  C   UNL     1      -3.745  12.842  22.729  0.00  0.00    +0.000 A 
ATOM     24  C   UNL     1      -4.968  13.106  22.096  0.00  0.00    +0.000 A 
ATOM     25  C   UNL     1      -6.171  12.993  22.796  0.00  0.00    +0.000 A 
ATOM     26  C   UNL     1      -6.164  12.612  24.136  0.00  0.00    +0.000 A 
ATOM     27  C   UNL     1      -4.956  12.343  24.776  0.00  0.00    +0.000 A 
ATOM     28  C   UNL     1      -3.752  12.454  24.078  0.00  0.00    +0.000 A 
ENDBRANCH  22  23
ENDBRANCH  21  22
ENDBRANCH  18  21
ENDBRANCH   3  15
TORSDOF 5
ENDMDL
MODEL 5
REMARK VINA RESULT:      -7.7      5.287      8.151
REMARK  Name = 
REMARK  5 active torsions:
REMARK  status: ('A' for Active; 'I' for Inactive)
REMARK    1  A    between atoms: C_2  and  C_18
REMARK    2  A    between atoms: N_3  and  C_4
REMARK    3  A    between atoms: C_7  and  O_8
REMARK    4  A    between atoms: O_8  and  C_9
REMARK    5  A    between atoms: C_9  and  C_10
REMARK                            x       y       z     vdW  Elec       q    Type
REMARK                         _______ _______ _______ _____ _____    ______ ____
ROOT
ATOM      1  O   UNL     1       5.642   5.807  18.471  0.00  0.00    +0.000 OA
ATOM      2  C   UNL     1       4.930   5.872  17.473  0.00  0.00    +0.000 C 
ATOM      3  N   UNL     1       3.597   6.243  17.441  0.00  0.00    +0.000 N 
ATOM      4  H   UNL     1       3.153   6.164  16.533  0.00  0.00    +0.000 HD
ENDROOT
BRANCH   2   5
ATOM      5  C   UNL     1       5.511   5.643  16.061  0.00  0.00    +0.000 C 
ATOM      6  C   UNL     1       6.993   6.040  16.026  0.00  0.00    +0.000 C 
ATOM      7  O   UNL     1       7.787   5.454  14.985  0.00  0.00    +0.000 OA
ATOM      8  C   UNL     1       7.060   4.758  14.065  0.00  0.00    +0.000 A 
ATOM      9  C   UNL     1       7.597   4.639  12.786  0.00  0.00    +0.000 A 
ATOM     10  C   UNL     1       6.864   3.997  11.788  0.00  0.00    +0.000 A 
ATOM     11  C   UNL     1       5.622   3.430  12.087  0.00  0.00    +0.000 A 
ATOM     12  C   UNL     1       5.112   3.500  13.385  0.00  0.00    +0.000 A 
ATOM     13  C   UNL     1       5.826   4.185  14.363  0.00  0.00    +0.000 A 
ATOM     14  O   UNL     1       5.281   4.303  15.615  0.00  0.00    +0.000 OA
ENDBRANCH   2   5
BRANCH   3  15
ATOM     15  C   UNL     1       2.788   6.696  18.507  0.00  0.00    +0.000 A 
ATOM     16  C   UNL     1       2.434   5.926  19.610  0.00  0.00    +0.000 A 
ATOM     17  C   UNL     1       1.677   6.485  20.655  0.00  0.00    +0.000 A 
ATOM     18  C   UNL     1       1.282   7.823  20.609  0.00  0.00    +0.000 A 
ATOM     19  C   UNL     1       1.593   8.582  19.484  0.00  0.00    +0.000 A 
ATOM     20  C   UNL     1       2.350   8.022  18.443  0.00  0.00    +0.000 A 
BRANCH  18  21
ATOM     21  O   UNL     1       0.600   8.276  21.709  0.00  0.00    +0.000 OA
BRANCH  21  22
ATOM     22  C   UNL     1       1.095   9.487  22.290  0.00  0.00    +0.000 C 
BRANCH  22  23
ATOM     23  C   UNL     1       0.050  10.574  22.201  0.00  0.00    +0.000 A 
ATOM     24  C   UNL     1       0.066  11.483  21.134  0.00  0.00    +0.000 A 
ATOM     25  C   UNL     1      -0.937  12.445  21.004  0.00  0.00    +0.000 A 
ATOM     26  C   UNL     1      -1.968  12.508  21.939  0.00  0.00    +0.000 A 
ATOM     27  C   UNL     1      -1.998  11.608  23.003  0.00  0.00    +0.000 A 
ATOM     28  C   UNL     1      -0.996  10.644  23.134  0.00  0.00    +0.000 A 
ENDBRANCH  22  23
ENDBRANCH  21  22
ENDBRANCH  18  21
ENDBRANCH   3  15
TORSDOF 5
ENDMDL
MODEL 6
REMARK VINA RESULT:      -7.6      5.732      8.275
REMARK  Name = 
REMARK  5 active torsions:
REMARK  status: ('A' for Active; 'I' for Inactive)
REMARK    1  A    between atoms: C_2  and  C_18
REMARK    2  A    between atoms: N_3  and  C_4
REMARK    3  A    between atoms: C_7  and  O_8
REMARK    4  A    between atoms: O_8  and  C_9
REMARK    5  A    between atoms: C_9  and  C_10
REMARK                            x       y       z     vdW  Elec       q    Type
REMARK                         _______ _______ _______ _____ _____    ______ ____
ROOT
ATOM      1  O   UNL     1       1.934   7.078  21.345  0.00  0.00    +0.000 OA
ATOM      2  C   UNL     1       1.549   7.936  20.554  0.00  0.00    +0.000 C 
ATOM      3  N   UNL     1       1.878   8.017  19.212  0.00  0.00    +0.000 N 
ATOM      4  H   UNL     1       1.525   8.840  18.735  0.00  0.00    +0.000 HD
ENDROOT
BRANCH   2   5
ATOM      5  C   UNL     1       0.514   9.001  20.973  0.00  0.00    +0.000 C 
ATOM      6  C   UNL     1       0.605   9.267  22.481  0.00  0.00    +0.000 C 
ATOM      7  O   UNL     1       0.091  10.525  22.940  0.00  0.00    +0.000 OA
ATOM      8  C   UNL     1      -0.568  11.234  21.980  0.00  0.00    +0.000 A 
ATOM      9  C   UNL     1      -1.541  12.133  22.406  0.00  0.00    +0.000 A 
ATOM     10  C   UNL     1      -2.294  12.833  21.463  0.00  0.00    +0.000 A 
ATOM     11  C   UNL     1      -2.032  12.670  20.100  0.00  0.00    +0.000 A 
ATOM     12  C   UNL     1      -1.016  11.811  19.676  0.00  0.00    +0.000 A 
ATOM     13  C   UNL     1      -0.303  11.080  20.621  0.00  0.00    +0.000 A 
ATOM     14  O   UNL     1       0.646  10.191  20.187  0.00  0.00    +0.000 OA
ENDBRANCH   2   5
BRANCH   3  15
ATOM     15  C   UNL     1       2.647   7.116  18.442  0.00  0.00    +0.000 A 
ATOM     16  C   UNL     1       3.797   7.463  17.739  0.00  0.00    +0.000 A 
ATOM     17  C   UNL     1       4.533   6.482  17.053  0.00  0.00    +0.000 A 
ATOM     18  C   UNL     1       4.132   5.146  17.076  0.00  0.00    +0.000 A 
ATOM     19  C   UNL     1       2.955   4.803  17.737  0.00  0.00    +0.000 A 
ATOM     20  C   UNL     1       2.223   5.785  18.424  0.00  0.00    +0.000 A 
BRANCH  18  21
ATOM     21  O   UNL     1       4.958   4.268  16.422  0.00  0.00    +0.000 OA
BRANCH  21  22
ATOM     22  C   UNL     1       6.249   4.777  16.069  0.00  0.00    +0.000 C 
BRANCH  22  23
ATOM     23  C   UNL     1       6.499   4.588  14.591  0.00  0.00    +0.000 A 
ATOM     24  C   UNL     1       7.525   5.298  13.952  0.00  0.00    +0.000 A 
ATOM     25  C   UNL     1       7.811   5.076  12.603  0.00  0.00    +0.000 A 
ATOM     26  C   UNL     1       7.075   4.140  11.880  0.00  0.00    +0.000 A 
ATOM     27  C   UNL     1       6.055   3.424  12.504  0.00  0.00    +0.000 A 
ATOM     28  C   UNL     1       5.768   3.644  13.853  0.00  0.00    +0.000 A 
ENDBRANCH  22  23
ENDBRANCH  21  22
ENDBRANCH  18  21
ENDBRANCH   3  15
TORSDOF 5
ENDMDL
MODEL 7
REMARK VINA RESULT:      -7.6      7.289      9.311
REMARK  Name = 
REMARK  5 active torsions:
REMARK  status: ('A' for Active; 'I' for Inactive)
REMARK    1  A    between atoms: C_2  and  C_18
REMARK    2  A    between atoms: N_3  and  C_4
REMARK    3  A    between atoms: C_7  and  O_8
REMARK    4  A    between atoms: O_8  and  C_9
REMARK    5  A    between atoms: C_9  and  C_10
REMARK                            x       y       z     vdW  Elec       q    Type
REMARK                         _______ _______ _______ _____ _____    ______ ____
ROOT
ATOM      1  O   UNL     1       1.635  11.663  21.086  0.00  0.00    +0.000 OA
ATOM      2  C   UNL     1       0.521  11.347  20.677  0.00  0.00    +0.000 C 
ATOM      3  N   UNL     1       0.199  10.189  19.991  0.00  0.00    +0.000 N 
ATOM      4  H   UNL     1      -0.761  10.136  19.667  0.00  0.00    +0.000 HD
ENDROOT
BRANCH   2   5
ATOM      5  C   UNL     1      -0.723  12.201  21.006  0.00  0.00    +0.000 C 
ATOM      6  C   UNL     1      -1.560  12.429  19.740  0.00  0.00    +0.000 C 
ATOM      7  O   UNL     1      -2.941  12.758  19.939  0.00  0.00    +0.000 OA
ATOM      8  C   UNL     1      -3.269  12.994  21.241  0.00  0.00    +0.000 A 
ATOM      9  C   UNL     1      -4.358  13.826  21.485  0.00  0.00    +0.000 A 
ATOM     10  C   UNL     1      -4.694  14.156  22.798  0.00  0.00    +0.000 A 
ATOM     11  C   UNL     1      -3.972  13.609  23.862  0.00  0.00    +0.000 A 
ATOM     12  C   UNL     1      -2.917  12.728  23.618  0.00  0.00    +0.000 A 
ATOM     13  C   UNL     1      -2.558  12.442  22.304  0.00  0.00    +0.000 A 
ATOM     14  O   UNL     1      -1.477  11.629  22.079  0.00  0.00    +0.000 OA
ENDBRANCH   2   5
BRANCH   3  15
ATOM     15  C   UNL     1       1.037   9.096  19.676  0.00  0.00    +0.000 A 
ATOM     16  C   UNL     1       1.370   8.077  20.563  0.00  0.00    +0.000 A 
ATOM     17  C   UNL     1       2.160   6.995  20.139  0.00  0.00    +0.000 A 
ATOM     18  C   UNL     1       2.610   6.917  18.820  0.00  0.00    +0.000 A 
ATOM     19  C   UNL     1       2.320   7.958  17.943  0.00  0.00    +0.000 A 
ATOM     20  C   UNL     1       1.529   9.038  18.369  0.00  0.00    +0.000 A 
BRANCH  18  21
ATOM     21  O   UNL     1       3.321   5.788  18.504  0.00  0.00    +0.000 OA
BRANCH  21  22
ATOM     22  C   UNL     1       4.162   5.887  17.350  0.00  0.00    +0.000 C 
BRANCH  22  23
ATOM     23  C   UNL     1       5.586   6.176  17.765  0.00  0.00    +0.000 A 
ATOM     24  C   UNL     1       6.286   7.247  17.192  0.00  0.00    +0.000 A 
ATOM     25  C   UNL     1       7.575   7.566  17.621  0.00  0.00    +0.000 A 
ATOM     26  C   UNL     1       8.178   6.818  18.630  0.00  0.00    +0.000 A 
ATOM     27  C   UNL     1       7.493   5.753  19.211  0.00  0.00    +0.000 A 
ATOM     28  C   UNL     1       6.203   5.433  18.784  0.00  0.00    +0.000 A 
ENDBRANCH  22  23
ENDBRANCH  21  22
ENDBRANCH  18  21
ENDBRANCH   3  15
TORSDOF 5
ENDMDL
MODEL 8
REMARK VINA RESULT:      -7.5      5.755      8.221
REMARK  Name = 
REMARK  5 active torsions:
REMARK  status: ('A' for Active; 'I' for Inactive)
REMARK    1  A    between atoms: C_2  and  C_18
REMARK    2  A    between atoms: N_3  and  C_4
REMARK    3  A    between atoms: C_7  and  O_8
REMARK    4  A    between atoms: O_8  and  C_9
REMARK    5  A    between atoms: C_9  and  C_10
REMARK                            x       y       z     vdW  Elec       q    Type
REMARK                         _______ _______ _______ _____ _____    ______ ____
ROOT
ATOM      1  O   UNL     1       1.724   9.703  17.663  0.00  0.00    +0.000 OA
ATOM      2  C   UNL     1       1.428   9.071  18.673  0.00  0.00    +0.000 C 
ATOM      3  N   UNL     1       1.913   7.825  19.031  0.00  0.00    +0.000 N 
ATOM      4  H   UNL     1       1.496   7.427  19.865  0.00  0.00    +0.000 HD
ENDROOT
BRANCH   2   5
ATOM      5  C   UNL     1       0.525   9.686  19.764  0.00  0.00    +0.000 C 
ATOM      6  C   UNL     1       1.077   9.358  21.157  0.00  0.00    +0.000 C 
ATOM      7  O   UNL     1       0.671  10.224  22.226  0.00  0.00    +0.000 OA
ATOM      8  C   UNL     1      -0.296  11.119  21.872  0.00  0.00    +0.000 A 
ATOM      9  C   UNL     1      -1.128  11.592  22.881  0.00  0.00    +0.000 A 
ATOM     10  C   UNL     1      -2.178  12.454  22.563  0.00  0.00    +0.000 A 
ATOM     11  C   UNL     1      -2.355  12.883  21.245  0.00  0.00    +0.000 A 
ATOM     12  C   UNL     1      -1.482  12.453  20.243  0.00  0.00    +0.000 A 
ATOM     13  C   UNL     1      -0.469  11.554  20.560  0.00  0.00    +0.000 A 
ATOM     14  O   UNL     1       0.338  11.090  19.553  0.00  0.00    +0.000 OA
ENDBRANCH   2   5
BRANCH   3  15
ATOM     15  C   UNL     1       2.891   7.044  18.374  0.00  0.00    +0.000 A 
ATOM     16  C   UNL     1       3.849   7.552  17.503  0.00  0.00    +0.000 A 
ATOM     17  C   UNL     1       4.824   6.705  16.947  0.00  0.00    +0.000 A 
ATOM     18  C   UNL     1       4.855   5.348  17.270  0.00  0.00    +0.000 A 
ATOM     19  C   UNL     1       3.868   4.828  18.104  0.00  0.00    +0.000 A 
ATOM     20  C   UNL     1       2.897   5.676  18.659  0.00  0.00    +0.000 A 
BRANCH  18  21
ATOM     21  O   UNL     1       5.885   4.631  16.718  0.00  0.00    +0.000 OA
BRANCH  21  22
ATOM     22  C   UNL     1       5.511   3.678  15.718  0.00  0.00    +0.000 C 
BRANCH  22  23
ATOM     23  C   UNL     1       6.215   3.982  14.416  0.00  0.00    +0.000 A 
ATOM     24  C   UNL     1       5.813   3.349  13.231  0.00  0.00    +0.000 A 
ATOM     25  C   UNL     1       6.408   3.677  12.012  0.00  0.00    +0.000 A 
ATOM     26  C   UNL     1       7.410   4.644  11.964  0.00  0.00    +0.000 A 
ATOM     27  C   UNL     1       7.816   5.284  13.133  0.00  0.00    +0.000 A 
ATOM     28  C   UNL     1       7.221   4.958  14.353  0.00  0.00    +0.000 A 
ENDBRANCH  22  23
ENDBRANCH  21  22
ENDBRANCH  18  21
ENDBRANCH   3  15
TORSDOF 5
ENDMDL
MODEL 9
REMARK VINA RESULT:      -7.5      7.564      9.313
REMARK  Name = 
REMARK  5 active torsions:
REMARK  status: ('A' for Active; 'I' for Inactive)
REMARK    1  A    between atoms: C_2  and  C_18
REMARK    2  A    between atoms: N_3  and  C_4
REMARK    3  A    between atoms: C_7  and  O_8
REMARK    4  A    between atoms: O_8  and  C_9
REMARK    5  A    between atoms: C_9  and  C_10
REMARK                            x       y       z     vdW  Elec       q    Type
REMARK                         _______ _______ _______ _____ _____    ______ ____
ROOT
ATOM      1  O   UNL     1       1.056  11.722  21.600  0.00  0.00    +0.000 OA
ATOM      2  C   UNL     1       0.042  11.521  20.938  0.00  0.00    +0.000 C 
ATOM      3  N   UNL     1      -0.109  10.572  19.941  0.00  0.00    +0.000 N 
ATOM      4  H   UNL     1      -0.997  10.603  19.452  0.00  0.00    +0.000 HD
ENDROOT
BRANCH   2   5
ATOM      5  C   UNL     1      -1.274  12.267  21.244  0.00  0.00    +0.000 C 
ATOM      6  C   UNL     1      -2.146  12.343  19.984  0.00  0.00    +0.000 C 
ATOM      7  O   UNL     1      -3.551  12.548  20.190  0.00  0.00    +0.000 OA
ATOM      8  C   UNL     1      -3.882  12.823  21.485  0.00  0.00    +0.000 A 
ATOM      9  C   UNL     1      -5.043  13.558  21.704  0.00  0.00    +0.000 A 
ATOM     10  C   UNL     1      -5.392  13.925  23.004  0.00  0.00    +0.000 A 
ATOM     11  C   UNL     1      -4.606  13.509  24.082  0.00  0.00    +0.000 A 
ATOM     12  C   UNL     1      -3.474  12.722  23.865  0.00  0.00    +0.000 A 
ATOM     13  C   UNL     1      -3.106  12.401  22.562  0.00  0.00    +0.000 A 
ATOM     14  O   UNL     1      -1.955  11.685  22.360  0.00  0.00    +0.000 OA
ENDBRANCH   2   5
BRANCH   3  15
ATOM     15  C   UNL     1       0.816   9.590  19.518  0.00  0.00    +0.000 A 
ATOM     16  C   UNL     1       1.269   8.542  20.312  0.00  0.00    +0.000 A 
ATOM     17  C   UNL     1       2.141   7.575  19.781  0.00  0.00    +0.000 A 
ATOM     18  C   UNL     1       2.554   7.644  18.450  0.00  0.00    +0.000 A 
ATOM     19  C   UNL     1       2.141   8.719  17.668  0.00  0.00    +0.000 A 
ATOM     20  C   UNL     1       1.268   9.682  18.199  0.00  0.00    +0.000 A 
BRANCH  18  21
ATOM     21  O   UNL     1       3.356   6.615  18.025  0.00  0.00    +0.000 OA
BRANCH  21  22
ATOM     22  C   UNL     1       3.924   5.804  19.058  0.00  0.00    +0.000 C 
BRANCH  22  23
ATOM     23  C   UNL     1       3.606   4.347  18.814  0.00  0.00    +0.000 A 
ATOM     24  C   UNL     1       2.751   3.978  17.765  0.00  0.00    +0.000 A 
ATOM     25  C   UNL     1       2.509   2.632  17.486  0.00  0.00    +0.000 A 
ATOM     26  C   UNL     1       3.121   1.640  18.250  0.00  0.00    +0.000 A 
ATOM     27  C   UNL     1       3.976   1.994  19.293  0.00  0.00    +0.000 A 
ATOM     28  C   UNL     1       4.220   3.339  19.573  0.00  0.00    +0.000 A 
ENDBRANCH  22  23
ENDBRANCH  21  22
ENDBRANCH  18  21
ENDBRANCH   3  15
TORSDOF 5
ENDMDL
