MODEL 1
REMARK VINA RESULT:      -8.7      0.000      0.000
REMARK  Name = 
REMARK  3 active torsions:
REMARK  status: ('A' for Active; 'I' for Inactive)
REMARK    1  A    between atoms: S_2  and  C_4
REMARK    2  A    between atoms: S_2  and  N_14
REMARK    3  A    between atoms: C_17  and  N_18
REMARK                            x       y       z     vdW  Elec       q    Type
REMARK                         _______ _______ _______ _____ _____    ______ ____
ROOT
ATOM      1  N   UNL     1       2.992   4.311  19.022  0.00  0.00    +0.000 NA
ATOM      2  C   UNL     1       1.925   4.600  18.059  0.00  0.00    +0.000 C 
ATOM      3  C   UNL     1       2.110   6.069  17.704  0.00  0.00    +0.000 C 
ATOM      4  C   UNL     1       2.795   6.702  18.915  0.00  0.00    +0.000 C 
ATOM      5  C   UNL     1       3.348   5.543  19.747  0.00  0.00    +0.000 C 
ENDROOT
BRANCH   4   6
ATOM      6  N   UNL     1       1.947   7.579  19.705  0.00  0.00    +0.000 N 
ATOM      7  N   UNL     1       1.521   7.180  20.923  0.00  0.00    +0.000 NA
ATOM      8  C   UNL     1       0.973   8.285  21.438  0.00  0.00    +0.000 A 
ATOM      9  C   UNL     1       1.008   9.380  20.546  0.00  0.00    +0.000 A 
ATOM     10  C   UNL     1       0.606  10.728  20.587  0.00  0.00    +0.000 A 
ATOM     11  C   UNL     1       0.805  11.528  19.456  0.00  0.00    +0.000 A 
ATOM     12  C   UNL     1       1.376  10.998  18.300  0.00  0.00    +0.000 A 
ATOM     13  C   UNL     1       1.789   9.663  18.244  0.00  0.00    +0.000 A 
ATOM     14  C   UNL     1       1.609   8.878  19.398  0.00  0.00    +0.000 A 
ENDBRANCH   4   6
BRANCH   1  16
ATOM     15  O   UNL     1       3.431   1.991  18.129  0.00  0.00    +0.000 OA
ATOM     16  S   UNL     1       4.114   3.096  18.768  0.00  0.00    +0.000 S 
ATOM     17  O   UNL     1       4.870   2.906  19.988  0.00  0.00    +0.000 OA
BRANCH  16  18
ATOM     18  C   UNL     1       5.221   3.792  17.557  0.00  0.00    +0.000 A 
ATOM     19  C   UNL     1       6.356   4.500  17.955  0.00  0.00    +0.000 A 
ATOM     20  C   UNL     1       7.226   4.995  16.980  0.00  0.00    +0.000 A 
ATOM     21  C   UNL     1       6.964   4.783  15.623  0.00  0.00    +0.000 A 
ATOM     22  C   UNL     1       5.855   4.028  15.223  0.00  0.00    +0.000 A 
ATOM     23  C   UNL     1       4.979   3.539  16.199  0.00  0.00    +0.000 A 
ATOM     24  C   UNL     1       5.585   3.752  13.771  0.00  0.00    +0.000 C 
ATOM     25  C   UNL     1       6.803   4.082  12.921  0.00  0.00    +0.000 C 
ATOM     26  C   UNL     1       7.388   5.402  13.393  0.00  0.00    +0.000 C 
ATOM     27  O   UNL     1       7.866   5.315  14.741  0.00  0.00    +0.000 OA
ENDBRANCH  16  18
ENDBRANCH   1  16
TORSDOF 3
ENDMDL
MODEL 2
REMARK VINA RESULT:      -8.0      1.069      1.885
REMARK  Name = 
REMARK  3 active torsions:
REMARK  status: ('A' for Active; 'I' for Inactive)
REMARK    1  A    between atoms: S_2  and  C_4
REMARK    2  A    between atoms: S_2  and  N_14
REMARK    3  A    between atoms: C_17  and  N_18
REMARK                            x       y       z     vdW  Elec       q    Type
REMARK                         _______ _______ _______ _____ _____    ______ ____
ROOT
ATOM      1  N   UNL     1       3.906   5.302  18.783  0.00  0.00    +0.000 NA
ATOM      2  C   UNL     1       3.345   5.440  20.130  0.00  0.00    +0.000 C 
ATOM      3  C   UNL     1       1.930   5.959  19.909  0.00  0.00    +0.000 C 
ATOM      4  C   UNL     1       1.969   6.706  18.576  0.00  0.00    +0.000 C 
ATOM      5  C   UNL     1       3.257   6.265  17.877  0.00  0.00    +0.000 C 
ENDROOT
BRANCH   4   6
ATOM      6  N   UNL     1       1.881   8.152  18.686  0.00  0.00    +0.000 N 
ATOM      7  N   UNL     1       2.221   8.926  17.633  0.00  0.00    +0.000 NA
ATOM      8  C   UNL     1       1.817  10.146  18.000  0.00  0.00    +0.000 A 
ATOM      9  C   UNL     1       1.255  10.170  19.296  0.00  0.00    +0.000 A 
ATOM     10  C   UNL     1       0.676  11.146  20.127  0.00  0.00    +0.000 A 
ATOM     11  C   UNL     1       0.229  10.773  21.399  0.00  0.00    +0.000 A 
ATOM     12  C   UNL     1       0.368   9.460  21.847  0.00  0.00    +0.000 A 
ATOM     13  C   UNL     1       0.933   8.475  21.031  0.00  0.00    +0.000 A 
ATOM     14  C   UNL     1       1.353   8.857  19.744  0.00  0.00    +0.000 A 
ENDBRANCH   4   6
BRANCH   1  16
ATOM     15  O   UNL     1       3.410   3.097  17.658  0.00  0.00    +0.000 OA
ATOM     16  S   UNL     1       4.513   3.848  18.218  0.00  0.00    +0.000 S 
ATOM     17  O   UNL     1       5.366   3.278  19.240  0.00  0.00    +0.000 OA
BRANCH  16  18
ATOM     18  C   UNL     1       5.558   4.330  16.857  0.00  0.00    +0.000 A 
ATOM     19  C   UNL     1       6.697   5.106  17.076  0.00  0.00    +0.000 A 
ATOM     20  C   UNL     1       7.519   5.429  15.992  0.00  0.00    +0.000 A 
ATOM     21  C   UNL     1       7.205   4.979  14.706  0.00  0.00    +0.000 A 
ATOM     22  C   UNL     1       6.093   4.157  14.493  0.00  0.00    +0.000 A 
ATOM     23  C   UNL     1       5.265   3.839  15.576  0.00  0.00    +0.000 A 
ATOM     24  C   UNL     1       5.768   3.628  13.125  0.00  0.00    +0.000 C 
ATOM     25  C   UNL     1       6.944   3.813  12.178  0.00  0.00    +0.000 C 
ATOM     26  C   UNL     1       7.527   5.200  12.386  0.00  0.00    +0.000 C 
ATOM     27  O   UNL     1       8.061   5.355  13.706  0.00  0.00    +0.000 OA
ENDBRANCH  16  18
ENDBRANCH   1  16
TORSDOF 3
ENDMDL
MODEL 3
REMARK VINA RESULT:      -7.7      1.587      2.314
REMARK  Name = 
REMARK  3 active torsions:
REMARK  status: ('A' for Active; 'I' for Inactive)
REMARK    1  A    between atoms: S_2  and  C_4
REMARK    2  A    between atoms: S_2  and  N_14
REMARK    3  A    between atoms: C_17  and  N_18
REMARK                            x       y       z     vdW  Elec       q    Type
REMARK                         _______ _______ _______ _____ _____    ______ ____
ROOT
ATOM      1  N   UNL     1       1.945   5.745  19.047  0.00  0.00    +0.000 NA
ATOM      2  C   UNL     1       1.901   6.433  17.753  0.00  0.00    +0.000 C 
ATOM      3  C   UNL     1       2.515   7.801  18.021  0.00  0.00    +0.000 C 
ATOM      4  C   UNL     1       2.267   8.081  19.502  0.00  0.00    +0.000 C 
ATOM      5  C   UNL     1       1.896   6.737  20.134  0.00  0.00    +0.000 C 
ENDROOT
BRANCH   4   6
ATOM      6  N   UNL     1       1.265   9.099  19.770  0.00  0.00    +0.000 N 
ATOM      7  N   UNL     1       0.669   9.740  18.743  0.00  0.00    +0.000 NA
ATOM      8  C   UNL     1      -0.321  10.420  19.331  0.00  0.00    +0.000 A 
ATOM      9  C   UNL     1      -0.341  10.252  20.733  0.00  0.00    +0.000 A 
ATOM     10  C   UNL     1      -1.150  10.703  21.792  0.00  0.00    +0.000 A 
ATOM     11  C   UNL     1      -0.832  10.317  23.099  0.00  0.00    +0.000 A 
ATOM     12  C   UNL     1       0.276   9.512  23.354  0.00  0.00    +0.000 A 
ATOM     13  C   UNL     1       1.086   9.046  22.314  0.00  0.00    +0.000 A 
ATOM     14  C   UNL     1       0.739   9.419  21.002  0.00  0.00    +0.000 A 
ENDBRANCH   4   6
BRANCH   1  16
ATOM     15  O   UNL     1       1.899   3.259  18.614  0.00  0.00    +0.000 OA
ATOM     16  S   UNL     1       2.715   4.273  19.246  0.00  0.00    +0.000 S 
ATOM     17  O   UNL     1       3.124   4.152  20.630  0.00  0.00    +0.000 OA
BRANCH  16  18
ATOM     18  C   UNL     1       4.193   4.437  18.264  0.00  0.00    +0.000 A 
ATOM     19  C   UNL     1       5.434   4.629  18.874  0.00  0.00    +0.000 A 
ATOM     20  C   UNL     1       6.580   4.708  18.077  0.00  0.00    +0.000 A 
ATOM     21  C   UNL     1       6.484   4.597  16.686  0.00  0.00    +0.000 A 
ATOM     22  C   UNL     1       5.248   4.353  16.077  0.00  0.00    +0.000 A 
ATOM     23  C   UNL     1       4.100   4.280  16.874  0.00  0.00    +0.000 A 
ATOM     24  C   UNL     1       5.135   4.185  14.588  0.00  0.00    +0.000 C 
ATOM     25  C   UNL     1       6.505   3.975  13.960  0.00  0.00    +0.000 C 
ATOM     26  C   UNL     1       7.486   4.950  14.588  0.00  0.00    +0.000 C 
ATOM     27  O   UNL     1       7.657   4.700  15.988  0.00  0.00    +0.000 OA
ENDBRANCH  16  18
ENDBRANCH   1  16
TORSDOF 3
ENDMDL
MODEL 4
REMARK VINA RESULT:      -7.5      5.004      9.324
REMARK  Name = 
REMARK  3 active torsions:
REMARK  status: ('A' for Active; 'I' for Inactive)
REMARK    1  A    between atoms: S_2  and  C_4
REMARK    2  A    between atoms: S_2  and  N_14
REMARK    3  A    between atoms: C_17  and  N_18
REMARK                            x       y       z     vdW  Elec       q    Type
REMARK                         _______ _______ _______ _____ _____    ______ ____
ROOT
ATOM      1  N   UNL     1       0.467   9.396  19.798  0.00  0.00    +0.000 NA
ATOM      2  C   UNL     1       0.160   8.801  21.103  0.00  0.00    +0.000 C 
ATOM      3  C   UNL     1       1.456   8.128  21.537  0.00  0.00    +0.000 C 
ATOM      4  C   UNL     1       2.197   7.791  20.244  0.00  0.00    +0.000 C 
ATOM      5  C   UNL     1       1.532   8.619  19.142  0.00  0.00    +0.000 C 
ENDROOT
BRANCH   4   6
ATOM      6  N   UNL     1       2.230   6.377  19.912  0.00  0.00    +0.000 N 
ATOM      7  N   UNL     1       1.408   5.518  20.553  0.00  0.00    +0.000 NA
ATOM      8  C   UNL     1       1.542   4.382  19.861  0.00  0.00    +0.000 A 
ATOM      9  C   UNL     1       2.473   4.492  18.804  0.00  0.00    +0.000 A 
ATOM     10  C   UNL     1       2.957   3.642  17.793  0.00  0.00    +0.000 A 
ATOM     11  C   UNL     1       3.924   4.128  16.906  0.00  0.00    +0.000 A 
ATOM     12  C   UNL     1       4.414   5.427  17.028  0.00  0.00    +0.000 A 
ATOM     13  C   UNL     1       3.938   6.289  18.021  0.00  0.00    +0.000 A 
ATOM     14  C   UNL     1       2.946   5.797  18.889  0.00  0.00    +0.000 A 
ENDBRANCH   4   6
BRANCH   1  16
ATOM     15  O   UNL     1       1.254  11.420  18.511  0.00  0.00    +0.000 OA
ATOM     16  S   UNL     1       0.269  11.030  19.497  0.00  0.00    +0.000 S 
ATOM     17  O   UNL     1       0.162  11.721  20.765  0.00  0.00    +0.000 OA
BRANCH  16  18
ATOM     18  C   UNL     1      -1.325  11.120  18.704  0.00  0.00    +0.000 A 
ATOM     19  C   UNL     1      -1.563  10.438  17.509  0.00  0.00    +0.000 A 
ATOM     20  C   UNL     1      -2.838  10.493  16.937  0.00  0.00    +0.000 A 
ATOM     21  C   UNL     1      -3.860  11.222  17.553  0.00  0.00    +0.000 A 
ATOM     22  C   UNL     1      -3.637  11.863  18.777  0.00  0.00    +0.000 A 
ATOM     23  C   UNL     1      -2.359  11.813  19.347  0.00  0.00    +0.000 A 
ATOM     24  C   UNL     1      -4.737  12.611  19.475  0.00  0.00    +0.000 C 
ATOM     25  C   UNL     1      -6.092  12.272  18.871  0.00  0.00    +0.000 C 
ATOM     26  C   UNL     1      -5.963  12.257  17.357  0.00  0.00    +0.000 C 
ATOM     27  O   UNL     1      -5.070  11.229  16.913  0.00  0.00    +0.000 OA
ENDBRANCH  16  18
ENDBRANCH   1  16
TORSDOF 3
ENDMDL
MODEL 5
REMARK VINA RESULT:      -7.3      4.807      9.092
REMARK  Name = 
REMARK  3 active torsions:
REMARK  status: ('A' for Active; 'I' for Inactive)
REMARK    1  A    between atoms: S_2  and  C_4
REMARK    2  A    between atoms: S_2  and  N_14
REMARK    3  A    between atoms: C_17  and  N_18
REMARK                            x       y       z     vdW  Elec       q    Type
REMARK                         _______ _______ _______ _____ _____    ______ ____
ROOT
ATOM      1  N   UNL     1       0.999   9.137  19.632  0.00  0.00    +0.000 NA
ATOM      2  C   UNL     1       0.559   8.225  20.693  0.00  0.00    +0.000 C 
ATOM      3  C   UNL     1       1.764   7.334  20.963  0.00  0.00    +0.000 C 
ATOM      4  C   UNL     1       2.560   7.311  19.658  0.00  0.00    +0.000 C 
ATOM      5  C   UNL     1       2.038   8.481  18.820  0.00  0.00    +0.000 C 
ENDROOT
BRANCH   4   6
ATOM      6  N   UNL     1       2.499   6.056  18.929  0.00  0.00    +0.000 N 
ATOM      7  N   UNL     1       3.072   5.959  17.711  0.00  0.00    +0.000 NA
ATOM      8  C   UNL     1       3.021   4.649  17.446  0.00  0.00    +0.000 A 
ATOM      9  C   UNL     1       2.385   3.909  18.466  0.00  0.00    +0.000 A 
ATOM     10  C   UNL     1       2.095   2.552  18.697  0.00  0.00    +0.000 A 
ATOM     11  C   UNL     1       1.412   2.195  19.865  0.00  0.00    +0.000 A 
ATOM     12  C   UNL     1       1.009   3.166  20.780  0.00  0.00    +0.000 A 
ATOM     13  C   UNL     1       1.296   4.519  20.572  0.00  0.00    +0.000 A 
ATOM     14  C   UNL     1       2.008   4.861  19.407  0.00  0.00    +0.000 A 
ENDBRANCH   4   6
BRANCH   1  16
ATOM     15  O   UNL     1       1.724  11.382  18.734  0.00  0.00    +0.000 OA
ATOM     16  S   UNL     1       0.954  10.799  19.813  0.00  0.00    +0.000 S 
ATOM     17  O   UNL     1       1.241  11.119  21.196  0.00  0.00    +0.000 OA
BRANCH  16  18
ATOM     18  C   UNL     1      -0.754  11.209  19.512  0.00  0.00    +0.000 A 
ATOM     19  C   UNL     1      -1.424  12.113  20.338  0.00  0.00    +0.000 A 
ATOM     20  C   UNL     1      -2.750  12.446  20.048  0.00  0.00    +0.000 A 
ATOM     21  C   UNL     1      -3.397  11.882  18.944  0.00  0.00    +0.000 A 
ATOM     22  C   UNL     1      -2.711  11.015  18.086  0.00  0.00    +0.000 A 
ATOM     23  C   UNL     1      -1.385  10.676  18.379  0.00  0.00    +0.000 A 
ATOM     24  C   UNL     1      -3.378  10.436  16.870  0.00  0.00    +0.000 C 
ATOM     25  C   UNL     1      -4.673  11.171  16.560  0.00  0.00    +0.000 C 
ATOM     26  C   UNL     1      -5.428  11.403  17.858  0.00  0.00    +0.000 C 
ATOM     27  O   UNL     1      -4.699  12.257  18.747  0.00  0.00    +0.000 OA
ENDBRANCH  16  18
ENDBRANCH   1  16
TORSDOF 3
ENDMDL
MODEL 6
REMARK VINA RESULT:      -7.3      2.376      7.527
REMARK  Name = 
REMARK  3 active torsions:
REMARK  status: ('A' for Active; 'I' for Inactive)
REMARK    1  A    between atoms: S_2  and  C_4
REMARK    2  A    between atoms: S_2  and  N_14
REMARK    3  A    between atoms: C_17  and  N_18
REMARK                            x       y       z     vdW  Elec       q    Type
REMARK                         _______ _______ _______ _____ _____    ______ ____
ROOT
ATOM      1  N   UNL     1       4.646   3.792  17.719  0.00  0.00    +0.000 NA
ATOM      2  C   UNL     1       5.804   4.560  18.189  0.00  0.00    +0.000 C 
ATOM      3  C   UNL     1       5.871   5.767  17.262  0.00  0.00    +0.000 C 
ATOM      4  C   UNL     1       5.218   5.319  15.955  0.00  0.00    +0.000 C 
ATOM      5  C   UNL     1       4.441   4.041  16.282  0.00  0.00    +0.000 C 
ENDROOT
BRANCH   4   6
ATOM      6  N   UNL     1       6.140   5.123  14.850  0.00  0.00    +0.000 N 
ATOM      7  N   UNL     1       7.404   5.589  14.940  0.00  0.00    +0.000 NA
ATOM      8  C   UNL     1       8.011   5.052  13.877  0.00  0.00    +0.000 A 
ATOM      9  C   UNL     1       7.139   4.275  13.083  0.00  0.00    +0.000 A 
ATOM     10  C   UNL     1       7.258   3.502  11.914  0.00  0.00    +0.000 A 
ATOM     11  C   UNL     1       6.119   2.867  11.404  0.00  0.00    +0.000 A 
ATOM     12  C   UNL     1       4.883   3.010  12.031  0.00  0.00    +0.000 A 
ATOM     13  C   UNL     1       4.747   3.767  13.199  0.00  0.00    +0.000 A 
ATOM     14  C   UNL     1       5.905   4.377  13.716  0.00  0.00    +0.000 A 
ENDBRANCH   4   6
BRANCH   1  16
ATOM     15  O   UNL     1       3.915   2.789  19.917  0.00  0.00    +0.000 OA
ATOM     16  S   UNL     1       3.368   3.405  18.727  0.00  0.00    +0.000 S 
ATOM     17  O   UNL     1       2.348   2.742  17.941  0.00  0.00    +0.000 OA
BRANCH  16  18
ATOM     18  C   UNL     1       2.720   4.992  19.213  0.00  0.00    +0.000 A 
ATOM     19  C   UNL     1       2.346   5.232  20.537  0.00  0.00    +0.000 A 
ATOM     20  C   UNL     1       1.883   6.502  20.894  0.00  0.00    +0.000 A 
ATOM     21  C   UNL     1       1.797   7.519  19.938  0.00  0.00    +0.000 A 
ATOM     22  C   UNL     1       2.221   7.296  18.623  0.00  0.00    +0.000 A 
ATOM     23  C   UNL     1       2.678   6.022  18.263  0.00  0.00    +0.000 A 
ATOM     24  C   UNL     1       2.178   8.391  17.596  0.00  0.00    +0.000 C 
ATOM     25  C   UNL     1       1.969   9.746  18.255  0.00  0.00    +0.000 C 
ATOM     26  C   UNL     1       0.904   9.608  19.330  0.00  0.00    +0.000 C 
ATOM     27  O   UNL     1       1.321   8.725  20.377  0.00  0.00    +0.000 OA
ENDBRANCH  16  18
ENDBRANCH   1  16
TORSDOF 3
ENDMDL
MODEL 7
REMARK VINA RESULT:      -7.2      5.690      7.834
REMARK  Name = 
REMARK  3 active torsions:
REMARK  status: ('A' for Active; 'I' for Inactive)
REMARK    1  A    between atoms: S_2  and  C_4
REMARK    2  A    between atoms: S_2  and  N_14
REMARK    3  A    between atoms: C_17  and  N_18
REMARK                            x       y       z     vdW  Elec       q    Type
REMARK                         _______ _______ _______ _____ _____    ______ ____
ROOT
ATOM      1  N   UNL     1      -1.271  10.900  19.243  0.00  0.00    +0.000 NA
ATOM      2  C   UNL     1      -1.648  10.229  17.995  0.00  0.00    +0.000 C 
ATOM      3  C   UNL     1      -2.615  11.190  17.315  0.00  0.00    +0.000 C 
ATOM      4  C   UNL     1      -3.249  12.002  18.443  0.00  0.00    +0.000 C 
ATOM      5  C   UNL     1      -2.363  11.789  19.673  0.00  0.00    +0.000 C 
ENDROOT
BRANCH   4   6
ATOM      6  N   UNL     1      -4.639  11.682  18.717  0.00  0.00    +0.000 N 
ATOM      7  N   UNL     1      -5.282  10.774  17.952  0.00  0.00    +0.000 NA
ATOM      8  C   UNL     1      -6.429  10.570  18.607  0.00  0.00    +0.000 A 
ATOM      9  C   UNL     1      -6.547  11.369  19.766  0.00  0.00    +0.000 A 
ATOM     10  C   UNL     1      -7.500  11.529  20.788  0.00  0.00    +0.000 A 
ATOM     11  C   UNL     1      -7.257  12.465  21.799  0.00  0.00    +0.000 A 
ATOM     12  C   UNL     1      -6.099  13.242  21.788  0.00  0.00    +0.000 A 
ATOM     13  C   UNL     1      -5.137  13.090  20.785  0.00  0.00    +0.000 A 
ATOM     14  C   UNL     1      -5.380  12.125  19.790  0.00  0.00    +0.000 A 
ENDBRANCH   4   6
BRANCH   1  16
ATOM     15  O   UNL     1       0.345  11.824  20.948  0.00  0.00    +0.000 OA
ATOM     16  S   UNL     1       0.324  11.229  19.629  0.00  0.00    +0.000 S 
ATOM     17  O   UNL     1       0.943  11.888  18.498  0.00  0.00    +0.000 OA
BRANCH  16  18
ATOM     18  C   UNL     1       1.062   9.613  19.775  0.00  0.00    +0.000 A 
ATOM     19  C   UNL     1       0.824   8.822  20.901  0.00  0.00    +0.000 A 
ATOM     20  C   UNL     1       1.383   7.542  20.964  0.00  0.00    +0.000 A 
ATOM     21  C   UNL     1       2.168   7.060  19.912  0.00  0.00    +0.000 A 
ATOM     22  C   UNL     1       2.365   7.830  18.761  0.00  0.00    +0.000 A 
ATOM     23  C   UNL     1       1.812   9.115  18.700  0.00  0.00    +0.000 A 
ATOM     24  C   UNL     1       3.168   7.308  17.603  0.00  0.00    +0.000 C 
ATOM     25  C   UNL     1       3.393   5.809  17.732  0.00  0.00    +0.000 C 
ATOM     26  C   UNL     1       3.756   5.490  19.172  0.00  0.00    +0.000 C 
ATOM     27  O   UNL     1       2.683   5.801  20.068  0.00  0.00    +0.000 OA
ENDBRANCH  16  18
ENDBRANCH   1  16
TORSDOF 3
ENDMDL
MODEL 8
REMARK VINA RESULT:      -7.2      1.460      2.479
REMARK  Name = 
REMARK  3 active torsions:
REMARK  status: ('A' for Active; 'I' for Inactive)
REMARK    1  A    between atoms: S_2  and  C_4
REMARK    2  A    between atoms: S_2  and  N_14
REMARK    3  A    between atoms: C_17  and  N_18
REMARK                            x       y       z     vdW  Elec       q    Type
REMARK                         _______ _______ _______ _____ _____    ______ ____
ROOT
ATOM      1  N   UNL     1       4.541   5.693  19.190  0.00  0.00    +0.000 NA
ATOM      2  C   UNL     1       3.253   5.237  19.721  0.00  0.00    +0.000 C 
ATOM      3  C   UNL     1       2.229   5.671  18.680  0.00  0.00    +0.000 C 
ATOM      4  C   UNL     1       2.841   6.884  17.981  0.00  0.00    +0.000 C 
ATOM      5  C   UNL     1       4.330   6.873  18.334  0.00  0.00    +0.000 C 
ENDROOT
BRANCH   4   6
ATOM      6  N   UNL     1       2.217   8.154  18.308  0.00  0.00    +0.000 N 
ATOM      7  N   UNL     1       2.054   9.088  17.347  0.00  0.00    +0.000 NA
ATOM      8  C   UNL     1       1.272  10.003  17.930  0.00  0.00    +0.000 A 
ATOM      9  C   UNL     1       0.964   9.683  19.271  0.00  0.00    +0.000 A 
ATOM     10  C   UNL     1       0.194  10.264  20.295  0.00  0.00    +0.000 A 
ATOM     11  C   UNL     1       0.140   9.632  21.542  0.00  0.00    +0.000 A 
ATOM     12  C   UNL     1       0.849   8.455  21.776  0.00  0.00    +0.000 A 
ATOM     13  C   UNL     1       1.612   7.859  20.768  0.00  0.00    +0.000 A 
ATOM     14  C   UNL     1       1.636   8.490  19.510  0.00  0.00    +0.000 A 
ENDBRANCH   4   6
BRANCH   1  16
ATOM     15  O   UNL     1       5.487   3.381  19.555  0.00  0.00    +0.000 OA
ATOM     16  S   UNL     1       5.817   4.643  18.927  0.00  0.00    +0.000 S 
ATOM     17  O   UNL     1       7.052   5.334  19.234  0.00  0.00    +0.000 OA
BRANCH  16  18
ATOM     18  C   UNL     1       5.780   4.371  17.165  0.00  0.00    +0.000 A 
ATOM     19  C   UNL     1       4.671   3.777  16.561  0.00  0.00    +0.000 A 
ATOM     20  C   UNL     1       4.656   3.619  15.172  0.00  0.00    +0.000 A 
ATOM     21  C   UNL     1       5.738   4.051  14.398  0.00  0.00    +0.000 A 
ATOM     22  C   UNL     1       6.827   4.694  14.997  0.00  0.00    +0.000 A 
ATOM     23  C   UNL     1       6.846   4.846  16.388  0.00  0.00    +0.000 A 
ATOM     24  C   UNL     1       7.976   5.206  14.175  0.00  0.00    +0.000 C 
ATOM     25  C   UNL     1       7.615   5.235  12.697  0.00  0.00    +0.000 C 
ATOM     26  C   UNL     1       6.883   3.952  12.346  0.00  0.00    +0.000 C 
ATOM     27  O   UNL     1       5.640   3.843  13.049  0.00  0.00    +0.000 OA
ENDBRANCH  16  18
ENDBRANCH   1  16
TORSDOF 3
ENDMDL
MODEL 9
REMARK VINA RESULT:      -7.2      4.489      8.634
REMARK  Name = 
REMARK  3 active torsions:
REMARK  status: ('A' for Active; 'I' for Inactive)
REMARK    1  A    between atoms: S_2  and  C_4
REMARK    2  A    between atoms: S_2  and  N_14
REMARK    3  A    between atoms: C_17  and  N_18
REMARK                            x       y       z     vdW  Elec       q    Type
REMARK                         _______ _______ _______ _____ _____    ______ ____
ROOT
ATOM      1  N   UNL     1       1.597   9.371  19.936  0.00  0.00    +0.000 NA
ATOM      2  C   UNL     1       1.921  10.014  18.658  0.00  0.00    +0.000 C 
ATOM      3  C   UNL     1       1.562   8.977  17.601  0.00  0.00    +0.000 C 
ATOM      4  C   UNL     1       1.693   7.621  18.294  0.00  0.00    +0.000 C 
ATOM      5  C   UNL     1       1.718   7.910  19.796  0.00  0.00    +0.000 C 
ENDROOT
BRANCH   4   6
ATOM      6  N   UNL     1       2.839   6.831  17.876  0.00  0.00    +0.000 N 
ATOM      7  N   UNL     1       4.028   7.435  17.664  0.00  0.00    +0.000 NA
ATOM      8  C   UNL     1       4.875   6.411  17.518  0.00  0.00    +0.000 A 
ATOM      9  C   UNL     1       4.234   5.155  17.594  0.00  0.00    +0.000 A 
ATOM     10  C   UNL     1       4.640   3.810  17.532  0.00  0.00    +0.000 A 
ATOM     11  C   UNL     1       3.672   2.805  17.641  0.00  0.00    +0.000 A 
ATOM     12  C   UNL     1       2.324   3.128  17.792  0.00  0.00    +0.000 A 
ATOM     13  C   UNL     1       1.903   4.459  17.864  0.00  0.00    +0.000 A 
ATOM     14  C   UNL     1       2.890   5.459  17.782  0.00  0.00    +0.000 A 
ENDBRANCH   4   6
BRANCH   1  16
ATOM     15  O   UNL     1       1.173  11.228  21.592  0.00  0.00    +0.000 OA
ATOM     16  S   UNL     1       0.534  10.056  21.032  0.00  0.00    +0.000 S 
ATOM     17  O   UNL     1       0.012   9.007  21.882  0.00  0.00    +0.000 OA
BRANCH  16  18
ATOM     18  C   UNL     1      -0.807  10.634  20.010  0.00  0.00    +0.000 A 
ATOM     19  C   UNL     1      -1.476  11.820  20.319  0.00  0.00    +0.000 A 
ATOM     20  C   UNL     1      -2.494  12.267  19.472  0.00  0.00    +0.000 A 
ATOM     21  C   UNL     1      -2.838  11.537  18.331  0.00  0.00    +0.000 A 
ATOM     22  C   UNL     1      -2.134  10.376  17.991  0.00  0.00    +0.000 A 
ATOM     23  C   UNL     1      -1.119   9.923  18.843  0.00  0.00    +0.000 A 
ATOM     24  C   UNL     1      -2.461   9.605  16.744  0.00  0.00    +0.000 C 
ATOM     25  C   UNL     1      -3.345  10.425  15.816  0.00  0.00    +0.000 C 
ATOM     26  C   UNL     1      -4.419  11.111  16.642  0.00  0.00    +0.000 C 
ATOM     27  O   UNL     1      -3.855  12.046  17.569  0.00  0.00    +0.000 OA
ENDBRANCH  16  18
ENDBRANCH   1  16
TORSDOF 3
ENDMDL
