MODEL 1
REMARK VINA RESULT:      -8.4      0.000      0.000
REMARK  Name = 
REMARK  4 active torsions:
REMARK  status: ('A' for Active; 'I' for Inactive)
REMARK    1  A    between atoms: C_1  and  C_2
REMARK    2  A    between atoms: C_6  and  C_8
REMARK    3  A    between atoms: C_8  and  N_9
REMARK    4  A    between atoms: C_21  and  C_22
REMARK                            x       y       z     vdW  Elec       q    Type
REMARK                         _______ _______ _______ _____ _____    ______ ____
ROOT
ATOM      1  C   UNL     1       1.847  11.225  18.181  0.00  0.00    +0.000 C 
ATOM      2  C   UNL     1       1.739   9.845  18.721  0.00  0.00    +0.000 A 
ATOM      3  S   UNL     1       2.538   8.543  17.914  0.00  0.00    +0.000 S 
ATOM      4  C   UNL     1       2.105   7.506  19.191  0.00  0.00    +0.000 A 
ATOM      5  N   UNL     1       2.619   6.249  19.115  0.00  0.00    +0.000 N 
ATOM      6  C   UNL     1       2.603   5.392  20.198  0.00  0.00    +0.000 C 
ATOM      7  O   UNL     1       2.064   5.602  21.286  0.00  0.00    +0.000 OA
ATOM      8  N   UNL     1       1.349   8.021  20.122  0.00  0.00    +0.000 NA
ATOM      9  C   UNL     1       1.084   9.353  19.844  0.00  0.00    +0.000 A 
ATOM     10  H   UNL     1       3.100   5.985  18.263  0.00  0.00    +0.000 HD
ENDROOT
BRANCH   9  11
ATOM     11  C   UNL     1       0.213  10.101  20.743  0.00  0.00    +0.000 A 
ATOM     12  C   UNL     1       0.150   9.734  22.099  0.00  0.00    +0.000 A 
ATOM     13  C   UNL     1      -0.711  10.394  22.980  0.00  0.00    +0.000 A 
ATOM     14  C   UNL     1      -1.516  11.425  22.511  0.00  0.00    +0.000 A 
ATOM     15 CL   UNL     1      -2.590  12.238  23.586  0.00  0.00    +0.000 Cl
ATOM     16  C   UNL     1      -1.477  11.797  21.170  0.00  0.00    +0.000 A 
ATOM     17  C   UNL     1      -0.626  11.125  20.288  0.00  0.00    +0.000 A 
ENDBRANCH   9  11
BRANCH   6  18
ATOM     18  C   UNL     1       3.250   4.043  19.921  0.00  0.00    +0.000 C 
BRANCH  18  19
ATOM     19  N   UNL     1       3.887   3.991  18.607  0.00  0.00    +0.000 N 
ATOM     20  N   UNL     1       3.076   3.678  17.538  0.00  0.00    +0.000 NA
ATOM     21  C   UNL     1       3.592   3.694  16.349  0.00  0.00    +0.000 A 
ATOM     22  C   UNL     1       4.969   4.083  16.066  0.00  0.00    +0.000 A 
ATOM     23  C   UNL     1       5.431   4.224  14.759  0.00  0.00    +0.000 A 
ATOM     24  C   UNL     1       6.733   4.685  14.545  0.00  0.00    +0.000 A 
ATOM     25  C   UNL     1       7.561   4.986  15.632  0.00  0.00    +0.000 A 
ATOM     26  C   UNL     1       7.099   4.810  16.935  0.00  0.00    +0.000 A 
ATOM     27  C   UNL     1       5.793   4.359  17.146  0.00  0.00    +0.000 A 
ATOM     28  C   UNL     1       5.257   4.205  18.503  0.00  0.00    +0.000 A 
ATOM     29  O   UNL     1       6.008   4.249  19.475  0.00  0.00    +0.000 OA
ENDBRANCH  18  19
ENDBRANCH   6  18
TORSDOF 3
ENDMDL
MODEL 2
REMARK VINA RESULT:      -8.3      5.457     10.922
REMARK  Name = 
REMARK  4 active torsions:
REMARK  status: ('A' for Active; 'I' for Inactive)
REMARK    1  A    between atoms: C_1  and  C_2
REMARK    2  A    between atoms: C_6  and  C_8
REMARK    3  A    between atoms: C_8  and  N_9
REMARK    4  A    between atoms: C_21  and  C_22
REMARK                            x       y       z     vdW  Elec       q    Type
REMARK                         _______ _______ _______ _____ _____    ______ ____
ROOT
ATOM      1  C   UNL     1       2.209  12.471  18.585  0.00  0.00    +0.000 C 
ATOM      2  C   UNL     1       0.804  11.991  18.651  0.00  0.00    +0.000 A 
ATOM      3  S   UNL     1      -0.496  13.128  18.611  0.00  0.00    +0.000 S 
ATOM      4  C   UNL     1      -1.602  11.839  18.520  0.00  0.00    +0.000 A 
ATOM      5  N   UNL     1      -2.901  12.203  18.346  0.00  0.00    +0.000 N 
ATOM      6  C   UNL     1      -3.866  11.290  17.969  0.00  0.00    +0.000 C 
ATOM      7  O   UNL     1      -3.708  10.075  17.841  0.00  0.00    +0.000 OA
ATOM      8  N   UNL     1      -1.097  10.639  18.601  0.00  0.00    +0.000 NA
ATOM      9  C   UNL     1       0.282  10.705  18.728  0.00  0.00    +0.000 A 
ATOM     10  H   UNL     1      -3.130  13.188  18.414  0.00  0.00    +0.000 HD
ENDROOT
BRANCH   9  11
ATOM     11  C   UNL     1       1.036   9.466  18.881  0.00  0.00    +0.000 A 
ATOM     12  C   UNL     1       1.055   8.825  20.133  0.00  0.00    +0.000 A 
ATOM     13  C   UNL     1       1.808   7.664  20.331  0.00  0.00    +0.000 A 
ATOM     14  C   UNL     1       2.549   7.137  19.280  0.00  0.00    +0.000 A 
ATOM     15 CL   UNL     1       3.490   5.713  19.518  0.00  0.00    +0.000 Cl
ATOM     16  C   UNL     1       2.552   7.762  18.036  0.00  0.00    +0.000 A 
ATOM     17  C   UNL     1       1.810   8.931  17.845  0.00  0.00    +0.000 A 
ENDBRANCH   9  11
BRANCH   6  18
ATOM     18  C   UNL     1      -5.250  11.898  17.800  0.00  0.00    +0.000 C 
BRANCH  18  19
ATOM     19  N   UNL     1      -6.002  11.925  19.052  0.00  0.00    +0.000 N 
ATOM     20  N   UNL     1      -6.936  10.929  19.236  0.00  0.00    +0.000 NA
ATOM     21  C   UNL     1      -7.570  10.880  20.365  0.00  0.00    +0.000 A 
ATOM     22  C   UNL     1      -7.312  11.783  21.481  0.00  0.00    +0.000 A 
ATOM     23  C   UNL     1      -7.917  11.594  22.723  0.00  0.00    +0.000 A 
ATOM     24  C   UNL     1      -7.565  12.436  23.782  0.00  0.00    +0.000 A 
ATOM     25  C   UNL     1      -6.630  13.458  23.590  0.00  0.00    +0.000 A 
ATOM     26  C   UNL     1      -6.055  13.656  22.336  0.00  0.00    +0.000 A 
ATOM     27  C   UNL     1      -6.401  12.807  21.281  0.00  0.00    +0.000 A 
ATOM     28  C   UNL     1      -5.783  12.957  19.958  0.00  0.00    +0.000 A 
ATOM     29  O   UNL     1      -5.129  13.962  19.689  0.00  0.00    +0.000 OA
ENDBRANCH  18  19
ENDBRANCH   6  18
TORSDOF 3
ENDMDL
MODEL 3
REMARK VINA RESULT:      -8.2      4.344      9.569
REMARK  Name = 
REMARK  4 active torsions:
REMARK  status: ('A' for Active; 'I' for Inactive)
REMARK    1  A    between atoms: C_1  and  C_2
REMARK    2  A    between atoms: C_6  and  C_8
REMARK    3  A    between atoms: C_8  and  N_9
REMARK    4  A    between atoms: C_21  and  C_22
REMARK                            x       y       z     vdW  Elec       q    Type
REMARK                         _______ _______ _______ _____ _____    ______ ____
ROOT
ATOM      1  C   UNL     1       3.224   4.519  20.362  0.00  0.00    +0.000 C 
ATOM      2  C   UNL     1       2.779   5.764  19.682  0.00  0.00    +0.000 A 
ATOM      3  S   UNL     1       1.659   6.817  20.469  0.00  0.00    +0.000 S 
ATOM      4  C   UNL     1       1.865   7.948  19.215  0.00  0.00    +0.000 A 
ATOM      5  N   UNL     1       1.227   9.136  19.396  0.00  0.00    +0.000 N 
ATOM      6  C   UNL     1       1.524  10.243  18.627  0.00  0.00    +0.000 C 
ATOM      7  O   UNL     1       2.291  10.277  17.664  0.00  0.00    +0.000 OA
ATOM      8  N   UNL     1       2.627   7.577  18.223  0.00  0.00    +0.000 NA
ATOM      9  C   UNL     1       3.122   6.302  18.448  0.00  0.00    +0.000 A 
ATOM     10  H   UNL     1       0.586   9.214  20.177  0.00  0.00    +0.000 HD
ENDROOT
BRANCH   9  11
ATOM     11  C   UNL     1       3.963   5.682  17.430  0.00  0.00    +0.000 A 
ATOM     12  C   UNL     1       4.728   6.501  16.581  0.00  0.00    +0.000 A 
ATOM     13  C   UNL     1       5.505   5.947  15.560  0.00  0.00    +0.000 A 
ATOM     14  C   UNL     1       5.522   4.569  15.381  0.00  0.00    +0.000 A 
ATOM     15 CL   UNL     1       6.468   3.875  14.118  0.00  0.00    +0.000 Cl
ATOM     16  C   UNL     1       4.764   3.740  16.204  0.00  0.00    +0.000 A 
ATOM     17  C   UNL     1       3.975   4.299  17.213  0.00  0.00    +0.000 A 
ENDBRANCH   9  11
BRANCH   6  18
ATOM     18  C   UNL     1       0.723  11.481  19.002  0.00  0.00    +0.000 C 
BRANCH  18  19
ATOM     19  N   UNL     1      -0.691  11.354  18.660  0.00  0.00    +0.000 N 
ATOM     20  N   UNL     1      -1.020  10.389  17.734  0.00  0.00    +0.000 NA
ATOM     21  C   UNL     1      -2.273  10.199  17.460  0.00  0.00    +0.000 A 
ATOM     22  C   UNL     1      -3.364  10.907  18.120  0.00  0.00    +0.000 A 
ATOM     23  C   UNL     1      -4.695  10.562  17.894  0.00  0.00    +0.000 A 
ATOM     24  C   UNL     1      -5.697  11.214  18.619  0.00  0.00    +0.000 A 
ATOM     25  C   UNL     1      -5.363  12.207  19.547  0.00  0.00    +0.000 A 
ATOM     26  C   UNL     1      -4.031  12.565  19.740  0.00  0.00    +0.000 A 
ATOM     27  C   UNL     1      -3.030  11.905  19.021  0.00  0.00    +0.000 A 
ATOM     28  C   UNL     1      -1.613  12.224  19.231  0.00  0.00    +0.000 A 
ATOM     29  O   UNL     1      -1.290  13.225  19.867  0.00  0.00    +0.000 OA
ENDBRANCH  18  19
ENDBRANCH   6  18
TORSDOF 3
ENDMDL
MODEL 4
REMARK VINA RESULT:      -8.2      3.994      9.823
REMARK  Name = 
REMARK  4 active torsions:
REMARK  status: ('A' for Active; 'I' for Inactive)
REMARK    1  A    between atoms: C_1  and  C_2
REMARK    2  A    between atoms: C_6  and  C_8
REMARK    3  A    between atoms: C_8  and  N_9
REMARK    4  A    between atoms: C_21  and  C_22
REMARK                            x       y       z     vdW  Elec       q    Type
REMARK                         _______ _______ _______ _____ _____    ______ ____
ROOT
ATOM      1  C   UNL     1       2.360   5.152  20.825  0.00  0.00    +0.000 C 
ATOM      2  C   UNL     1       2.132   6.418  20.081  0.00  0.00    +0.000 A 
ATOM      3  S   UNL     1       1.099   7.632  20.748  0.00  0.00    +0.000 S 
ATOM      4  C   UNL     1       1.545   8.683  19.487  0.00  0.00    +0.000 A 
ATOM      5  N   UNL     1       1.052   9.947  19.587  0.00  0.00    +0.000 N 
ATOM      6  C   UNL     1       1.547  10.981  18.817  0.00  0.00    +0.000 C 
ATOM      7  O   UNL     1       2.385  10.884  17.918  0.00  0.00    +0.000 OA
ATOM      8  N   UNL     1       2.327   8.184  18.570  0.00  0.00    +0.000 NA
ATOM      9  C   UNL     1       2.636   6.866  18.866  0.00  0.00    +0.000 A 
ATOM     10  H   UNL     1       0.368  10.133  20.311  0.00  0.00    +0.000 HD
ENDROOT
BRANCH   9  11
ATOM     11  C   UNL     1       3.467   6.110  17.935  0.00  0.00    +0.000 A 
ATOM     12  C   UNL     1       4.449   6.785  17.189  0.00  0.00    +0.000 A 
ATOM     13  C   UNL     1       5.229   6.104  16.250  0.00  0.00    +0.000 A 
ATOM     14  C   UNL     1       5.031   4.743  16.050  0.00  0.00    +0.000 A 
ATOM     15 CL   UNL     1       5.979   3.897  14.886  0.00  0.00    +0.000 Cl
ATOM     16  C   UNL     1       4.057   4.058  16.770  0.00  0.00    +0.000 A 
ATOM     17  C   UNL     1       3.268   4.745  17.698  0.00  0.00    +0.000 A 
ENDBRANCH   9  11
BRANCH   6  18
ATOM     18  C   UNL     1       0.886  12.322  19.095  0.00  0.00    +0.000 C 
BRANCH  18  19
ATOM     19  N   UNL     1      -0.138  12.233  20.133  0.00  0.00    +0.000 N 
ATOM     20  N   UNL     1       0.303  12.035  21.423  0.00  0.00    +0.000 NA
ATOM     21  C   UNL     1      -0.573  12.024  22.378  0.00  0.00    +0.000 A 
ATOM     22  C   UNL     1      -1.997  12.268  22.177  0.00  0.00    +0.000 A 
ATOM     23  C   UNL     1      -2.872  12.390  23.255  0.00  0.00    +0.000 A 
ATOM     24  C   UNL     1      -4.209  12.713  23.009  0.00  0.00    +0.000 A 
ATOM     25  C   UNL     1      -4.661  12.896  21.697  0.00  0.00    +0.000 A 
ATOM     26  C   UNL     1      -3.783  12.740  20.627  0.00  0.00    +0.000 A 
ATOM     27  C   UNL     1      -2.444  12.428  20.876  0.00  0.00    +0.000 A 
ATOM     28  C   UNL     1      -1.481  12.300  19.776  0.00  0.00    +0.000 A 
ATOM     29  O   UNL     1      -1.872  12.239  18.612  0.00  0.00    +0.000 OA
ENDBRANCH  18  19
ENDBRANCH   6  18
TORSDOF 3
ENDMDL
MODEL 5
REMARK VINA RESULT:      -8.1      1.307      1.768
REMARK  Name = 
REMARK  4 active torsions:
REMARK  status: ('A' for Active; 'I' for Inactive)
REMARK    1  A    between atoms: C_1  and  C_2
REMARK    2  A    between atoms: C_6  and  C_8
REMARK    3  A    between atoms: C_8  and  N_9
REMARK    4  A    between atoms: C_21  and  C_22
REMARK                            x       y       z     vdW  Elec       q    Type
REMARK                         _______ _______ _______ _____ _____    ______ ____
ROOT
ATOM      1  C   UNL     1       1.412  12.252  18.573  0.00  0.00    +0.000 C 
ATOM      2  C   UNL     1       1.306  10.820  18.959  0.00  0.00    +0.000 A 
ATOM      3  S   UNL     1       2.177   9.624  18.068  0.00  0.00    +0.000 S 
ATOM      4  C   UNL     1       1.699   8.452  19.203  0.00  0.00    +0.000 A 
ATOM      5  N   UNL     1       2.245   7.218  19.025  0.00  0.00    +0.000 N 
ATOM      6  C   UNL     1       2.188   6.252  20.010  0.00  0.00    +0.000 C 
ATOM      7  O   UNL     1       1.585   6.337  21.081  0.00  0.00    +0.000 OA
ATOM      8  N   UNL     1       0.881   8.853  20.137  0.00  0.00    +0.000 NA
ATOM      9  C   UNL     1       0.601  10.201  19.985  0.00  0.00    +0.000 A 
ATOM     10  H   UNL     1       2.778   7.054  18.179  0.00  0.00    +0.000 HD
ENDROOT
BRANCH   9  11
ATOM     11  C   UNL     1      -0.335  10.836  20.906  0.00  0.00    +0.000 A 
ATOM     12  C   UNL     1      -0.330  10.455  22.259  0.00  0.00    +0.000 A 
ATOM     13  C   UNL     1      -1.246  11.003  23.161  0.00  0.00    +0.000 A 
ATOM     14  C   UNL     1      -2.175  11.936  22.715  0.00  0.00    +0.000 A 
ATOM     15 CL   UNL     1      -3.317  12.609  23.817  0.00  0.00    +0.000 Cl
ATOM     16  C   UNL     1      -2.204  12.320  21.377  0.00  0.00    +0.000 A 
ATOM     17  C   UNL     1      -1.296  11.758  20.475  0.00  0.00    +0.000 A 
ENDBRANCH   9  11
BRANCH   6  18
ATOM     18  C   UNL     1       2.880   4.951  19.631  0.00  0.00    +0.000 C 
BRANCH  18  19
ATOM     19  N   UNL     1       3.916   5.146  18.620  0.00  0.00    +0.000 N 
ATOM     20  N   UNL     1       4.985   5.941  18.973  0.00  0.00    +0.000 NA
ATOM     21  C   UNL     1       5.957   6.076  18.127  0.00  0.00    +0.000 A 
ATOM     22  C   UNL     1       6.018   5.388  16.843  0.00  0.00    +0.000 A 
ATOM     23  C   UNL     1       7.153   5.454  16.036  0.00  0.00    +0.000 A 
ATOM     24  C   UNL     1       7.192   4.703  14.858  0.00  0.00    +0.000 A 
ATOM     25  C   UNL     1       6.099   3.910  14.491  0.00  0.00    +0.000 A 
ATOM     26  C   UNL     1       4.958   3.877  15.290  0.00  0.00    +0.000 A 
ATOM     27  C   UNL     1       4.925   4.620  16.473  0.00  0.00    +0.000 A 
ATOM     28  C   UNL     1       3.759   4.576  17.361  0.00  0.00    +0.000 A 
ATOM     29  O   UNL     1       2.705   4.071  16.978  0.00  0.00    +0.000 OA
ENDBRANCH  18  19
ENDBRANCH   6  18
TORSDOF 3
ENDMDL
MODEL 6
REMARK VINA RESULT:      -7.9      2.417      3.098
REMARK  Name = 
REMARK  4 active torsions:
REMARK  status: ('A' for Active; 'I' for Inactive)
REMARK    1  A    between atoms: C_1  and  C_2
REMARK    2  A    between atoms: C_6  and  C_8
REMARK    3  A    between atoms: C_8  and  N_9
REMARK    4  A    between atoms: C_21  and  C_22
REMARK                            x       y       z     vdW  Elec       q    Type
REMARK                         _______ _______ _______ _____ _____    ______ ____
ROOT
ATOM      1  C   UNL     1      -1.106  11.395  22.698  0.00  0.00    +0.000 C 
ATOM      2  C   UNL     1      -0.116  10.502  22.040  0.00  0.00    +0.000 A 
ATOM      3  S   UNL     1       0.080   8.879  22.597  0.00  0.00    +0.000 S 
ATOM      4  C   UNL     1       1.124   8.572  21.290  0.00  0.00    +0.000 A 
ATOM      5  N   UNL     1       1.536   7.281  21.170  0.00  0.00    +0.000 N 
ATOM      6  C   UNL     1       2.139   6.816  20.018  0.00  0.00    +0.000 C 
ATOM      7  O   UNL     1       2.456   7.493  19.038  0.00  0.00    +0.000 OA
ATOM      8  N   UNL     1       1.406   9.591  20.525  0.00  0.00    +0.000 NA
ATOM      9  C   UNL     1       0.743  10.723  20.970  0.00  0.00    +0.000 A 
ATOM     10  H   UNL     1       1.306   6.639  21.919  0.00  0.00    +0.000 HD
ENDROOT
BRANCH   9  11
ATOM     11  C   UNL     1       0.961  11.987  20.274  0.00  0.00    +0.000 A 
ATOM     12  C   UNL     1       1.907  12.895  20.783  0.00  0.00    +0.000 A 
ATOM     13  C   UNL     1       2.107  14.137  20.175  0.00  0.00    +0.000 A 
ATOM     14  C   UNL     1       1.362  14.481  19.053  0.00  0.00    +0.000 A 
ATOM     15 CL   UNL     1       1.593  16.014  18.302  0.00  0.00    +0.000 Cl
ATOM     16  C   UNL     1       0.413  13.601  18.540  0.00  0.00    +0.000 A 
ATOM     17  C   UNL     1       0.204  12.366  19.159  0.00  0.00    +0.000 A 
ENDBRANCH   9  11
BRANCH   6  18
ATOM     18  C   UNL     1       2.500   5.340  20.069  0.00  0.00    +0.000 C 
BRANCH  18  19
ATOM     19  N   UNL     1       3.284   4.918  18.911  0.00  0.00    +0.000 N 
ATOM     20  N   UNL     1       2.594   4.321  17.879  0.00  0.00    +0.000 NA
ATOM     21  C   UNL     1       3.246   4.001  16.806  0.00  0.00    +0.000 A 
ATOM     22  C   UNL     1       4.661   4.288  16.599  0.00  0.00    +0.000 A 
ATOM     23  C   UNL     1       5.278   4.055  15.371  0.00  0.00    +0.000 A 
ATOM     24  C   UNL     1       6.613   4.431  15.201  0.00  0.00    +0.000 A 
ATOM     25  C   UNL     1       7.319   5.021  16.256  0.00  0.00    +0.000 A 
ATOM     26  C   UNL     1       6.700   5.221  17.488  0.00  0.00    +0.000 A 
ATOM     27  C   UNL     1       5.362   4.852  17.653  0.00  0.00    +0.000 A 
ATOM     28  C   UNL     1       4.664   5.088  18.922  0.00  0.00    +0.000 A 
ATOM     29  O   UNL     1       5.297   5.399  19.929  0.00  0.00    +0.000 OA
ENDBRANCH  18  19
ENDBRANCH   6  18
TORSDOF 3
ENDMDL
MODEL 7
REMARK VINA RESULT:      -7.8      3.340      5.187
REMARK  Name = 
REMARK  4 active torsions:
REMARK  status: ('A' for Active; 'I' for Inactive)
REMARK    1  A    between atoms: C_1  and  C_2
REMARK    2  A    between atoms: C_6  and  C_8
REMARK    3  A    between atoms: C_8  and  N_9
REMARK    4  A    between atoms: C_21  and  C_22
REMARK                            x       y       z     vdW  Elec       q    Type
REMARK                         _______ _______ _______ _____ _____    ______ ____
ROOT
ATOM      1  C   UNL     1      -4.891  11.663  16.774  0.00  0.00    +0.000 C 
ATOM      2  C   UNL     1      -3.634  11.278  17.467  0.00  0.00    +0.000 A 
ATOM      3  S   UNL     1      -2.536  10.181  16.708  0.00  0.00    +0.000 S 
ATOM      4  C   UNL     1      -1.420  10.455  17.963  0.00  0.00    +0.000 A 
ATOM      5  N   UNL     1      -0.208   9.858  17.799  0.00  0.00    +0.000 N 
ATOM      6  C   UNL     1       0.884  10.211  18.567  0.00  0.00    +0.000 C 
ATOM      7  O   UNL     1       0.884  10.999  19.514  0.00  0.00    +0.000 OA
ATOM      8  N   UNL     1      -1.824  11.223  18.937  0.00  0.00    +0.000 NA
ATOM      9  C   UNL     1      -3.115  11.666  18.697  0.00  0.00    +0.000 A 
ATOM     10  H   UNL     1      -0.102   9.204  17.033  0.00  0.00    +0.000 HD
ENDROOT
BRANCH   9  11
ATOM     11  C   UNL     1      -3.770  12.504  19.694  0.00  0.00    +0.000 A 
ATOM     12  C   UNL     1      -2.996  13.400  20.453  0.00  0.00    +0.000 A 
ATOM     13  C   UNL     1      -3.580  14.182  21.453  0.00  0.00    +0.000 A 
ATOM     14  C   UNL     1      -4.942  14.072  21.703  0.00  0.00    +0.000 A 
ATOM     15 CL   UNL     1      -5.670  15.023  22.943  0.00  0.00    +0.000 Cl
ATOM     16  C   UNL     1      -5.725  13.184  20.972  0.00  0.00    +0.000 A 
ATOM     17  C   UNL     1      -5.136  12.392  19.982  0.00  0.00    +0.000 A 
ENDBRANCH   9  11
BRANCH   6  18
ATOM     18  C   UNL     1       2.152   9.449  18.214  0.00  0.00    +0.000 C 
BRANCH  18  19
ATOM     19  N   UNL     1       2.224   8.150  18.876  0.00  0.00    +0.000 N 
ATOM     20  N   UNL     1       1.618   8.049  20.110  0.00  0.00    +0.000 NA
ATOM     21  C   UNL     1       1.599   6.892  20.693  0.00  0.00    +0.000 A 
ATOM     22  C   UNL     1       2.129   5.672  20.095  0.00  0.00    +0.000 A 
ATOM     23  C   UNL     1       1.952   4.429  20.702  0.00  0.00    +0.000 A 
ATOM     24  C   UNL     1       2.402   3.283  20.041  0.00  0.00    +0.000 A 
ATOM     25  C   UNL     1       3.032   3.388  18.797  0.00  0.00    +0.000 A 
ATOM     26  C   UNL     1       3.232   4.638  18.215  0.00  0.00    +0.000 A 
ATOM     27  C   UNL     1       2.772   5.782  18.873  0.00  0.00    +0.000 A 
ATOM     28  C   UNL     1       2.924   7.112  18.271  0.00  0.00    +0.000 A 
ATOM     29  O   UNL     1       3.654   7.271  17.295  0.00  0.00    +0.000 OA
ENDBRANCH  18  19
ENDBRANCH   6  18
TORSDOF 3
ENDMDL
MODEL 8
REMARK VINA RESULT:      -7.8      4.280      9.703
REMARK  Name = 
REMARK  4 active torsions:
REMARK  status: ('A' for Active; 'I' for Inactive)
REMARK    1  A    between atoms: C_1  and  C_2
REMARK    2  A    between atoms: C_6  and  C_8
REMARK    3  A    between atoms: C_8  and  N_9
REMARK    4  A    between atoms: C_21  and  C_22
REMARK                            x       y       z     vdW  Elec       q    Type
REMARK                         _______ _______ _______ _____ _____    ______ ____
ROOT
ATOM      1  C   UNL     1       2.270   5.401  20.991  0.00  0.00    +0.000 C 
ATOM      2  C   UNL     1       2.011   6.648  20.225  0.00  0.00    +0.000 A 
ATOM      3  S   UNL     1       0.977   7.863  20.886  0.00  0.00    +0.000 S 
ATOM      4  C   UNL     1       1.385   8.892  19.594  0.00  0.00    +0.000 A 
ATOM      5  N   UNL     1       0.879  10.152  19.677  0.00  0.00    +0.000 N 
ATOM      6  C   UNL     1       1.346  11.175  18.875  0.00  0.00    +0.000 C 
ATOM      7  O   UNL     1       2.166  11.068  17.962  0.00  0.00    +0.000 OA
ATOM      8  N   UNL     1       2.155   8.383  18.672  0.00  0.00    +0.000 NA
ATOM      9  C   UNL     1       2.485   7.075  18.990  0.00  0.00    +0.000 A 
ATOM     10  H   UNL     1       0.207  10.346  20.410  0.00  0.00    +0.000 HD
ENDROOT
BRANCH   9  11
ATOM     11  C   UNL     1       3.306   6.308  18.059  0.00  0.00    +0.000 A 
ATOM     12  C   UNL     1       3.148   4.912  17.995  0.00  0.00    +0.000 A 
ATOM     13  C   UNL     1       3.951   4.138  17.154  0.00  0.00    +0.000 A 
ATOM     14  C   UNL     1       4.920   4.755  16.370  0.00  0.00    +0.000 A 
ATOM     15 CL   UNL     1       5.924   3.809  15.338  0.00  0.00    +0.000 Cl
ATOM     16  C   UNL     1       5.100   6.134  16.426  0.00  0.00    +0.000 A 
ATOM     17  C   UNL     1       4.305   6.904  17.280  0.00  0.00    +0.000 A 
ENDBRANCH   9  11
BRANCH   6  18
ATOM     18  C   UNL     1       0.674  12.514  19.137  0.00  0.00    +0.000 C 
BRANCH  18  19
ATOM     19  N   UNL     1      -0.783  12.428  19.071  0.00  0.00    +0.000 N 
ATOM     20  N   UNL     1      -1.317  11.813  17.960  0.00  0.00    +0.000 NA
ATOM     21  C   UNL     1      -2.602  11.654  17.902  0.00  0.00    +0.000 A 
ATOM     22  C   UNL     1      -3.516  12.035  18.973  0.00  0.00    +0.000 A 
ATOM     23  C   UNL     1      -4.871  11.709  18.922  0.00  0.00    +0.000 A 
ATOM     24  C   UNL     1      -5.683  12.020  20.016  0.00  0.00    +0.000 A 
ATOM     25  C   UNL     1      -5.144  12.660  21.136  0.00  0.00    +0.000 A 
ATOM     26  C   UNL     1      -3.795  13.009  21.162  0.00  0.00    +0.000 A 
ATOM     27  C   UNL     1      -2.982  12.688  20.072  0.00  0.00    +0.000 A 
ATOM     28  C   UNL     1      -1.548  13.000  20.082  0.00  0.00    +0.000 A 
ATOM     29  O   UNL     1      -1.081  13.746  20.940  0.00  0.00    +0.000 OA
ENDBRANCH  18  19
ENDBRANCH   6  18
TORSDOF 3
ENDMDL
MODEL 9
REMARK VINA RESULT:      -7.7      2.801      4.202
REMARK  Name = 
REMARK  4 active torsions:
REMARK  status: ('A' for Active; 'I' for Inactive)
REMARK    1  A    between atoms: C_1  and  C_2
REMARK    2  A    between atoms: C_6  and  C_8
REMARK    3  A    between atoms: C_8  and  N_9
REMARK    4  A    between atoms: C_21  and  C_22
REMARK                            x       y       z     vdW  Elec       q    Type
REMARK                         _______ _______ _______ _____ _____    ______ ____
ROOT
ATOM      1  C   UNL     1      -0.415  14.031  18.554  0.00  0.00    +0.000 C 
ATOM      2  C   UNL     1      -0.385  12.592  18.926  0.00  0.00    +0.000 A 
ATOM      3  S   UNL     1       1.131  11.777  19.080  0.00  0.00    +0.000 S 
ATOM      4  C   UNL     1       0.316  10.407  19.674  0.00  0.00    +0.000 A 
ATOM      5  N   UNL     1       1.121   9.393  20.094  0.00  0.00    +0.000 N 
ATOM      6  C   UNL     1       0.634   8.351  20.858  0.00  0.00    +0.000 C 
ATOM      7  O   UNL     1      -0.545   8.158  21.161  0.00  0.00    +0.000 OA
ATOM      8  N   UNL     1      -0.987  10.471  19.689  0.00  0.00    +0.000 NA
ATOM      9  C   UNL     1      -1.413  11.702  19.215  0.00  0.00    +0.000 A 
ATOM     10  H   UNL     1       2.114   9.468  19.908  0.00  0.00    +0.000 HD
ENDROOT
BRANCH   9  11
ATOM     11  C   UNL     1      -2.844  11.960  19.107  0.00  0.00    +0.000 A 
ATOM     12  C   UNL     1      -3.504  12.613  20.164  0.00  0.00    +0.000 A 
ATOM     13  C   UNL     1      -4.884  12.831  20.120  0.00  0.00    +0.000 A 
ATOM     14  C   UNL     1      -5.614  12.397  19.020  0.00  0.00    +0.000 A 
ATOM     15 CL   UNL     1      -7.317  12.651  18.962  0.00  0.00    +0.000 Cl
ATOM     16  C   UNL     1      -4.982  11.740  17.968  0.00  0.00    +0.000 A 
ATOM     17  C   UNL     1      -3.605  11.509  18.022  0.00  0.00    +0.000 A 
ENDBRANCH   9  11
BRANCH   6  18
ATOM     18  C   UNL     1       1.694   7.334  21.251  0.00  0.00    +0.000 C 
BRANCH  18  19
ATOM     19  N   UNL     1       2.168   6.554  20.110  0.00  0.00    +0.000 N 
ATOM     20  N   UNL     1       2.809   7.250  19.108  0.00  0.00    +0.000 NA
ATOM     21  C   UNL     1       3.306   6.581  18.115  0.00  0.00    +0.000 A 
ATOM     22  C   UNL     1       3.281   5.125  18.023  0.00  0.00    +0.000 A 
ATOM     23  C   UNL     1       3.958   4.450  17.009  0.00  0.00    +0.000 A 
ATOM     24  C   UNL     1       3.975   3.053  17.020  0.00  0.00    +0.000 A 
ATOM     25  C   UNL     1       3.309   2.347  18.028  0.00  0.00    +0.000 A 
ATOM     26  C   UNL     1       2.610   3.033  19.018  0.00  0.00    +0.000 A 
ATOM     27  C   UNL     1       2.602   4.431  19.011  0.00  0.00    +0.000 A 
ATOM     28  C   UNL     1       1.914   5.188  20.063  0.00  0.00    +0.000 A 
ATOM     29  O   UNL     1       1.145   4.619  20.835  0.00  0.00    +0.000 OA
ENDBRANCH  18  19
ENDBRANCH   6  18
TORSDOF 3
ENDMDL
