MODEL 1
REMARK VINA RESULT:      -8.6      0.000      0.000
REMARK  Name = 
REMARK  3 active torsions:
REMARK  status: ('A' for Active; 'I' for Inactive)
REMARK    1  A    between atoms: C_2  and  C_19
REMARK    2  A    between atoms: N_3  and  C_4
REMARK    3  A    between atoms: C_7  and  N_8
REMARK                            x       y       z     vdW  Elec       q    Type
REMARK                         _______ _______ _______ _____ _____    ______ ____
ROOT
ATOM      1  C   UNL     1       1.005   9.207  19.906  0.00  0.00    +0.000 A 
ATOM      2  C   UNL     1       1.522   8.087  20.549  0.00  0.00    +0.000 A 
ATOM      3  C   UNL     1       2.296   7.172  19.858  0.00  0.00    +0.000 A 
ATOM      4  C   UNL     1       2.571   7.356  18.505  0.00  0.00    +0.000 A 
ATOM      5  C   UNL     1       2.130   8.497  17.840  0.00  0.00    +0.000 A 
ATOM      6  C   UNL     1       1.321   9.414  18.547  0.00  0.00    +0.000 A 
ENDROOT
BRANCH   4   7
ATOM      7  N   UNL     1       3.263   6.295  17.871  0.00  0.00    +0.000 N 
ATOM      8  C   UNL     1       2.851   4.981  18.011  0.00  0.00    +0.000 A 
ATOM      9  N   UNL     1       3.854   4.142  18.084  0.00  0.00    +0.000 NA
ATOM     10  C   UNL     1       4.958   4.926  17.908  0.00  0.00    +0.000 A 
ATOM     11  C   UNL     1       6.309   4.565  18.047  0.00  0.00    +0.000 A 
ATOM     12  C   UNL     1       7.290   5.527  17.796  0.00  0.00    +0.000 A 
ATOM     13  C   UNL     1       6.933   6.815  17.386  0.00  0.00    +0.000 A 
ATOM     14  C   UNL     1       5.591   7.211  17.300  0.00  0.00    +0.000 A 
ATOM     15  C   UNL     1       4.623   6.250  17.614  0.00  0.00    +0.000 A 
ENDBRANCH   4   7
BRANCH   1  18
ATOM     16  O   UNL     1       1.642  11.840  21.026  0.00  0.00    +0.000 OA
ATOM     17  C   UNL     1       0.548  11.307  21.150  0.00  0.00    +0.000 C 
ATOM     18  N   UNL     1       0.146  10.104  20.579  0.00  0.00    +0.000 N 
ATOM     19  H   UNL     1      -0.843   9.880  20.586  0.00  0.00    +0.000 HD
BRANCH  17  20
ATOM     20  C   UNL     1      -0.462  12.050  21.940  0.00  0.00    +0.000 A 
ATOM     21  C   UNL     1      -0.240  13.435  22.127  0.00  0.00    +0.000 A 
ATOM     22  C   UNL     1      -1.120  14.209  22.882  0.00  0.00    +0.000 A 
ATOM     23  C   UNL     1      -2.204  13.567  23.434  0.00  0.00    +0.000 A 
ATOM     24  C   UNL     1      -2.413  12.214  23.275  0.00  0.00    +0.000 A 
ATOM     25  C   UNL     1      -1.556  11.418  22.541  0.00  0.00    +0.000 A 
ATOM     26  O   UNL     1      -3.531  11.789  23.921  0.00  0.00    +0.000 OA
ATOM     27  C   UNL     1      -4.047  13.040  24.425  0.00  0.00    +0.000 C 
ATOM     28  O   UNL     1      -3.168  14.158  24.189  0.00  0.00    +0.000 OA
ENDBRANCH  17  20
ENDBRANCH   1  18
TORSDOF 3
ENDMDL
MODEL 2
REMARK VINA RESULT:      -8.5      6.911      9.250
REMARK  Name = 
REMARK  3 active torsions:
REMARK  status: ('A' for Active; 'I' for Inactive)
REMARK    1  A    between atoms: C_2  and  C_19
REMARK    2  A    between atoms: N_3  and  C_4
REMARK    3  A    between atoms: C_7  and  N_8
REMARK                            x       y       z     vdW  Elec       q    Type
REMARK                         _______ _______ _______ _____ _____    ______ ____
ROOT
ATOM      1  C   UNL     1       7.803   8.357  17.775  0.00  0.00    +0.000 A 
ATOM      2  C   UNL     1       6.560   8.224  17.166  0.00  0.00    +0.000 A 
ATOM      3  C   UNL     1       5.839   7.049  17.283  0.00  0.00    +0.000 A 
ATOM      4  C   UNL     1       6.348   5.976  18.011  0.00  0.00    +0.000 A 
ATOM      5  C   UNL     1       7.557   6.091  18.692  0.00  0.00    +0.000 A 
ATOM      6  C   UNL     1       8.296   7.285  18.548  0.00  0.00    +0.000 A 
ENDROOT
BRANCH   4   7
ATOM      7  N   UNL     1       5.587   4.783  17.957  0.00  0.00    +0.000 N 
ATOM      8  C   UNL     1       5.657   3.933  16.867  0.00  0.00    +0.000 A 
ATOM      9  N   UNL     1       4.500   3.396  16.570  0.00  0.00    +0.000 NA
ATOM     10  C   UNL     1       3.661   3.849  17.547  0.00  0.00    +0.000 A 
ATOM     11  C   UNL     1       2.265   3.705  17.627  0.00  0.00    +0.000 A 
ATOM     12  C   UNL     1       1.599   4.233  18.736  0.00  0.00    +0.000 A 
ATOM     13  C   UNL     1       2.312   4.865  19.758  0.00  0.00    +0.000 A 
ATOM     14  C   UNL     1       3.695   5.072  19.667  0.00  0.00    +0.000 A 
ATOM     15  C   UNL     1       4.336   4.589  18.520  0.00  0.00    +0.000 A 
ENDBRANCH   4   7
BRANCH   1  18
ATOM     16  O   UNL     1       9.032  10.056  19.823  0.00  0.00    +0.000 OA
ATOM     17  C   UNL     1       9.067  10.316  18.628  0.00  0.00    +0.000 C 
ATOM     18  N   UNL     1       8.584   9.521  17.595  0.00  0.00    +0.000 N 
ATOM     19  H   UNL     1       8.861   9.750  16.647  0.00  0.00    +0.000 HD
BRANCH  17  20
ATOM     20  C   UNL     1       9.747  11.577  18.247  0.00  0.00    +0.000 A 
ATOM     21  C   UNL     1      11.136  11.504  17.985  0.00  0.00    +0.000 A 
ATOM     22  C   UNL     1      11.865  12.646  17.651  0.00  0.00    +0.000 A 
ATOM     23  C   UNL     1      11.176  13.835  17.590  0.00  0.00    +0.000 A 
ATOM     24  C   UNL     1       9.828  13.914  17.867  0.00  0.00    +0.000 A 
ATOM     25  C   UNL     1       9.079  12.806  18.209  0.00  0.00    +0.000 A 
ATOM     26  O   UNL     1       9.359  15.187  17.765  0.00  0.00    +0.000 OA
ATOM     27  C   UNL     1      10.542  15.877  17.307  0.00  0.00    +0.000 C 
ATOM     28  O   UNL     1      11.715  15.041  17.273  0.00  0.00    +0.000 OA
ENDBRANCH  17  20
ENDBRANCH   1  18
TORSDOF 3
ENDMDL
MODEL 3
REMARK VINA RESULT:      -8.4      6.875      9.105
REMARK  Name = 
REMARK  3 active torsions:
REMARK  status: ('A' for Active; 'I' for Inactive)
REMARK    1  A    between atoms: C_2  and  C_19
REMARK    2  A    between atoms: N_3  and  C_4
REMARK    3  A    between atoms: C_7  and  N_8
REMARK                            x       y       z     vdW  Elec       q    Type
REMARK                         _______ _______ _______ _____ _____    ______ ____
ROOT
ATOM      1  C   UNL     1       6.798   7.537  17.518  0.00  0.00    +0.000 A 
ATOM      2  C   UNL     1       7.340   6.433  18.165  0.00  0.00    +0.000 A 
ATOM      3  C   UNL     1       6.583   5.292  18.367  0.00  0.00    +0.000 A 
ATOM      4  C   UNL     1       5.263   5.231  17.926  0.00  0.00    +0.000 A 
ATOM      5  C   UNL     1       4.703   6.289  17.215  0.00  0.00    +0.000 A 
ATOM      6  C   UNL     1       5.475   7.458  17.033  0.00  0.00    +0.000 A 
ENDROOT
BRANCH   4   7
ATOM      7  N   UNL     1       4.546   4.068  18.299  0.00  0.00    +0.000 N 
ATOM      8  C   UNL     1       4.383   3.011  17.422  0.00  0.00    +0.000 A 
ATOM      9  N   UNL     1       3.204   2.448  17.524  0.00  0.00    +0.000 NA
ATOM     10  C   UNL     1       2.606   3.110  18.556  0.00  0.00    +0.000 A 
ATOM     11  C   UNL     1       1.273   3.015  18.992  0.00  0.00    +0.000 A 
ATOM     12  C   UNL     1       0.872   3.773  20.095  0.00  0.00    +0.000 A 
ATOM     13  C   UNL     1       1.786   4.588  20.767  0.00  0.00    +0.000 A 
ATOM     14  C   UNL     1       3.103   4.743  20.311  0.00  0.00    +0.000 A 
ATOM     15  C   UNL     1       3.470   4.021  19.169  0.00  0.00    +0.000 A 
ENDBRANCH   4   7
BRANCH   1  18
ATOM     16  O   UNL     1       8.907   8.589  19.261  0.00  0.00    +0.000 OA
ATOM     17  C   UNL     1       8.467   9.202  18.297  0.00  0.00    +0.000 C 
ATOM     18  N   UNL     1       7.533   8.737  17.379  0.00  0.00    +0.000 N 
ATOM     19  H   UNL     1       7.411   9.256  16.516  0.00  0.00    +0.000 HD
BRANCH  17  20
ATOM     20  C   UNL     1       9.035  10.550  18.057  0.00  0.00    +0.000 A 
ATOM     21  C   UNL     1       8.125  11.579  17.715  0.00  0.00    +0.000 A 
ATOM     22  C   UNL     1       8.572  12.871  17.441  0.00  0.00    +0.000 A 
ATOM     23  C   UNL     1       9.927  13.096  17.516  0.00  0.00    +0.000 A 
ATOM     24  C   UNL     1      10.819  12.092  17.825  0.00  0.00    +0.000 A 
ATOM     25  C   UNL     1      10.411  10.800  18.094  0.00  0.00    +0.000 A 
ATOM     26  O   UNL     1      12.106  12.532  17.824  0.00  0.00    +0.000 OA
ATOM     27  C   UNL     1      11.912  13.940  17.569  0.00  0.00    +0.000 C 
ATOM     28  O   UNL     1      10.541  14.288  17.292  0.00  0.00    +0.000 OA
ENDBRANCH  17  20
ENDBRANCH   1  18
TORSDOF 3
ENDMDL
MODEL 4
REMARK VINA RESULT:      -8.3      6.978      9.476
REMARK  Name = 
REMARK  3 active torsions:
REMARK  status: ('A' for Active; 'I' for Inactive)
REMARK    1  A    between atoms: C_2  and  C_19
REMARK    2  A    between atoms: N_3  and  C_4
REMARK    3  A    between atoms: C_7  and  N_8
REMARK                            x       y       z     vdW  Elec       q    Type
REMARK                         _______ _______ _______ _____ _____    ______ ____
ROOT
ATOM      1  C   UNL     1       8.139   8.417  18.116  0.00  0.00    +0.000 A 
ATOM      2  C   UNL     1       6.995   8.370  17.327  0.00  0.00    +0.000 A 
ATOM      3  C   UNL     1       6.221   7.225  17.276  0.00  0.00    +0.000 A 
ATOM      4  C   UNL     1       6.574   6.098  18.014  0.00  0.00    +0.000 A 
ATOM      5  C   UNL     1       7.674   6.125  18.867  0.00  0.00    +0.000 A 
ATOM      6  C   UNL     1       8.472   7.289  18.895  0.00  0.00    +0.000 A 
ENDROOT
BRANCH   4   7
ATOM      7  N   UNL     1       5.784   4.944  17.787  0.00  0.00    +0.000 N 
ATOM      8  C   UNL     1       5.799   4.290  16.568  0.00  0.00    +0.000 A 
ATOM      9  N   UNL     1       4.620   3.831  16.227  0.00  0.00    +0.000 NA
ATOM     10  C   UNL     1       3.824   4.128  17.295  0.00  0.00    +0.000 A 
ATOM     11  C   UNL     1       2.429   3.997  17.400  0.00  0.00    +0.000 A 
ATOM     12  C   UNL     1       1.812   4.342  18.606  0.00  0.00    +0.000 A 
ATOM     13  C   UNL     1       2.572   4.780  19.693  0.00  0.00    +0.000 A 
ATOM     14  C   UNL     1       3.957   4.974  19.589  0.00  0.00    +0.000 A 
ATOM     15  C   UNL     1       4.548   4.680  18.354  0.00  0.00    +0.000 A 
ENDBRANCH   4   7
BRANCH   1  18
ATOM     16  O   UNL     1       8.984  10.062  20.391  0.00  0.00    +0.000 OA
ATOM     17  C   UNL     1       9.273  10.324  19.231  0.00  0.00    +0.000 C 
ATOM     18  N   UNL     1       8.983   9.551  18.112  0.00  0.00    +0.000 N 
ATOM     19  H   UNL     1       9.457   9.772  17.243  0.00  0.00    +0.000 HD
BRANCH  17  20
ATOM     20  C   UNL     1      10.062  11.559  19.011  0.00  0.00    +0.000 A 
ATOM     21  C   UNL     1      10.579  12.204  20.159  0.00  0.00    +0.000 A 
ATOM     22  C   UNL     1      11.306  13.389  20.052  0.00  0.00    +0.000 A 
ATOM     23  C   UNL     1      11.494  13.898  18.788  0.00  0.00    +0.000 A 
ATOM     24  C   UNL     1      10.973  13.286  17.668  0.00  0.00    +0.000 A 
ATOM     25  C   UNL     1      10.241  12.117  17.740  0.00  0.00    +0.000 A 
ATOM     26  O   UNL     1      11.264  13.970  16.529  0.00  0.00    +0.000 OA
ATOM     27  C   UNL     1      12.099  15.026  17.051  0.00  0.00    +0.000 C 
ATOM     28  O   UNL     1      12.182  15.032  18.490  0.00  0.00    +0.000 OA
ENDBRANCH  17  20
ENDBRANCH   1  18
TORSDOF 3
ENDMDL
MODEL 5
REMARK VINA RESULT:      -8.2      2.011      2.785
REMARK  Name = 
REMARK  3 active torsions:
REMARK  status: ('A' for Active; 'I' for Inactive)
REMARK    1  A    between atoms: C_2  and  C_19
REMARK    2  A    between atoms: N_3  and  C_4
REMARK    3  A    between atoms: C_7  and  N_8
REMARK                            x       y       z     vdW  Elec       q    Type
REMARK                         _______ _______ _______ _____ _____    ______ ____
ROOT
ATOM      1  C   UNL     1       1.963   7.863  19.401  0.00  0.00    +0.000 A 
ATOM      2  C   UNL     1       2.784   7.989  18.285  0.00  0.00    +0.000 A 
ATOM      3  C   UNL     1       3.689   6.995  17.960  0.00  0.00    +0.000 A 
ATOM      4  C   UNL     1       3.795   5.850  18.745  0.00  0.00    +0.000 A 
ATOM      5  C   UNL     1       2.946   5.653  19.831  0.00  0.00    +0.000 A 
ATOM      6  C   UNL     1       2.041   6.683  20.170  0.00  0.00    +0.000 A 
ENDROOT
BRANCH   4   7
ATOM      7  N   UNL     1       4.841   4.961  18.394  0.00  0.00    +0.000 N 
ATOM      8  C   UNL     1       5.966   4.823  19.187  0.00  0.00    +0.000 A 
ATOM      9  N   UNL     1       7.060   4.657  18.487  0.00  0.00    +0.000 NA
ATOM     10  C   UNL     1       6.625   4.606  17.194  0.00  0.00    +0.000 A 
ATOM     11  C   UNL     1       7.396   4.594  16.019  0.00  0.00    +0.000 A 
ATOM     12  C   UNL     1       6.741   4.517  14.788  0.00  0.00    +0.000 A 
ATOM     13  C   UNL     1       5.348   4.424  14.729  0.00  0.00    +0.000 A 
ATOM     14  C   UNL     1       4.559   4.496  15.885  0.00  0.00    +0.000 A 
ATOM     15  C   UNL     1       5.232   4.633  17.106  0.00  0.00    +0.000 A 
ENDBRANCH   4   7
BRANCH   1  18
ATOM     16  O   UNL     1       1.629   9.055  22.058  0.00  0.00    +0.000 OA
ATOM     17  C   UNL     1       0.940   9.363  21.095  0.00  0.00    +0.000 C 
ATOM     18  N   UNL     1       1.093   8.906  19.790  0.00  0.00    +0.000 N 
ATOM     19  H   UNL     1       0.597   9.394  19.053  0.00  0.00    +0.000 HD
BRANCH  17  20
ATOM     20  C   UNL     1      -0.122  10.367  21.338  0.00  0.00    +0.000 A 
ATOM     21  C   UNL     1      -0.550  10.538  22.676  0.00  0.00    +0.000 A 
ATOM     22  C   UNL     1      -1.567  11.438  22.995  0.00  0.00    +0.000 A 
ATOM     23  C   UNL     1      -2.130  12.144  21.957  0.00  0.00    +0.000 A 
ATOM     24  C   UNL     1      -1.732  11.963  20.650  0.00  0.00    +0.000 A 
ATOM     25  C   UNL     1      -0.735  11.075  20.298  0.00  0.00    +0.000 A 
ATOM     26  O   UNL     1      -2.435  12.747  19.789  0.00  0.00    +0.000 OA
ATOM     27  C   UNL     1      -3.251  13.502  20.711  0.00  0.00    +0.000 C 
ATOM     28  O   UNL     1      -3.120  13.066  22.079  0.00  0.00    +0.000 OA
ENDBRANCH  17  20
ENDBRANCH   1  18
TORSDOF 3
ENDMDL
MODEL 6
REMARK VINA RESULT:      -8.2      1.218      1.458
REMARK  Name = 
REMARK  3 active torsions:
REMARK  status: ('A' for Active; 'I' for Inactive)
REMARK    1  A    between atoms: C_2  and  C_19
REMARK    2  A    between atoms: N_3  and  C_4
REMARK    3  A    between atoms: C_7  and  N_8
REMARK                            x       y       z     vdW  Elec       q    Type
REMARK                         _______ _______ _______ _____ _____    ______ ____
ROOT
ATOM      1  C   UNL     1       0.996   9.072  19.459  0.00  0.00    +0.000 A 
ATOM      2  C   UNL     1       1.457   7.998  20.213  0.00  0.00    +0.000 A 
ATOM      3  C   UNL     1       2.348   7.088  19.672  0.00  0.00    +0.000 A 
ATOM      4  C   UNL     1       2.798   7.230  18.362  0.00  0.00    +0.000 A 
ATOM      5  C   UNL     1       2.414   8.328  17.595  0.00  0.00    +0.000 A 
ATOM      6  C   UNL     1       1.487   9.239  18.147  0.00  0.00    +0.000 A 
ENDROOT
BRANCH   4   7
ATOM      7  N   UNL     1       3.604   6.173  17.873  0.00  0.00    +0.000 N 
ATOM      8  C   UNL     1       3.289   4.850  18.128  0.00  0.00    +0.000 A 
ATOM      9  N   UNL     1       4.350   4.110  18.333  0.00  0.00    +0.000 NA
ATOM     10  C   UNL     1       5.397   4.961  18.126  0.00  0.00    +0.000 A 
ATOM     11  C   UNL     1       6.763   4.730  18.363  0.00  0.00    +0.000 A 
ATOM     12  C   UNL     1       7.677   5.742  18.058  0.00  0.00    +0.000 A 
ATOM     13  C   UNL     1       7.242   6.948  17.502  0.00  0.00    +0.000 A 
ATOM     14  C   UNL     1       5.880   7.220  17.315  0.00  0.00    +0.000 A 
ATOM     15  C   UNL     1       4.975   6.217  17.683  0.00  0.00    +0.000 A 
ENDBRANCH   4   7
BRANCH   1  18
ATOM     16  O   UNL     1       1.266  10.989  21.660  0.00  0.00    +0.000 OA
ATOM     17  C   UNL     1       0.211  10.787  21.074  0.00  0.00    +0.000 C 
ATOM     18  N   UNL     1       0.024   9.961  19.971  0.00  0.00    +0.000 N 
ATOM     19  H   UNL     1      -0.845  10.043  19.455  0.00  0.00    +0.000 HD
BRANCH  17  20
ATOM     20  C   UNL     1      -0.967  11.546  21.555  0.00  0.00    +0.000 A 
ATOM     21  C   UNL     1      -1.358  11.341  22.900  0.00  0.00    +0.000 A 
ATOM     22  C   UNL     1      -2.473  11.989  23.431  0.00  0.00    +0.000 A 
ATOM     23  C   UNL     1      -3.171  12.827  22.592  0.00  0.00    +0.000 A 
ATOM     24  C   UNL     1      -2.808  13.012  21.275  0.00  0.00    +0.000 A 
ATOM     25  C   UNL     1      -1.715  12.380  20.716  0.00  0.00    +0.000 A 
ATOM     26  O   UNL     1      -3.646  13.865  20.628  0.00  0.00    +0.000 OA
ATOM     27  C   UNL     1      -4.518  14.262  21.709  0.00  0.00    +0.000 C 
ATOM     28  O   UNL     1      -4.272  13.546  22.935  0.00  0.00    +0.000 OA
ENDBRANCH  17  20
ENDBRANCH   1  18
TORSDOF 3
ENDMDL
MODEL 7
REMARK VINA RESULT:      -8.1      1.675      2.698
REMARK  Name = 
REMARK  3 active torsions:
REMARK  status: ('A' for Active; 'I' for Inactive)
REMARK    1  A    between atoms: C_2  and  C_19
REMARK    2  A    between atoms: N_3  and  C_4
REMARK    3  A    between atoms: C_7  and  N_8
REMARK                            x       y       z     vdW  Elec       q    Type
REMARK                         _______ _______ _______ _____ _____    ______ ____
ROOT
ATOM      1  C   UNL     1       0.286   9.666  20.727  0.00  0.00    +0.000 A 
ATOM      2  C   UNL     1       0.766   8.637  21.529  0.00  0.00    +0.000 A 
ATOM      3  C   UNL     1       1.607   7.670  21.008  0.00  0.00    +0.000 A 
ATOM      4  C   UNL     1       1.987   7.709  19.669  0.00  0.00    +0.000 A 
ATOM      5  C   UNL     1       1.582   8.759  18.847  0.00  0.00    +0.000 A 
ATOM      6  C   UNL     1       0.706   9.728  19.381  0.00  0.00    +0.000 A 
ENDROOT
BRANCH   4   7
ATOM      7  N   UNL     1       2.743   6.601  19.213  0.00  0.00    +0.000 N 
ATOM      8  C   UNL     1       3.613   6.715  18.143  0.00  0.00    +0.000 A 
ATOM      9  N   UNL     1       3.625   5.645  17.387  0.00  0.00    +0.000 NA
ATOM     10  C   UNL     1       2.793   4.774  18.028  0.00  0.00    +0.000 A 
ATOM     11  C   UNL     1       2.322   3.530  17.574  0.00  0.00    +0.000 A 
ATOM     12  C   UNL     1       1.488   2.782  18.408  0.00  0.00    +0.000 A 
ATOM     13  C   UNL     1       1.152   3.251  19.681  0.00  0.00    +0.000 A 
ATOM     14  C   UNL     1       1.561   4.515  20.128  0.00  0.00    +0.000 A 
ATOM     15  C   UNL     1       2.347   5.275  19.253  0.00  0.00    +0.000 A 
ENDBRANCH   4   7
BRANCH   1  18
ATOM     16  O   UNL     1       0.819  12.350  21.779  0.00  0.00    +0.000 OA
ATOM     17  C   UNL     1      -0.293  11.838  21.781  0.00  0.00    +0.000 C 
ATOM     18  N   UNL     1      -0.639  10.611  21.226  0.00  0.00    +0.000 N 
ATOM     19  H   UNL     1      -1.624  10.400  21.110  0.00  0.00    +0.000 HD
BRANCH  17  20
ATOM     20  C   UNL     1      -1.385  12.638  22.383  0.00  0.00    +0.000 A 
ATOM     21  C   UNL     1      -1.021  13.852  23.013  0.00  0.00    +0.000 A 
ATOM     22  C   UNL     1      -1.977  14.655  23.634  0.00  0.00    +0.000 A 
ATOM     23  C   UNL     1      -3.280  14.213  23.608  0.00  0.00    +0.000 A 
ATOM     24  C   UNL     1      -3.636  13.020  23.017  0.00  0.00    +0.000 A 
ATOM     25  C   UNL     1      -2.714  12.198  22.401  0.00  0.00    +0.000 A 
ATOM     26  O   UNL     1      -4.969  12.773  23.126  0.00  0.00    +0.000 OA
ATOM     27  C   UNL     1      -5.419  13.985  23.770  0.00  0.00    +0.000 C 
ATOM     28  O   UNL     1      -4.342  14.864  24.150  0.00  0.00    +0.000 OA
ENDBRANCH  17  20
ENDBRANCH   1  18
TORSDOF 3
ENDMDL
MODEL 8
REMARK VINA RESULT:      -8.1      2.328      3.563
REMARK  Name = 
REMARK  3 active torsions:
REMARK  status: ('A' for Active; 'I' for Inactive)
REMARK    1  A    between atoms: C_2  and  C_19
REMARK    2  A    between atoms: N_3  and  C_4
REMARK    3  A    between atoms: C_7  and  N_8
REMARK                            x       y       z     vdW  Elec       q    Type
REMARK                         _______ _______ _______ _____ _____    ______ ____
ROOT
ATOM      1  C   UNL     1       2.728   6.674  19.529  0.00  0.00    +0.000 A 
ATOM      2  C   UNL     1       3.278   7.102  18.326  0.00  0.00    +0.000 A 
ATOM      3  C   UNL     1       4.229   6.339  17.673  0.00  0.00    +0.000 A 
ATOM      4  C   UNL     1       4.654   5.126  18.210  0.00  0.00    +0.000 A 
ATOM      5  C   UNL     1       4.081   4.629  19.378  0.00  0.00    +0.000 A 
ATOM      6  C   UNL     1       3.129   5.425  20.050  0.00  0.00    +0.000 A 
ENDROOT
BRANCH   4   7
ATOM      7  N   UNL     1       5.720   4.493  17.526  0.00  0.00    +0.000 N 
ATOM      8  C   UNL     1       7.027   4.606  17.967  0.00  0.00    +0.000 A 
ATOM      9  N   UNL     1       7.887   4.689  16.983  0.00  0.00    +0.000 NA
ATOM     10  C   UNL     1       7.124   4.548  15.860  0.00  0.00    +0.000 A 
ATOM     11  C   UNL     1       7.514   4.712  14.520  0.00  0.00    +0.000 A 
ATOM     12  C   UNL     1       6.568   4.495  13.515  0.00  0.00    +0.000 A 
ATOM     13  C   UNL     1       5.268   4.095  13.837  0.00  0.00    +0.000 A 
ATOM     14  C   UNL     1       4.843   3.986  15.168  0.00  0.00    +0.000 A 
ATOM     15  C   UNL     1       5.790   4.265  16.162  0.00  0.00    +0.000 A 
ENDBRANCH   4   7
BRANCH   1  18
ATOM     16  O   UNL     1       1.622   9.280  18.768  0.00  0.00    +0.000 OA
ATOM     17  C   UNL     1       1.402   8.748  19.848  0.00  0.00    +0.000 C 
ATOM     18  N   UNL     1       1.818   7.483  20.246  0.00  0.00    +0.000 N 
ATOM     19  H   UNL     1       1.395   7.080  21.075  0.00  0.00    +0.000 HD
BRANCH  17  20
ATOM     20  C   UNL     1       0.555   9.509  20.797  0.00  0.00    +0.000 A 
ATOM     21  C   UNL     1       0.571   9.091  22.149  0.00  0.00    +0.000 A 
ATOM     22  C   UNL     1      -0.217   9.728  23.108  0.00  0.00    +0.000 A 
ATOM     23  C   UNL     1      -1.006  10.771  22.680  0.00  0.00    +0.000 A 
ATOM     24  C   UNL     1      -1.043  11.166  21.360  0.00  0.00    +0.000 A 
ATOM     25  C   UNL     1      -0.281  10.552  20.385  0.00  0.00    +0.000 A 
ATOM     26  O   UNL     1      -1.903  12.200  21.159  0.00  0.00    +0.000 OA
ATOM     27  C   UNL     1      -2.331  12.465  22.513  0.00  0.00    +0.000 C 
ATOM     28  O   UNL     1      -1.828  11.511  23.469  0.00  0.00    +0.000 OA
ENDBRANCH  17  20
ENDBRANCH   1  18
TORSDOF 3
ENDMDL
MODEL 9
REMARK VINA RESULT:      -8.1      0.619      1.322
REMARK  Name = 
REMARK  3 active torsions:
REMARK  status: ('A' for Active; 'I' for Inactive)
REMARK    1  A    between atoms: C_2  and  C_19
REMARK    2  A    between atoms: N_3  and  C_4
REMARK    3  A    between atoms: C_7  and  N_8
REMARK                            x       y       z     vdW  Elec       q    Type
REMARK                         _______ _______ _______ _____ _____    ______ ____
ROOT
ATOM      1  C   UNL     1       1.033   9.190  19.849  0.00  0.00    +0.000 A 
ATOM      2  C   UNL     1       1.504   8.048  20.486  0.00  0.00    +0.000 A 
ATOM      3  C   UNL     1       2.291   7.135  19.806  0.00  0.00    +0.000 A 
ATOM      4  C   UNL     1       2.623   7.344  18.470  0.00  0.00    +0.000 A 
ATOM      5  C   UNL     1       2.228   8.507  17.815  0.00  0.00    +0.000 A 
ATOM      6  C   UNL     1       1.407   9.422  18.509  0.00  0.00    +0.000 A 
ENDROOT
BRANCH   4   7
ATOM      7  N   UNL     1       3.322   6.285  17.840  0.00  0.00    +0.000 N 
ATOM      8  C   UNL     1       2.909   4.971  17.970  0.00  0.00    +0.000 A 
ATOM      9  N   UNL     1       3.912   4.132  18.052  0.00  0.00    +0.000 NA
ATOM     10  C   UNL     1       5.017   4.917  17.890  0.00  0.00    +0.000 A 
ATOM     11  C   UNL     1       6.367   4.556  18.043  0.00  0.00    +0.000 A 
ATOM     12  C   UNL     1       7.350   5.519  17.805  0.00  0.00    +0.000 A 
ATOM     13  C   UNL     1       6.997   6.808  17.396  0.00  0.00    +0.000 A 
ATOM     14  C   UNL     1       5.656   7.205  17.297  0.00  0.00    +0.000 A 
ATOM     15  C   UNL     1       4.685   6.241  17.598  0.00  0.00    +0.000 A 
ENDBRANCH   4   7
BRANCH   1  18
ATOM     16  O   UNL     1       1.688  11.733  21.153  0.00  0.00    +0.000 OA
ATOM     17  C   UNL     1       0.568  11.241  21.171  0.00  0.00    +0.000 C 
ATOM     18  N   UNL     1       0.162  10.088  20.508  0.00  0.00    +0.000 N 
ATOM     19  H   UNL     1      -0.832   9.905  20.434  0.00  0.00    +0.000 HD
BRANCH  17  20
ATOM     20  C   UNL     1      -0.467  11.984  21.926  0.00  0.00    +0.000 A 
ATOM     21  C   UNL     1      -1.362  11.220  22.713  0.00  0.00    +0.000 A 
ATOM     22  C   UNL     1      -2.388  11.831  23.433  0.00  0.00    +0.000 A 
ATOM     23  C   UNL     1      -2.490  13.200  23.342  0.00  0.00    +0.000 A 
ATOM     24  C   UNL     1      -1.636  13.946  22.558  0.00  0.00    +0.000 A 
ATOM     25  C   UNL     1      -0.616  13.372  21.827  0.00  0.00    +0.000 A 
ATOM     26  O   UNL     1      -1.931  15.273  22.601  0.00  0.00    +0.000 OA
ATOM     27  C   UNL     1      -3.005  15.283  23.567  0.00  0.00    +0.000 C 
ATOM     28  O   UNL     1      -3.417  13.963  23.978  0.00  0.00    +0.000 OA
ENDBRANCH  17  20
ENDBRANCH   1  18
TORSDOF 3
ENDMDL
