MODEL 1
REMARK VINA RESULT:      -8.0      0.000      0.000
REMARK  Name = 
REMARK  6 active torsions:
REMARK  status: ('A' for Active; 'I' for Inactive)
REMARK    1  A    between atoms: C_4  and  C_5
REMARK    2  A    between atoms: C_7  and  C_8
REMARK    3  A    between atoms: C_8  and  N_9
REMARK    4  A    between atoms: N_9  and  C_10
REMARK    5  A    between atoms: C_13  and  C_14
REMARK    6  A    between atoms: C_14  and  N_15
REMARK                            x       y       z     vdW  Elec       q    Type
REMARK                         _______ _______ _______ _____ _____    ______ ____
ROOT
ATOM      1  N   UNL     1       5.717   6.355  15.987  0.00  0.00    +0.000 N 
ATOM      2  H   UNL     1       5.606   7.363  15.890  0.00  0.00    +0.000 HD
ENDROOT
BRANCH   1   3
ATOM      3  C   UNL     1       4.614   5.768  16.603  0.00  0.00    +0.000 A 
ATOM      4  C   UNL     1       3.755   6.431  17.482  0.00  0.00    +0.000 A 
ATOM      5  C   UNL     1       2.702   5.754  18.117  0.00  0.00    +0.000 A 
ATOM      6  C   UNL     1       2.511   4.382  17.918  0.00  0.00    +0.000 A 
ATOM      7  C   UNL     1       3.383   3.706  17.059  0.00  0.00    +0.000 A 
ATOM      8  C   UNL     1       4.421   4.392  16.422  0.00  0.00    +0.000 A 
BRANCH   6   9
ATOM      9  C   UNL     1       1.415   3.638  18.634  0.00  0.00    +0.000 C 
BRANCH   9  10
ATOM     10  N   UNL     1       1.806   3.221  19.969  0.00  0.00    +0.000 N 
ATOM     11  C   UNL     1       3.048   2.799  20.356  0.00  0.00    +0.000 A 
ATOM     12  C   UNL     1       2.884   2.355  21.648  0.00  0.00    +0.000 A 
ATOM     13  N   UNL     1       1.584   2.505  22.053  0.00  0.00    +0.000 NA
ATOM     14  C   UNL     1       0.959   3.033  21.024  0.00  0.00    +0.000 A 
ENDBRANCH   9  10
ENDBRANCH   6   9
ENDBRANCH   1   3
BRANCH   1  15
ATOM     15  C   UNL     1       7.083   6.020  16.385  0.00  0.00    +0.000 C 
BRANCH  15  18
ATOM     16  C   UNL     1       8.473   8.825  18.356  0.00  0.00    +0.000 A 
ATOM     17  C   UNL     1       7.909   8.367  17.180  0.00  0.00    +0.000 A 
ATOM     18  C   UNL     1       7.691   6.983  17.369  0.00  0.00    +0.000 A 
ATOM     19  N   UNL     1       8.060   6.592  18.596  0.00  0.00    +0.000 NA
ATOM     20  N   UNL     1       8.522   7.719  19.168  0.00  0.00    +0.000 N 
ATOM     21  H   UNL     1       8.843   7.672  20.128  0.00  0.00    +0.000 HD
BRANCH  16  25
ATOM     22  C   UNL     1       9.816  12.729  19.437  0.00  0.00    +0.000 A 
ATOM     23  C   UNL     1       9.163  12.522  18.226  0.00  0.00    +0.000 A 
ATOM     24  C   UNL     1       8.716  11.244  17.884  0.00  0.00    +0.000 A 
ATOM     25  C   UNL     1       8.916  10.158  18.749  0.00  0.00    +0.000 A 
ATOM     26  C   UNL     1       9.572  10.381  19.968  0.00  0.00    +0.000 A 
ATOM     27  C   UNL     1      10.020  11.660  20.309  0.00  0.00    +0.000 A 
ENDBRANCH  16  25
ENDBRANCH  15  18
ENDBRANCH   1  15
TORSDOF 6
ENDMDL
MODEL 2
REMARK VINA RESULT:      -7.9      4.431      7.530
REMARK  Name = 
REMARK  6 active torsions:
REMARK  status: ('A' for Active; 'I' for Inactive)
REMARK    1  A    between atoms: C_4  and  C_5
REMARK    2  A    between atoms: C_7  and  C_8
REMARK    3  A    between atoms: C_8  and  N_9
REMARK    4  A    between atoms: N_9  and  C_10
REMARK    5  A    between atoms: C_13  and  C_14
REMARK    6  A    between atoms: C_14  and  N_15
REMARK                            x       y       z     vdW  Elec       q    Type
REMARK                         _______ _______ _______ _____ _____    ______ ____
ROOT
ATOM      1  N   UNL     1       2.962   5.803  18.849  0.00  0.00    +0.000 N 
ATOM      2  H   UNL     1       2.762   5.411  17.930  0.00  0.00    +0.000 HD
ENDROOT
BRANCH   1   3
ATOM      3  C   UNL     1       2.438   7.086  18.991  0.00  0.00    +0.000 A 
ATOM      4  C   UNL     1       1.857   7.577  20.163  0.00  0.00    +0.000 A 
ATOM      5  C   UNL     1       1.290   8.859  20.210  0.00  0.00    +0.000 A 
ATOM      6  C   UNL     1       1.252   9.666  19.068  0.00  0.00    +0.000 A 
ATOM      7  C   UNL     1       1.808   9.171  17.884  0.00  0.00    +0.000 A 
ATOM      8  C   UNL     1       2.382   7.897  17.850  0.00  0.00    +0.000 A 
BRANCH   6   9
ATOM      9  C   UNL     1       0.600  11.023  19.096  0.00  0.00    +0.000 C 
BRANCH   9  10
ATOM     10  N   UNL     1       1.558  12.097  19.294  0.00  0.00    +0.000 N 
ATOM     11  C   UNL     1       1.692  12.867  20.417  0.00  0.00    +0.000 A 
ATOM     12  C   UNL     1       2.597  13.844  20.069  0.00  0.00    +0.000 A 
ATOM     13  N   UNL     1       3.017  13.680  18.776  0.00  0.00    +0.000 NA
ATOM     14  C   UNL     1       2.380  12.617  18.336  0.00  0.00    +0.000 A 
ENDBRANCH   9  10
ENDBRANCH   6   9
ENDBRANCH   1   3
BRANCH   1  15
ATOM     15  C   UNL     1       4.328   5.485  19.262  0.00  0.00    +0.000 C 
BRANCH  15  18
ATOM     16  C   UNL     1       6.090   4.648  16.119  0.00  0.00    +0.000 A 
ATOM     17  C   UNL     1       4.994   5.202  16.752  0.00  0.00    +0.000 A 
ATOM     18  C   UNL     1       5.223   5.038  18.137  0.00  0.00    +0.000 A 
ATOM     19  N   UNL     1       6.403   4.449  18.372  0.00  0.00    +0.000 NA
ATOM     20  N   UNL     1       6.904   4.229  17.143  0.00  0.00    +0.000 N 
ATOM     21  H   UNL     1       7.820   3.804  17.068  0.00  0.00    +0.000 HD
BRANCH  16  25
ATOM     22  C   UNL     1       7.051   4.190  11.987  0.00  0.00    +0.000 A 
ATOM     23  C   UNL     1       6.016   3.454  12.551  0.00  0.00    +0.000 A 
ATOM     24  C   UNL     1       5.699   3.617  13.901  0.00  0.00    +0.000 A 
ATOM     25  C   UNL     1       6.413   4.520  14.703  0.00  0.00    +0.000 A 
ATOM     26  C   UNL     1       7.452   5.259  14.120  0.00  0.00    +0.000 A 
ATOM     27  C   UNL     1       7.770   5.094  12.768  0.00  0.00    +0.000 A 
ENDBRANCH  16  25
ENDBRANCH  15  18
ENDBRANCH   1  15
TORSDOF 6
ENDMDL
MODEL 3
REMARK VINA RESULT:      -7.8      2.876     10.280
REMARK  Name = 
REMARK  6 active torsions:
REMARK  status: ('A' for Active; 'I' for Inactive)
REMARK    1  A    between atoms: C_4  and  C_5
REMARK    2  A    between atoms: C_7  and  C_8
REMARK    3  A    between atoms: C_8  and  N_9
REMARK    4  A    between atoms: N_9  and  C_10
REMARK    5  A    between atoms: C_13  and  C_14
REMARK    6  A    between atoms: C_14  and  N_15
REMARK                            x       y       z     vdW  Elec       q    Type
REMARK                         _______ _______ _______ _____ _____    ______ ____
ROOT
ATOM      1  N   UNL     1       8.785   8.634  18.843  0.00  0.00    +0.000 N 
ATOM      2  H   UNL     1       8.502   8.197  19.720  0.00  0.00    +0.000 HD
ENDROOT
BRANCH   1   3
ATOM      3  C   UNL     1       9.060   9.990  19.004  0.00  0.00    +0.000 A 
ATOM      4  C   UNL     1       9.465  10.577  20.205  0.00  0.00    +0.000 A 
ATOM      5  C   UNL     1       9.659  11.963  20.306  0.00  0.00    +0.000 A 
ATOM      6  C   UNL     1       9.408  12.801  19.214  0.00  0.00    +0.000 A 
ATOM      7  C   UNL     1       8.978  12.223  18.016  0.00  0.00    +0.000 A 
ATOM      8  C   UNL     1       8.799  10.841  17.921  0.00  0.00    +0.000 A 
BRANCH   6   9
ATOM      9  C   UNL     1       9.566  14.294  19.329  0.00  0.00    +0.000 C 
BRANCH   9  10
ATOM     10  N   UNL     1      10.476  14.836  18.335  0.00  0.00    +0.000 N 
ATOM     11  C   UNL     1      11.815  14.576  18.234  0.00  0.00    +0.000 A 
ATOM     12  C   UNL     1      12.271  15.440  17.264  0.00  0.00    +0.000 A 
ATOM     13  N   UNL     1      11.246  16.203  16.772  0.00  0.00    +0.000 NA
ATOM     14  C   UNL     1      10.177  15.815  17.431  0.00  0.00    +0.000 A 
ENDBRANCH   9  10
ENDBRANCH   6   9
ENDBRANCH   1   3
BRANCH   1  15
ATOM     15  C   UNL     1       7.966   8.145  17.735  0.00  0.00    +0.000 C 
BRANCH  15  18
ATOM     16  C   UNL     1       5.490   5.431  18.163  0.00  0.00    +0.000 A 
ATOM     17  C   UNL     1       5.834   6.642  17.594  0.00  0.00    +0.000 A 
ATOM     18  C   UNL     1       7.133   6.937  18.070  0.00  0.00    +0.000 A 
ATOM     19  N   UNL     1       7.597   5.962  18.861  0.00  0.00    +0.000 NA
ATOM     20  N   UNL     1       6.592   5.068  18.896  0.00  0.00    +0.000 N 
ATOM     21  H   UNL     1       6.727   4.217  19.428  0.00  0.00    +0.000 HD
BRANCH  16  25
ATOM     22  C   UNL     1       1.973   3.049  17.749  0.00  0.00    +0.000 A 
ATOM     23  C   UNL     1       3.215   2.444  17.910  0.00  0.00    +0.000 A 
ATOM     24  C   UNL     1       4.360   3.230  18.056  0.00  0.00    +0.000 A 
ATOM     25  C   UNL     1       4.277   4.630  18.045  0.00  0.00    +0.000 A 
ATOM     26  C   UNL     1       3.018   5.227  17.887  0.00  0.00    +0.000 A 
ATOM     27  C   UNL     1       1.872   4.440  17.739  0.00  0.00    +0.000 A 
ENDBRANCH  16  25
ENDBRANCH  15  18
ENDBRANCH   1  15
TORSDOF 6
ENDMDL
MODEL 4
REMARK VINA RESULT:      -7.7      6.490      8.714
REMARK  Name = 
REMARK  6 active torsions:
REMARK  status: ('A' for Active; 'I' for Inactive)
REMARK    1  A    between atoms: C_4  and  C_5
REMARK    2  A    between atoms: C_7  and  C_8
REMARK    3  A    between atoms: C_8  and  N_9
REMARK    4  A    between atoms: N_9  and  C_10
REMARK    5  A    between atoms: C_13  and  C_14
REMARK    6  A    between atoms: C_14  and  N_15
REMARK                            x       y       z     vdW  Elec       q    Type
REMARK                         _______ _______ _______ _____ _____    ______ ____
ROOT
ATOM      1  N   UNL     1       1.647   7.829  20.887  0.00  0.00    +0.000 N 
ATOM      2  H   UNL     1       2.332   8.036  21.613  0.00  0.00    +0.000 HD
ENDROOT
BRANCH   1   3
ATOM      3  C   UNL     1       2.123   6.885  19.979  0.00  0.00    +0.000 A 
ATOM      4  C   UNL     1       2.179   5.511  20.223  0.00  0.00    +0.000 A 
ATOM      5  C   UNL     1       2.734   4.629  19.284  0.00  0.00    +0.000 A 
ATOM      6  C   UNL     1       3.288   5.109  18.093  0.00  0.00    +0.000 A 
ATOM      7  C   UNL     1       3.259   6.486  17.852  0.00  0.00    +0.000 A 
ATOM      8  C   UNL     1       2.693   7.356  18.788  0.00  0.00    +0.000 A 
BRANCH   6   9
ATOM      9  C   UNL     1       3.931   4.174  17.103  0.00  0.00    +0.000 C 
BRANCH   9  10
ATOM     10  N   UNL     1       5.374   4.328  17.047  0.00  0.00    +0.000 N 
ATOM     11  C   UNL     1       6.223   4.397  18.117  0.00  0.00    +0.000 A 
ATOM     12  C   UNL     1       7.449   4.712  17.576  0.00  0.00    +0.000 A 
ATOM     13  N   UNL     1       7.364   4.825  16.213  0.00  0.00    +0.000 NA
ATOM     14  C   UNL     1       6.105   4.583  15.923  0.00  0.00    +0.000 A 
ENDBRANCH   9  10
ENDBRANCH   6   9
ENDBRANCH   1   3
BRANCH   1  15
ATOM     15  C   UNL     1       0.979   9.050  20.442  0.00  0.00    +0.000 C 
BRANCH  15  18
ATOM     16  C   UNL     1      -1.089  11.187  22.641  0.00  0.00    +0.000 A 
ATOM     17  C   UNL     1      -0.426  11.013  21.442  0.00  0.00    +0.000 A 
ATOM     18  C   UNL     1       0.156   9.725  21.506  0.00  0.00    +0.000 A 
ATOM     19  N   UNL     1      -0.146   9.109  22.656  0.00  0.00    +0.000 NA
ATOM     20  N   UNL     1      -0.898  10.008  23.317  0.00  0.00    +0.000 N 
ATOM     21  H   UNL     1      -1.269   9.748  24.223  0.00  0.00    +0.000 HD
BRANCH  16  25
ATOM     22  C   UNL     1      -3.303  14.493  24.185  0.00  0.00    +0.000 A 
ATOM     23  C   UNL     1      -2.015  14.679  23.695  0.00  0.00    +0.000 A 
ATOM     24  C   UNL     1      -1.301  13.596  23.180  0.00  0.00    +0.000 A 
ATOM     25  C   UNL     1      -1.866  12.313  23.149  0.00  0.00    +0.000 A 
ATOM     26  C   UNL     1      -3.167  12.139  23.642  0.00  0.00    +0.000 A 
ATOM     27  C   UNL     1      -3.881  13.225  24.158  0.00  0.00    +0.000 A 
ENDBRANCH  16  25
ENDBRANCH  15  18
ENDBRANCH   1  15
TORSDOF 6
ENDMDL
MODEL 5
REMARK VINA RESULT:      -7.6      6.390      8.664
REMARK  Name = 
REMARK  6 active torsions:
REMARK  status: ('A' for Active; 'I' for Inactive)
REMARK    1  A    between atoms: C_4  and  C_5
REMARK    2  A    between atoms: C_7  and  C_8
REMARK    3  A    between atoms: C_8  and  N_9
REMARK    4  A    between atoms: N_9  and  C_10
REMARK    5  A    between atoms: C_13  and  C_14
REMARK    6  A    between atoms: C_14  and  N_15
REMARK                            x       y       z     vdW  Elec       q    Type
REMARK                         _______ _______ _______ _____ _____    ______ ____
ROOT
ATOM      1  N   UNL     1       1.493   7.487  20.961  0.00  0.00    +0.000 N 
ATOM      2  H   UNL     1       1.785   7.284  21.916  0.00  0.00    +0.000 HD
ENDROOT
BRANCH   1   3
ATOM      3  C   UNL     1       2.154   6.683  20.034  0.00  0.00    +0.000 A 
ATOM      4  C   UNL     1       2.578   7.114  18.775  0.00  0.00    +0.000 A 
ATOM      5  C   UNL     1       3.178   6.227  17.868  0.00  0.00    +0.000 A 
ATOM      6  C   UNL     1       3.328   4.873  18.186  0.00  0.00    +0.000 A 
ATOM      7  C   UNL     1       2.882   4.429  19.435  0.00  0.00    +0.000 A 
ATOM      8  C   UNL     1       2.297   5.322  20.336  0.00  0.00    +0.000 A 
BRANCH   6   9
ATOM      9  C   UNL     1       3.925   3.905  17.200  0.00  0.00    +0.000 C 
BRANCH   9  10
ATOM     10  N   UNL     1       5.241   4.315  16.743  0.00  0.00    +0.000 N 
ATOM     11  C   UNL     1       5.618   4.534  15.446  0.00  0.00    +0.000 A 
ATOM     12  C   UNL     1       6.978   4.731  15.501  0.00  0.00    +0.000 A 
ATOM     13  N   UNL     1       7.430   4.648  16.792  0.00  0.00    +0.000 NA
ATOM     14  C   UNL     1       6.362   4.402  17.518  0.00  0.00    +0.000 A 
ENDBRANCH   9  10
ENDBRANCH   6   9
ENDBRANCH   1   3
BRANCH   1  15
ATOM     15  C   UNL     1       1.350   8.928  20.758  0.00  0.00    +0.000 C 
BRANCH  15  18
ATOM     16  C   UNL     1      -0.938  11.070  22.723  0.00  0.00    +0.000 A 
ATOM     17  C   UNL     1      -0.061  10.931  21.665  0.00  0.00    +0.000 A 
ATOM     18  C   UNL     1       0.387   9.591  21.707  0.00  0.00    +0.000 A 
ATOM     19  N   UNL     1      -0.194   8.912  22.704  0.00  0.00    +0.000 NA
ATOM     20  N   UNL     1      -0.988   9.823  23.296  0.00  0.00    +0.000 N 
ATOM     21  H   UNL     1      -1.556   9.526  24.080  0.00  0.00    +0.000 HD
BRANCH  16  25
ATOM     22  C   UNL     1      -3.244  14.423  24.010  0.00  0.00    +0.000 A 
ATOM     23  C   UNL     1      -3.804  13.150  23.996  0.00  0.00    +0.000 A 
ATOM     24  C   UNL     1      -3.040  12.056  23.585  0.00  0.00    +0.000 A 
ATOM     25  C   UNL     1      -1.706  12.221  23.184  0.00  0.00    +0.000 A 
ATOM     26  C   UNL     1      -1.152  13.508  23.206  0.00  0.00    +0.000 A 
ATOM     27  C   UNL     1      -1.918  14.604  23.616  0.00  0.00    +0.000 A 
ENDBRANCH  16  25
ENDBRANCH  15  18
ENDBRANCH   1  15
TORSDOF 6
ENDMDL
MODEL 6
REMARK VINA RESULT:      -7.6      4.655      7.492
REMARK  Name = 
REMARK  6 active torsions:
REMARK  status: ('A' for Active; 'I' for Inactive)
REMARK    1  A    between atoms: C_4  and  C_5
REMARK    2  A    between atoms: C_7  and  C_8
REMARK    3  A    between atoms: C_8  and  N_9
REMARK    4  A    between atoms: N_9  and  C_10
REMARK    5  A    between atoms: C_13  and  C_14
REMARK    6  A    between atoms: C_14  and  N_15
REMARK                            x       y       z     vdW  Elec       q    Type
REMARK                         _______ _______ _______ _____ _____    ______ ____
ROOT
ATOM      1  N   UNL     1       2.895   6.110  20.136  0.00  0.00    +0.000 N 
ATOM      2  H   UNL     1       2.761   5.959  21.135  0.00  0.00    +0.000 HD
ENDROOT
BRANCH   1   3
ATOM      3  C   UNL     1       2.278   7.280  19.701  0.00  0.00    +0.000 A 
ATOM      4  C   UNL     1       2.443   7.836  18.430  0.00  0.00    +0.000 A 
ATOM      5  C   UNL     1       1.840   9.055  18.086  0.00  0.00    +0.000 A 
ATOM      6  C   UNL     1       1.090   9.771  19.025  0.00  0.00    +0.000 A 
ATOM      7  C   UNL     1       0.940   9.234  20.308  0.00  0.00    +0.000 A 
ATOM      8  C   UNL     1       1.535   8.013  20.637  0.00  0.00    +0.000 A 
BRANCH   6   9
ATOM      9  C   UNL     1       0.481  11.104  18.680  0.00  0.00    +0.000 C 
BRANCH   9  10
ATOM     10  N   UNL     1      -0.969  11.054  18.616  0.00  0.00    +0.000 N 
ATOM     11  C   UNL     1      -1.718  10.413  17.668  0.00  0.00    +0.000 A 
ATOM     12  C   UNL     1      -3.015  10.791  17.926  0.00  0.00    +0.000 A 
ATOM     13  N   UNL     1      -3.071  11.632  19.006  0.00  0.00    +0.000 NA
ATOM     14  C   UNL     1      -1.826  11.768  19.404  0.00  0.00    +0.000 A 
ENDBRANCH   9  10
ENDBRANCH   6   9
ENDBRANCH   1   3
BRANCH   1  15
ATOM     15  C   UNL     1       2.759   4.854  19.400  0.00  0.00    +0.000 C 
BRANCH  15  18
ATOM     16  C   UNL     1       5.198   4.347  16.666  0.00  0.00    +0.000 A 
ATOM     17  C   UNL     1       3.941   4.749  17.072  0.00  0.00    +0.000 A 
ATOM     18  C   UNL     1       3.907   4.556  18.473  0.00  0.00    +0.000 A 
ATOM     19  N   UNL     1       5.078   4.095  18.932  0.00  0.00    +0.000 NA
ATOM     20  N   UNL     1       5.836   3.983  17.826  0.00  0.00    +0.000 N 
ATOM     21  H   UNL     1       6.793   3.667  17.931  0.00  0.00    +0.000 HD
BRANCH  16  25
ATOM     22  C   UNL     1       6.984   4.332  12.790  0.00  0.00    +0.000 A 
ATOM     23  C   UNL     1       7.594   5.009  13.840  0.00  0.00    +0.000 A 
ATOM     24  C   UNL     1       7.011   5.000  15.109  0.00  0.00    +0.000 A 
ATOM     25  C   UNL     1       5.810   4.313  15.342  0.00  0.00    +0.000 A 
ATOM     26  C   UNL     1       5.208   3.631  14.276  0.00  0.00    +0.000 A 
ATOM     27  C   UNL     1       5.793   3.641  13.006  0.00  0.00    +0.000 A 
ENDBRANCH  16  25
ENDBRANCH  15  18
ENDBRANCH   1  15
TORSDOF 6
ENDMDL
MODEL 7
REMARK VINA RESULT:      -7.6      1.206      1.589
REMARK  Name = 
REMARK  6 active torsions:
REMARK  status: ('A' for Active; 'I' for Inactive)
REMARK    1  A    between atoms: C_4  and  C_5
REMARK    2  A    between atoms: C_7  and  C_8
REMARK    3  A    between atoms: C_8  and  N_9
REMARK    4  A    between atoms: N_9  and  C_10
REMARK    5  A    between atoms: C_13  and  C_14
REMARK    6  A    between atoms: C_14  and  N_15
REMARK                            x       y       z     vdW  Elec       q    Type
REMARK                         _______ _______ _______ _____ _____    ______ ____
ROOT
ATOM      1  N   UNL     1       6.565   6.438  16.654  0.00  0.00    +0.000 N 
ATOM      2  H   UNL     1       6.420   7.271  16.084  0.00  0.00    +0.000 HD
ENDROOT
BRANCH   1   3
ATOM      3  C   UNL     1       5.366   5.789  16.938  0.00  0.00    +0.000 A 
ATOM      4  C   UNL     1       4.310   6.357  17.655  0.00  0.00    +0.000 A 
ATOM      5  C   UNL     1       3.158   5.617  17.960  0.00  0.00    +0.000 A 
ATOM      6  C   UNL     1       3.053   4.272  17.590  0.00  0.00    +0.000 A 
ATOM      7  C   UNL     1       4.117   3.689  16.893  0.00  0.00    +0.000 A 
ATOM      8  C   UNL     1       5.255   4.437  16.584  0.00  0.00    +0.000 A 
BRANCH   6   9
ATOM      9  C   UNL     1       1.842   3.457  17.957  0.00  0.00    +0.000 C 
BRANCH   9  10
ATOM     10  N   UNL     1       1.819   3.095  19.363  0.00  0.00    +0.000 N 
ATOM     11  C   UNL     1       0.779   3.280  20.231  0.00  0.00    +0.000 A 
ATOM     12  C   UNL     1       1.285   2.946  21.466  0.00  0.00    +0.000 A 
ATOM     13  N   UNL     1       2.594   2.556  21.366  0.00  0.00    +0.000 NA
ATOM     14  C   UNL     1       2.887   2.651  20.089  0.00  0.00    +0.000 A 
ENDBRANCH   9  10
ENDBRANCH   6   9
ENDBRANCH   1   3
BRANCH   1  15
ATOM     15  C   UNL     1       7.564   6.688  17.692  0.00  0.00    +0.000 C 
BRANCH  15  18
ATOM     16  C   UNL     1       8.882  10.044  18.517  0.00  0.00    +0.000 A 
ATOM     17  C   UNL     1       8.957   8.672  18.664  0.00  0.00    +0.000 A 
ATOM     18  C   UNL     1       7.907   8.141  17.880  0.00  0.00    +0.000 A 
ATOM     19  N   UNL     1       7.230   9.109  17.249  0.00  0.00    +0.000 NA
ATOM     20  N   UNL     1       7.839  10.241  17.646  0.00  0.00    +0.000 N 
ATOM     21  H   UNL     1       7.506  11.121  17.271  0.00  0.00    +0.000 HD
BRANCH  16  25
ATOM     22  C   UNL     1      11.333  13.132  20.152  0.00  0.00    +0.000 A 
ATOM     23  C   UNL     1      11.359  12.864  18.787  0.00  0.00    +0.000 A 
ATOM     24  C   UNL     1      10.546  11.860  18.257  0.00  0.00    +0.000 A 
ATOM     25  C   UNL     1       9.696  11.112  19.085  0.00  0.00    +0.000 A 
ATOM     26  C   UNL     1       9.675  11.395  20.458  0.00  0.00    +0.000 A 
ATOM     27  C   UNL     1      10.491  12.400  20.988  0.00  0.00    +0.000 A 
ENDBRANCH  16  25
ENDBRANCH  15  18
ENDBRANCH   1  15
TORSDOF 6
ENDMDL
MODEL 8
REMARK VINA RESULT:      -7.6      4.627      7.110
REMARK  Name = 
REMARK  6 active torsions:
REMARK  status: ('A' for Active; 'I' for Inactive)
REMARK    1  A    between atoms: C_4  and  C_5
REMARK    2  A    between atoms: C_7  and  C_8
REMARK    3  A    between atoms: C_8  and  N_9
REMARK    4  A    between atoms: N_9  and  C_10
REMARK    5  A    between atoms: C_13  and  C_14
REMARK    6  A    between atoms: C_14  and  N_15
REMARK                            x       y       z     vdW  Elec       q    Type
REMARK                         _______ _______ _______ _____ _____    ______ ____
ROOT
ATOM      1  N   UNL     1       3.280   5.549  19.042  0.00  0.00    +0.000 N 
ATOM      2  H   UNL     1       3.027   4.918  18.283  0.00  0.00    +0.000 HD
ENDROOT
BRANCH   1   3
ATOM      3  C   UNL     1       2.651   6.786  18.920  0.00  0.00    +0.000 A 
ATOM      4  C   UNL     1       2.684   7.580  17.771  0.00  0.00    +0.000 A 
ATOM      5  C   UNL     1       2.081   8.847  17.746  0.00  0.00    +0.000 A 
ATOM      6  C   UNL     1       1.466   9.369  18.890  0.00  0.00    +0.000 A 
ATOM      7  C   UNL     1       1.452   8.590  20.052  0.00  0.00    +0.000 A 
ATOM      8  C   UNL     1       2.045   7.325  20.063  0.00  0.00    +0.000 A 
BRANCH   6   9
ATOM      9  C   UNL     1       0.861  10.747  18.887  0.00  0.00    +0.000 C 
BRANCH   9  10
ATOM     10  N   UNL     1       0.423  11.166  20.206  0.00  0.00    +0.000 N 
ATOM     11  C   UNL     1      -0.602  10.622  20.931  0.00  0.00    +0.000 A 
ATOM     12  C   UNL     1      -0.746  11.452  22.019  0.00  0.00    +0.000 A 
ATOM     13  N   UNL     1       0.167  12.473  21.976  0.00  0.00    +0.000 NA
ATOM     14  C   UNL     1       0.860  12.272  20.878  0.00  0.00    +0.000 A 
ENDBRANCH   9  10
ENDBRANCH   6   9
ENDBRANCH   1   3
BRANCH   1  15
ATOM     15  C   UNL     1       4.706   5.444  19.349  0.00  0.00    +0.000 C 
BRANCH  15  18
ATOM     16  C   UNL     1       6.330   4.611  16.132  0.00  0.00    +0.000 A 
ATOM     17  C   UNL     1       5.249   5.139  16.812  0.00  0.00    +0.000 A 
ATOM     18  C   UNL     1       5.556   5.007  18.186  0.00  0.00    +0.000 A 
ATOM     19  N   UNL     1       6.766   4.464  18.368  0.00  0.00    +0.000 NA
ATOM     20  N   UNL     1       7.211   4.240  17.117  0.00  0.00    +0.000 N 
ATOM     21  H   UNL     1       8.136   3.845  17.001  0.00  0.00    +0.000 HD
BRANCH  16  25
ATOM     22  C   UNL     1       7.051   4.276  11.939  0.00  0.00    +0.000 A 
ATOM     23  C   UNL     1       7.782   5.176  12.707  0.00  0.00    +0.000 A 
ATOM     24  C   UNL     1       7.549   5.272  14.080  0.00  0.00    +0.000 A 
ATOM     25  C   UNL     1       6.583   4.469  14.703  0.00  0.00    +0.000 A 
ATOM     26  C   UNL     1       5.855   3.563  13.918  0.00  0.00    +0.000 A 
ATOM     27  C   UNL     1       6.088   3.468  12.542  0.00  0.00    +0.000 A 
ENDBRANCH  16  25
ENDBRANCH  15  18
ENDBRANCH   1  15
TORSDOF 6
ENDMDL
MODEL 9
REMARK VINA RESULT:      -7.5      4.657      7.355
REMARK  Name = 
REMARK  6 active torsions:
REMARK  status: ('A' for Active; 'I' for Inactive)
REMARK    1  A    between atoms: C_4  and  C_5
REMARK    2  A    between atoms: C_7  and  C_8
REMARK    3  A    between atoms: C_8  and  N_9
REMARK    4  A    between atoms: N_9  and  C_10
REMARK    5  A    between atoms: C_13  and  C_14
REMARK    6  A    between atoms: C_14  and  N_15
REMARK                            x       y       z     vdW  Elec       q    Type
REMARK                         _______ _______ _______ _____ _____    ______ ____
ROOT
ATOM      1  N   UNL     1       3.126   5.849  19.714  0.00  0.00    +0.000 N 
ATOM      2  H   UNL     1       2.916   5.455  20.630  0.00  0.00    +0.000 HD
ENDROOT
BRANCH   1   3
ATOM      3  C   UNL     1       2.534   7.098  19.538  0.00  0.00    +0.000 A 
ATOM      4  C   UNL     1       1.747   7.741  20.496  0.00  0.00    +0.000 A 
ATOM      5  C   UNL     1       1.128   8.970  20.222  0.00  0.00    +0.000 A 
ATOM      6  C   UNL     1       1.249   9.566  18.961  0.00  0.00    +0.000 A 
ATOM      7  C   UNL     1       2.015   8.915  17.989  0.00  0.00    +0.000 A 
ATOM      8  C   UNL     1       2.637   7.697  18.275  0.00  0.00    +0.000 A 
BRANCH   6   9
ATOM      9  C   UNL     1       0.548  10.859  18.642  0.00  0.00    +0.000 C 
BRANCH   9  10
ATOM     10  N   UNL     1      -0.867  10.674  18.374  0.00  0.00    +0.000 N 
ATOM     11  C   UNL     1      -1.417   9.768  17.509  0.00  0.00    +0.000 A 
ATOM     12  C   UNL     1      -2.755  10.085  17.468  0.00  0.00    +0.000 A 
ATOM     13  N   UNL     1      -3.029  11.148  18.288  0.00  0.00    +0.000 NA
ATOM     14  C   UNL     1      -1.875  11.478  18.824  0.00  0.00    +0.000 A 
ENDBRANCH   9  10
ENDBRANCH   6   9
ENDBRANCH   1   3
BRANCH   1  15
ATOM     15  C   UNL     1       3.057   4.818  18.679  0.00  0.00    +0.000 C 
BRANCH  15  18
ATOM     16  C   UNL     1       5.490   4.655  15.898  0.00  0.00    +0.000 A 
ATOM     17  C   UNL     1       4.197   4.485  16.352  0.00  0.00    +0.000 A 
ATOM     18  C   UNL     1       4.221   4.825  17.724  0.00  0.00    +0.000 A 
ATOM     19  N   UNL     1       5.441   5.218  18.110  0.00  0.00    +0.000 NA
ATOM     20  N   UNL     1       6.183   5.110  16.992  0.00  0.00    +0.000 N 
ATOM     21  H   UNL     1       7.158   5.381  17.036  0.00  0.00    +0.000 HD
BRANCH  16  25
ATOM     22  C   UNL     1       7.190   4.155  12.016  0.00  0.00    +0.000 A 
ATOM     23  C   UNL     1       7.801   4.988  12.947  0.00  0.00    +0.000 A 
ATOM     24  C   UNL     1       7.246   5.138  14.219  0.00  0.00    +0.000 A 
ATOM     25  C   UNL     1       6.074   4.455  14.576  0.00  0.00    +0.000 A 
ATOM     26  C   UNL     1       5.470   3.616  13.630  0.00  0.00    +0.000 A 
ATOM     27  C   UNL     1       6.026   3.467  12.355  0.00  0.00    +0.000 A 
ENDBRANCH  16  25
ENDBRANCH  15  18
ENDBRANCH   1  15
TORSDOF 6
ENDMDL
