MODEL 1
REMARK VINA RESULT:      -8.1      0.000      0.000
REMARK  Name = 
REMARK  5 active torsions:
REMARK  status: ('A' for Active; 'I' for Inactive)
REMARK    1  A    between atoms: C_1  and  C_2
REMARK    2  A    between atoms: C_5  and  C_6
REMARK    3  A    between atoms: C_9  and  N_10
REMARK    4  A    between atoms: C_11  and  C_13
REMARK    5  A    between atoms: C_22  and  C_23
REMARK                            x       y       z     vdW  Elec       q    Type
REMARK                         _______ _______ _______ _____ _____    ______ ____
ROOT
ATOM      1  N   UNL     1       2.025   7.876  19.487  0.00  0.00    +0.000 N 
ATOM      2  C   UNL     1       2.135   6.512  19.740  0.00  0.00    +0.000 C 
ATOM      3  O   UNL     1       1.694   5.966  20.757  0.00  0.00    +0.000 OA
ATOM      4  H   UNL     1       2.292   8.271  18.595  0.00  0.00    +0.000 HD
ENDROOT
BRANCH   2   5
ATOM      5  C   UNL     1       2.810   5.649  18.735  0.00  0.00    +0.000 A 
ATOM      6  C   UNL     1       3.941   6.019  17.989  0.00  0.00    +0.000 A 
ATOM      7  C   UNL     1       4.563   5.109  17.124  0.00  0.00    +0.000 A 
ATOM      8  C   UNL     1       4.081   3.801  16.974  0.00  0.00    +0.000 A 
ATOM      9  C   UNL     1       2.946   3.414  17.706  0.00  0.00    +0.000 A 
ATOM     10  C   UNL     1       2.174   2.238  17.849  0.00  0.00    +0.000 A 
ATOM     11  N   UNL     1       1.166   2.385  18.711  0.00  0.00    +0.000 NA
ATOM     12  N   UNL     1       1.302   3.653  19.136  0.00  0.00    +0.000 N 
ATOM     13  C   UNL     1       2.349   4.332  18.557  0.00  0.00    +0.000 A 
ATOM     14  H   UNL     1       0.662   4.018  19.837  0.00  0.00    +0.000 HD
ENDBRANCH   2   5
BRANCH   1  18
ATOM     15  C   UNL     1       0.392  10.214  21.684  0.00  0.00    +0.000 A 
ATOM     16  N   UNL     1       1.096   9.483  22.555  0.00  0.00    +0.000 NA
ATOM     17  N   UNL     1       1.709   8.579  21.783  0.00  0.00    +0.000 N 
ATOM     18  C   UNL     1       1.468   8.721  20.439  0.00  0.00    +0.000 A 
ATOM     19  C   UNL     1       0.622   9.812  20.330  0.00  0.00    +0.000 A 
ATOM     20  C   UNL     1       0.056  10.456  19.121  0.00  0.00    +0.000 C 
ATOM     21  H   UNL     1       2.288   7.862  22.213  0.00  0.00    +0.000 HD
BRANCH  15  26
ATOM     22  C   UNL     1      -3.459  12.312  23.928  0.00  0.00    +0.000 C 
ATOM     23  C   UNL     1      -2.218  12.311  23.129  0.00  0.00    +0.000 A 
ATOM     24  C   UNL     1      -1.404  13.308  22.639  0.00  0.00    +0.000 A 
ATOM     25  C   UNL     1      -0.318  12.654  22.013  0.00  0.00    +0.000 A 
ATOM     26  C   UNL     1      -0.534  11.294  22.144  0.00  0.00    +0.000 A 
ATOM     27  O   UNL     1      -1.714  11.090  22.805  0.00  0.00    +0.000 OA
ENDBRANCH  15  26
ENDBRANCH   1  18
TORSDOF 3
ENDMDL
MODEL 2
REMARK VINA RESULT:      -8.1      0.615      1.044
REMARK  Name = 
REMARK  5 active torsions:
REMARK  status: ('A' for Active; 'I' for Inactive)
REMARK    1  A    between atoms: C_1  and  C_2
REMARK    2  A    between atoms: C_5  and  C_6
REMARK    3  A    between atoms: C_9  and  N_10
REMARK    4  A    between atoms: C_11  and  C_13
REMARK    5  A    between atoms: C_22  and  C_23
REMARK                            x       y       z     vdW  Elec       q    Type
REMARK                         _______ _______ _______ _____ _____    ______ ____
ROOT
ATOM      1  N   UNL     1       2.054   7.801  19.591  0.00  0.00    +0.000 N 
ATOM      2  C   UNL     1       2.136   6.431  19.816  0.00  0.00    +0.000 C 
ATOM      3  O   UNL     1       1.695   5.875  20.827  0.00  0.00    +0.000 OA
ATOM      4  H   UNL     1       2.318   8.208  18.703  0.00  0.00    +0.000 HD
ENDROOT
BRANCH   2   5
ATOM      5  C   UNL     1       2.778   5.573  18.784  0.00  0.00    +0.000 A 
ATOM      6  C   UNL     1       3.849   5.966  17.966  0.00  0.00    +0.000 A 
ATOM      7  C   UNL     1       4.448   5.062  17.079  0.00  0.00    +0.000 A 
ATOM      8  C   UNL     1       4.000   3.737  16.977  0.00  0.00    +0.000 A 
ATOM      9  C   UNL     1       2.925   3.326  17.783  0.00  0.00    +0.000 A 
ATOM     10  C   UNL     1       2.202   2.129  17.989  0.00  0.00    +0.000 A 
ATOM     11  N   UNL     1       1.242   2.259  18.908  0.00  0.00    +0.000 NA
ATOM     12  N   UNL     1       1.362   3.537  19.305  0.00  0.00    +0.000 N 
ATOM     13  C   UNL     1       2.350   4.239  18.654  0.00  0.00    +0.000 A 
ATOM     14  H   UNL     1       0.753   3.893  20.038  0.00  0.00    +0.000 HD
ENDBRANCH   2   5
BRANCH   1  18
ATOM     15  C   UNL     1       0.491  10.120  21.859  0.00  0.00    +0.000 A 
ATOM     16  N   UNL     1       1.244   9.399  22.698  0.00  0.00    +0.000 NA
ATOM     17  N   UNL     1       1.834   8.503  21.899  0.00  0.00    +0.000 N 
ATOM     18  C   UNL     1       1.529   8.640  20.567  0.00  0.00    +0.000 A 
ATOM     19  C   UNL     1       0.664   9.720  20.497  0.00  0.00    +0.000 A 
ATOM     20  C   UNL     1       0.035  10.354  19.314  0.00  0.00    +0.000 C 
ATOM     21  H   UNL     1       2.441   7.795  22.302  0.00  0.00    +0.000 HD
BRANCH  15  26
ATOM     22  C   UNL     1      -1.412  14.620  22.481  0.00  0.00    +0.000 C 
ATOM     23  C   UNL     1      -1.347  13.160  22.681  0.00  0.00    +0.000 A 
ATOM     24  C   UNL     1      -2.181  12.247  23.287  0.00  0.00    +0.000 A 
ATOM     25  C   UNL     1      -1.594  10.979  23.075  0.00  0.00    +0.000 A 
ATOM     26  C   UNL     1      -0.428  11.187  22.361  0.00  0.00    +0.000 A 
ATOM     27  O   UNL     1      -0.268  12.528  22.146  0.00  0.00    +0.000 OA
ENDBRANCH  15  26
ENDBRANCH   1  18
TORSDOF 3
ENDMDL
MODEL 3
REMARK VINA RESULT:      -7.9      1.453      1.989
REMARK  Name = 
REMARK  5 active torsions:
REMARK  status: ('A' for Active; 'I' for Inactive)
REMARK    1  A    between atoms: C_1  and  C_2
REMARK    2  A    between atoms: C_5  and  C_6
REMARK    3  A    between atoms: C_9  and  N_10
REMARK    4  A    between atoms: C_11  and  C_13
REMARK    5  A    between atoms: C_22  and  C_23
REMARK                            x       y       z     vdW  Elec       q    Type
REMARK                         _______ _______ _______ _____ _____    ______ ____
ROOT
ATOM      1  N   UNL     1       2.038   7.475  19.608  0.00  0.00    +0.000 N 
ATOM      2  C   UNL     1       1.994   6.118  19.909  0.00  0.00    +0.000 C 
ATOM      3  O   UNL     1       1.453   5.657  20.920  0.00  0.00    +0.000 OA
ATOM      4  H   UNL     1       2.384   7.808  18.718  0.00  0.00    +0.000 HD
ENDROOT
BRANCH   2   5
ATOM      5  C   UNL     1       2.620   5.153  18.966  0.00  0.00    +0.000 A 
ATOM      6  C   UNL     1       1.923   4.398  18.010  0.00  0.00    +0.000 A 
ATOM      7  C   UNL     1       2.606   3.576  17.103  0.00  0.00    +0.000 A 
ATOM      8  C   UNL     1       4.004   3.479  17.118  0.00  0.00    +0.000 A 
ATOM      9  C   UNL     1       4.719   4.222  18.072  0.00  0.00    +0.000 A 
ATOM     10  C   UNL     1       6.079   4.411  18.410  0.00  0.00    +0.000 A 
ATOM     11  N   UNL     1       6.245   5.261  19.426  0.00  0.00    +0.000 NA
ATOM     12  N   UNL     1       4.988   5.632  19.729  0.00  0.00    +0.000 N 
ATOM     13  C   UNL     1       4.022   5.030  18.958  0.00  0.00    +0.000 A 
ATOM     14  H   UNL     1       4.832   6.314  20.467  0.00  0.00    +0.000 HD
ENDBRANCH   2   5
BRANCH   1  18
ATOM     15  C   UNL     1       0.518  10.013  21.658  0.00  0.00    +0.000 A 
ATOM     16  N   UNL     1       1.266   9.364  22.557  0.00  0.00    +0.000 NA
ATOM     17  N   UNL     1       1.840   8.391  21.842  0.00  0.00    +0.000 N 
ATOM     18  C   UNL     1       1.529   8.408  20.504  0.00  0.00    +0.000 A 
ATOM     19  C   UNL     1       0.678   9.487  20.338  0.00  0.00    +0.000 A 
ATOM     20  C   UNL     1       0.049  10.017  19.105  0.00  0.00    +0.000 C 
ATOM     21  H   UNL     1       2.442   7.715  22.305  0.00  0.00    +0.000 HD
BRANCH  15  26
ATOM     22  C   UNL     1      -3.264  12.310  23.824  0.00  0.00    +0.000 C 
ATOM     23  C   UNL     1      -2.037  12.238  23.007  0.00  0.00    +0.000 A 
ATOM     24  C   UNL     1      -1.218  13.189  22.442  0.00  0.00    +0.000 A 
ATOM     25  C   UNL     1      -0.152  12.480  21.842  0.00  0.00    +0.000 A 
ATOM     26  C   UNL     1      -0.385  11.135  22.063  0.00  0.00    +0.000 A 
ATOM     27  O   UNL     1      -1.556  10.991  22.755  0.00  0.00    +0.000 OA
ENDBRANCH  15  26
ENDBRANCH   1  18
TORSDOF 3
ENDMDL
MODEL 4
REMARK VINA RESULT:      -7.8      1.585      2.255
REMARK  Name = 
REMARK  5 active torsions:
REMARK  status: ('A' for Active; 'I' for Inactive)
REMARK    1  A    between atoms: C_1  and  C_2
REMARK    2  A    between atoms: C_5  and  C_6
REMARK    3  A    between atoms: C_9  and  N_10
REMARK    4  A    between atoms: C_11  and  C_13
REMARK    5  A    between atoms: C_22  and  C_23
REMARK                            x       y       z     vdW  Elec       q    Type
REMARK                         _______ _______ _______ _____ _____    ______ ____
ROOT
ATOM      1  N   UNL     1       1.975   7.482  19.651  0.00  0.00    +0.000 N 
ATOM      2  C   UNL     1       1.970   6.128  19.970  0.00  0.00    +0.000 C 
ATOM      3  O   UNL     1       1.512   5.674  21.023  0.00  0.00    +0.000 OA
ATOM      4  H   UNL     1       2.250   7.808  18.734  0.00  0.00    +0.000 HD
ENDROOT
BRANCH   2   5
ATOM      5  C   UNL     1       2.535   5.160  18.992  0.00  0.00    +0.000 A 
ATOM      6  C   UNL     1       1.780   4.417  18.071  0.00  0.00    +0.000 A 
ATOM      7  C   UNL     1       2.404   3.590  17.128  0.00  0.00    +0.000 A 
ATOM      8  C   UNL     1       3.800   3.476  17.071  0.00  0.00    +0.000 A 
ATOM      9  C   UNL     1       4.573   4.205  17.989  0.00  0.00    +0.000 A 
ATOM     10  C   UNL     1       5.951   4.376  18.257  0.00  0.00    +0.000 A 
ATOM     11  N   UNL     1       6.179   5.220  19.266  0.00  0.00    +0.000 NA
ATOM     12  N   UNL     1       4.945   5.606  19.634  0.00  0.00    +0.000 N 
ATOM     13  C   UNL     1       3.932   5.019  18.912  0.00  0.00    +0.000 A 
ATOM     14  H   UNL     1       4.835   6.287  20.382  0.00  0.00    +0.000 HD
ENDBRANCH   2   5
BRANCH   1  18
ATOM     15  C   UNL     1       0.614  10.053  21.772  0.00  0.00    +0.000 A 
ATOM     16  N   UNL     1       1.323   9.336  22.651  0.00  0.00    +0.000 NA
ATOM     17  N   UNL     1       1.836   8.349  21.909  0.00  0.00    +0.000 N 
ATOM     18  C   UNL     1       1.525   8.420  20.573  0.00  0.00    +0.000 A 
ATOM     19  C   UNL     1       0.740   9.552  20.438  0.00  0.00    +0.000 A 
ATOM     20  C   UNL     1       0.143  10.152  19.220  0.00  0.00    +0.000 C 
ATOM     21  H   UNL     1       2.397   7.626  22.353  0.00  0.00    +0.000 HD
BRANCH  15  26
ATOM     22  C   UNL     1      -0.923  14.718  22.144  0.00  0.00    +0.000 C 
ATOM     23  C   UNL     1      -0.978  13.269  22.418  0.00  0.00    +0.000 A 
ATOM     24  C   UNL     1      -1.887  12.460  23.061  0.00  0.00    +0.000 A 
ATOM     25  C   UNL     1      -1.404  11.139  22.919  0.00  0.00    +0.000 A 
ATOM     26  C   UNL     1      -0.219  11.215  22.209  0.00  0.00    +0.000 A 
ATOM     27  O   UNL     1       0.050  12.526  21.928  0.00  0.00    +0.000 OA
ENDBRANCH  15  26
ENDBRANCH   1  18
TORSDOF 3
ENDMDL
MODEL 5
REMARK VINA RESULT:      -7.7      7.356     10.231
REMARK  Name = 
REMARK  5 active torsions:
REMARK  status: ('A' for Active; 'I' for Inactive)
REMARK    1  A    between atoms: C_1  and  C_2
REMARK    2  A    between atoms: C_5  and  C_6
REMARK    3  A    between atoms: C_9  and  N_10
REMARK    4  A    between atoms: C_11  and  C_13
REMARK    5  A    between atoms: C_22  and  C_23
REMARK                            x       y       z     vdW  Elec       q    Type
REMARK                         _______ _______ _______ _____ _____    ______ ____
ROOT
ATOM      1  N   UNL     1       8.919   8.509  18.599  0.00  0.00    +0.000 N 
ATOM      2  C   UNL     1       8.731   9.875  18.415  0.00  0.00    +0.000 C 
ATOM      3  O   UNL     1       7.714  10.364  17.911  0.00  0.00    +0.000 OA
ATOM      4  H   UNL     1       9.709   8.150  19.119  0.00  0.00    +0.000 HD
ENDROOT
BRANCH   2   5
ATOM      5  C   UNL     1       9.799  10.812  18.854  0.00  0.00    +0.000 A 
ATOM      6  C   UNL     1      10.946  11.127  18.109  0.00  0.00    +0.000 A 
ATOM      7  C   UNL     1      11.860  12.087  18.564  0.00  0.00    +0.000 A 
ATOM      8  C   UNL     1      11.662  12.764  19.775  0.00  0.00    +0.000 A 
ATOM      9  C   UNL     1      10.523  12.457  20.539  0.00  0.00    +0.000 A 
ATOM     10  C   UNL     1       9.965  12.895  21.762  0.00  0.00    +0.000 A 
ATOM     11  N   UNL     1       8.818  12.277  22.055  0.00  0.00    +0.000 NA
ATOM     12  N   UNL     1       8.632  11.453  21.009  0.00  0.00    +0.000 N 
ATOM     13  C   UNL     1       9.632  11.505  20.067  0.00  0.00    +0.000 A 
ATOM     14  H   UNL     1       7.796  10.876  20.969  0.00  0.00    +0.000 HD
ENDBRANCH   2   5
BRANCH   1  18
ATOM     15  C   UNL     1       6.512   5.988  17.702  0.00  0.00    +0.000 A 
ATOM     16  N   UNL     1       6.431   6.813  16.652  0.00  0.00    +0.000 NA
ATOM     17  N   UNL     1       7.299   7.786  16.950  0.00  0.00    +0.000 N 
ATOM     18  C   UNL     1       7.975   7.603  18.131  0.00  0.00    +0.000 A 
ATOM     19  C   UNL     1       7.502   6.407  18.645  0.00  0.00    +0.000 A 
ATOM     20  C   UNL     1       7.894   5.684  19.878  0.00  0.00    +0.000 C 
ATOM     21  H   UNL     1       7.402   8.577  16.321  0.00  0.00    +0.000 HD
BRANCH  15  26
ATOM     22  C   UNL     1       4.111   2.248  19.827  0.00  0.00    +0.000 C 
ATOM     23  C   UNL     1       4.499   3.114  18.697  0.00  0.00    +0.000 A 
ATOM     24  C   UNL     1       4.077   3.216  17.391  0.00  0.00    +0.000 A 
ATOM     25  C   UNL     1       4.789   4.302  16.833  0.00  0.00    +0.000 A 
ATOM     26  C   UNL     1       5.617   4.796  17.824  0.00  0.00    +0.000 A 
ATOM     27  O   UNL     1       5.454   4.047  18.957  0.00  0.00    +0.000 OA
ENDBRANCH  15  26
ENDBRANCH   1  18
TORSDOF 3
ENDMDL
MODEL 6
REMARK VINA RESULT:      -7.7      1.102      1.116
REMARK  Name = 
REMARK  5 active torsions:
REMARK  status: ('A' for Active; 'I' for Inactive)
REMARK    1  A    between atoms: C_1  and  C_2
REMARK    2  A    between atoms: C_5  and  C_6
REMARK    3  A    between atoms: C_9  and  N_10
REMARK    4  A    between atoms: C_11  and  C_13
REMARK    5  A    between atoms: C_22  and  C_23
REMARK                            x       y       z     vdW  Elec       q    Type
REMARK                         _______ _______ _______ _____ _____    ______ ____
ROOT
ATOM      1  N   UNL     1       2.189   7.788  19.982  0.00  0.00    +0.000 N 
ATOM      2  C   UNL     1       2.013   6.414  20.107  0.00  0.00    +0.000 C 
ATOM      3  O   UNL     1       1.245   5.893  20.922  0.00  0.00    +0.000 OA
ATOM      4  H   UNL     1       2.735   8.185  19.228  0.00  0.00    +0.000 HD
ENDROOT
BRANCH   2   5
ATOM      5  C   UNL     1       2.778   5.509  19.208  0.00  0.00    +0.000 A 
ATOM      6  C   UNL     1       3.263   5.860  17.938  0.00  0.00    +0.000 A 
ATOM      7  C   UNL     1       4.048   4.970  17.195  0.00  0.00    +0.000 A 
ATOM      8  C   UNL     1       4.378   3.701  17.691  0.00  0.00    +0.000 A 
ATOM      9  C   UNL     1       3.896   3.328  18.957  0.00  0.00    +0.000 A 
ATOM     10  C   UNL     1       3.999   2.194  19.795  0.00  0.00    +0.000 A 
ATOM     11  N   UNL     1       3.344   2.346  20.949  0.00  0.00    +0.000 NA
ATOM     12  N   UNL     1       2.836   3.587  20.858  0.00  0.00    +0.000 N 
ATOM     13  C   UNL     1       3.122   4.227  19.675  0.00  0.00    +0.000 A 
ATOM     14  H   UNL     1       2.306   3.969  21.637  0.00  0.00    +0.000 HD
ENDBRANCH   2   5
BRANCH   1  18
ATOM     15  C   UNL     1       0.349  10.169  21.959  0.00  0.00    +0.000 A 
ATOM     16  N   UNL     1       1.024   9.507  22.906  0.00  0.00    +0.000 NA
ATOM     17  N   UNL     1       1.713   8.591  22.217  0.00  0.00    +0.000 N 
ATOM     18  C   UNL     1       1.547   8.658  20.856  0.00  0.00    +0.000 A 
ATOM     19  C   UNL     1       0.673   9.711  20.643  0.00  0.00    +0.000 A 
ATOM     20  C   UNL     1       0.159  10.273  19.372  0.00  0.00    +0.000 C 
ATOM     21  H   UNL     1       2.290   7.917  22.715  0.00  0.00    +0.000 HD
BRANCH  15  26
ATOM     22  C   UNL     1      -3.605  12.267  24.016  0.00  0.00    +0.000 C 
ATOM     23  C   UNL     1      -2.374  12.251  23.201  0.00  0.00    +0.000 A 
ATOM     24  C   UNL     1      -1.631  13.234  22.587  0.00  0.00    +0.000 A 
ATOM     25  C   UNL     1      -0.511  12.582  22.022  0.00  0.00    +0.000 A 
ATOM     26  C   UNL     1      -0.639  11.235  22.310  0.00  0.00    +0.000 A 
ATOM     27  O   UNL     1      -1.797  11.035  23.010  0.00  0.00    +0.000 OA
ENDBRANCH  15  26
ENDBRANCH   1  18
TORSDOF 3
ENDMDL
MODEL 7
REMARK VINA RESULT:      -7.7      1.574      2.021
REMARK  Name = 
REMARK  5 active torsions:
REMARK  status: ('A' for Active; 'I' for Inactive)
REMARK    1  A    between atoms: C_1  and  C_2
REMARK    2  A    between atoms: C_5  and  C_6
REMARK    3  A    between atoms: C_9  and  N_10
REMARK    4  A    between atoms: C_11  and  C_13
REMARK    5  A    between atoms: C_22  and  C_23
REMARK                            x       y       z     vdW  Elec       q    Type
REMARK                         _______ _______ _______ _____ _____    ______ ____
ROOT
ATOM      1  N   UNL     1       1.292   9.281  20.241  0.00  0.00    +0.000 N 
ATOM      2  C   UNL     1       1.549   7.915  20.293  0.00  0.00    +0.000 C 
ATOM      3  O   UNL     1       1.099   7.166  21.167  0.00  0.00    +0.000 OA
ATOM      4  H   UNL     1       1.577   9.842  19.449  0.00  0.00    +0.000 HD
ENDROOT
BRANCH   2   5
ATOM      5  C   UNL     1       2.402   7.305  19.239  0.00  0.00    +0.000 A 
ATOM      6  C   UNL     1       2.818   7.956  18.067  0.00  0.00    +0.000 A 
ATOM      7  C   UNL     1       3.693   7.332  17.168  0.00  0.00    +0.000 A 
ATOM      8  C   UNL     1       4.182   6.040  17.406  0.00  0.00    +0.000 A 
ATOM      9  C   UNL     1       3.772   5.369  18.570  0.00  0.00    +0.000 A 
ATOM     10  C   UNL     1       4.025   4.113  19.169  0.00  0.00    +0.000 A 
ATOM     11  N   UNL     1       3.377   3.954  20.325  0.00  0.00    +0.000 NA
ATOM     12  N   UNL     1       2.721   5.118  20.477  0.00  0.00    +0.000 N 
ATOM     13  C   UNL     1       2.907   6.008  19.446  0.00  0.00    +0.000 A 
ATOM     14  H   UNL     1       2.162   5.271  21.313  0.00  0.00    +0.000 HD
ENDBRANCH   2   5
BRANCH   1  18
ATOM     15  C   UNL     1      -0.771  11.055  22.598  0.00  0.00    +0.000 A 
ATOM     16  N   UNL     1      -0.106  10.222  23.406  0.00  0.00    +0.000 NA
ATOM     17  N   UNL     1       0.666   9.521  22.568  0.00  0.00    +0.000 N 
ATOM     18  C   UNL     1       0.561   9.895  21.251  0.00  0.00    +0.000 A 
ATOM     19  C   UNL     1      -0.360  10.929  21.234  0.00  0.00    +0.000 A 
ATOM     20  C   UNL     1      -0.844  11.749  20.097  0.00  0.00    +0.000 C 
ATOM     21  H   UNL     1       1.255   8.777  22.932  0.00  0.00    +0.000 HD
BRANCH  15  26
ATOM     22  C   UNL     1      -5.010  12.437  24.693  0.00  0.00    +0.000 C 
ATOM     23  C   UNL     1      -3.696  12.668  24.062  0.00  0.00    +0.000 A 
ATOM     24  C   UNL     1      -2.927  13.791  23.854  0.00  0.00    +0.000 A 
ATOM     25  C   UNL     1      -1.727  13.339  23.260  0.00  0.00    +0.000 A 
ATOM     26  C   UNL     1      -1.833  11.966  23.125  0.00  0.00    +0.000 A 
ATOM     27  O   UNL     1      -3.053  11.564  23.594  0.00  0.00    +0.000 OA
ENDBRANCH  15  26
ENDBRANCH   1  18
TORSDOF 3
ENDMDL
MODEL 8
REMARK VINA RESULT:      -7.6      1.278      1.479
REMARK  Name = 
REMARK  5 active torsions:
REMARK  status: ('A' for Active; 'I' for Inactive)
REMARK    1  A    between atoms: C_1  and  C_2
REMARK    2  A    between atoms: C_5  and  C_6
REMARK    3  A    between atoms: C_9  and  N_10
REMARK    4  A    between atoms: C_11  and  C_13
REMARK    5  A    between atoms: C_22  and  C_23
REMARK                            x       y       z     vdW  Elec       q    Type
REMARK                         _______ _______ _______ _____ _____    ______ ____
ROOT
ATOM      1  N   UNL     1       2.156   7.798  19.729  0.00  0.00    +0.000 N 
ATOM      2  C   UNL     1       2.127   6.424  19.939  0.00  0.00    +0.000 C 
ATOM      3  O   UNL     1       1.463   5.880  20.828  0.00  0.00    +0.000 OA
ATOM      4  H   UNL     1       2.615   8.200  18.922  0.00  0.00    +0.000 HD
ENDROOT
BRANCH   2   5
ATOM      5  C   UNL     1       2.928   5.545  19.045  0.00  0.00    +0.000 A 
ATOM      6  C   UNL     1       3.434   5.923  17.791  0.00  0.00    +0.000 A 
ATOM      7  C   UNL     1       4.251   5.057  17.053  0.00  0.00    +0.000 A 
ATOM      8  C   UNL     1       4.592   3.787  17.539  0.00  0.00    +0.000 A 
ATOM      9  C   UNL     1       4.090   3.387  18.788  0.00  0.00    +0.000 A 
ATOM     10  C   UNL     1       4.194   2.244  19.613  0.00  0.00    +0.000 A 
ATOM     11  N   UNL     1       3.512   2.368  20.754  0.00  0.00    +0.000 NA
ATOM     12  N   UNL     1       2.984   3.601  20.669  0.00  0.00    +0.000 N 
ATOM     13  C   UNL     1       3.284   4.263  19.501  0.00  0.00    +0.000 A 
ATOM     14  H   UNL     1       2.430   3.963  21.441  0.00  0.00    +0.000 HD
ENDBRANCH   2   5
BRANCH   1  18
ATOM     15  C   UNL     1       0.214  10.119  21.679  0.00  0.00    +0.000 A 
ATOM     16  N   UNL     1       0.948   9.528  22.629  0.00  0.00    +0.000 NA
ATOM     17  N   UNL     1       1.678   8.635  21.951  0.00  0.00    +0.000 N 
ATOM     18  C   UNL     1       1.480   8.653  20.592  0.00  0.00    +0.000 A 
ATOM     19  C   UNL     1       0.538   9.643  20.370  0.00  0.00    +0.000 A 
ATOM     20  C   UNL     1      -0.036  10.136  19.095  0.00  0.00    +0.000 C 
ATOM     21  H   UNL     1       2.305   8.013  22.455  0.00  0.00    +0.000 HD
BRANCH  15  26
ATOM     22  C   UNL     1      -2.882  13.904  21.084  0.00  0.00    +0.000 C 
ATOM     23  C   UNL     1      -2.249  12.803  21.836  0.00  0.00    +0.000 A 
ATOM     24  C   UNL     1      -2.487  12.236  23.068  0.00  0.00    +0.000 A 
ATOM     25  C   UNL     1      -1.580  11.158  23.185  0.00  0.00    +0.000 A 
ATOM     26  C   UNL     1      -0.830  11.132  22.023  0.00  0.00    +0.000 A 
ATOM     27  O   UNL     1      -1.227  12.160  21.212  0.00  0.00    +0.000 OA
ENDBRANCH  15  26
ENDBRANCH   1  18
TORSDOF 3
ENDMDL
MODEL 9
REMARK VINA RESULT:      -7.5      2.147      8.727
REMARK  Name = 
REMARK  5 active torsions:
REMARK  status: ('A' for Active; 'I' for Inactive)
REMARK    1  A    between atoms: C_1  and  C_2
REMARK    2  A    between atoms: C_5  and  C_6
REMARK    3  A    between atoms: C_9  and  N_10
REMARK    4  A    between atoms: C_11  and  C_13
REMARK    5  A    between atoms: C_22  and  C_23
REMARK                            x       y       z     vdW  Elec       q    Type
REMARK                         _______ _______ _______ _____ _____    ______ ____
ROOT
ATOM      1  N   UNL     1       0.860   8.865  20.405  0.00  0.00    +0.000 N 
ATOM      2  C   UNL     1       0.997   9.471  21.650  0.00  0.00    +0.000 C 
ATOM      3  O   UNL     1       1.854   9.149  22.479  0.00  0.00    +0.000 OA
ATOM      4  H   UNL     1       0.227   9.230  19.706  0.00  0.00    +0.000 HD
ENDROOT
BRANCH   2   5
ATOM      5  C   UNL     1       0.073  10.579  22.012  0.00  0.00    +0.000 A 
ATOM      6  C   UNL     1      -0.961  10.485  22.957  0.00  0.00    +0.000 A 
ATOM      7  C   UNL     1      -1.730  11.606  23.298  0.00  0.00    +0.000 A 
ATOM      8  C   UNL     1      -1.493  12.857  22.711  0.00  0.00    +0.000 A 
ATOM      9  C   UNL     1      -0.468  12.970  21.758  0.00  0.00    +0.000 A 
ATOM     10  C   UNL     1       0.083  14.004  20.967  0.00  0.00    +0.000 A 
ATOM     11  N   UNL     1       1.093  13.585  20.201  0.00  0.00    +0.000 NA
ATOM     12  N   UNL     1       1.202  12.283  20.515  0.00  0.00    +0.000 N 
ATOM     13  C   UNL     1       0.281  11.847  21.438  0.00  0.00    +0.000 A 
ATOM     14  H   UNL     1       1.933  11.723  20.083  0.00  0.00    +0.000 HD
ENDBRANCH   2   5
BRANCH   1  18
ATOM     15  C   UNL     1       3.032   6.242  19.239  0.00  0.00    +0.000 A 
ATOM     16  N   UNL     1       2.594   5.726  20.393  0.00  0.00    +0.000 NA
ATOM     17  N   UNL     1       1.792   6.680  20.879  0.00  0.00    +0.000 N 
ATOM     18  C   UNL     1       1.657   7.778  20.065  0.00  0.00    +0.000 A 
ATOM     19  C   UNL     1       2.441   7.512  18.955  0.00  0.00    +0.000 A 
ATOM     20  C   UNL     1       2.654   8.320  17.730  0.00  0.00    +0.000 C 
ATOM     21  H   UNL     1       1.353   6.553  21.787  0.00  0.00    +0.000 HD
BRANCH  15  26
ATOM     22  C   UNL     1       7.456   4.696  17.720  0.00  0.00    +0.000 C 
ATOM     23  C   UNL     1       5.984   4.784  17.671  0.00  0.00    +0.000 A 
ATOM     24  C   UNL     1       5.020   4.140  16.928  0.00  0.00    +0.000 A 
ATOM     25  C   UNL     1       3.777   4.613  17.406  0.00  0.00    +0.000 A 
ATOM     26  C   UNL     1       4.049   5.529  18.406  0.00  0.00    +0.000 A 
ATOM     27  O   UNL     1       5.404   5.649  18.545  0.00  0.00    +0.000 OA
ENDBRANCH  15  26
ENDBRANCH   1  18
TORSDOF 3
ENDMDL
