MODEL 1
REMARK VINA RESULT:      -8.5      0.000      0.000
REMARK  Name = 
REMARK  4 active torsions:
REMARK  status: ('A' for Active; 'I' for Inactive)
REMARK    1  A    between atoms: C_1  and  C_2
REMARK    2  A    between atoms: N_6  and  C_7
REMARK    3  A    between atoms: C_10  and  C_11
REMARK    4  A    between atoms: C_17  and  C_18
REMARK                            x       y       z     vdW  Elec       q    Type
REMARK                         _______ _______ _______ _____ _____    ______ ____
ROOT
ATOM      1  C   UNL     1       4.265   3.078  18.900  0.00  0.00    +0.000 C 
ATOM      2  O   UNL     1       4.346   1.856  19.094  0.00  0.00    +0.000 OA
ATOM      3  N   UNL     1       3.643   3.934  19.805  0.00  0.00    +0.000 N 
ATOM      4  C   UNL     1       3.118   3.413  21.060  0.00  0.00    +0.000 C 
ATOM      5  C   UNL     1       1.632   3.741  21.188  0.00  0.00    +0.000 C 
ATOM      6  C   UNL     1       1.350   5.233  20.953  0.00  0.00    +0.000 C 
ATOM      7  C   UNL     1       2.037   5.768  19.673  0.00  0.00    +0.000 C 
ATOM      8  C   UNL     1       3.518   5.384  19.691  0.00  0.00    +0.000 C 
ENDROOT
BRANCH   7   9
ATOM      9  C   UNL     1       1.937   7.262  19.613  0.00  0.00    +0.000 A 
ATOM     10  N   UNL     1       1.555   7.975  20.647  0.00  0.00    +0.000 NA
ATOM     11  C   UNL     1       1.140   9.208  20.210  0.00  0.00    +0.000 A 
ATOM     12  C   UNL     1       0.392  10.116  20.975  0.00  0.00    +0.000 A 
ATOM     13  C   UNL     1      -0.312  11.106  20.296  0.00  0.00    +0.000 A 
ATOM     14  C   UNL     1      -0.033  11.381  18.959  0.00  0.00    +0.000 A 
ATOM     15  C   UNL     1       0.935  10.656  18.257  0.00  0.00    +0.000 A 
ATOM     16  C   UNL     1       1.404   9.487  18.868  0.00  0.00    +0.000 A 
ATOM     17  S   UNL     1       2.268   8.157  18.190  0.00  0.00    +0.000 S 
ENDBRANCH   7   9
BRANCH   1  21
ATOM     18  C   UNL     1       6.147   4.399  15.297  0.00  0.00    +0.000 A 
ATOM     19  C   UNL     1       6.895   4.361  16.482  0.00  0.00    +0.000 A 
ATOM     20  C   UNL     1       6.272   4.040  17.689  0.00  0.00    +0.000 A 
ATOM     21  C   UNL     1       4.938   3.616  17.696  0.00  0.00    +0.000 A 
ATOM     22  C   UNL     1       4.188   3.673  16.516  0.00  0.00    +0.000 A 
ATOM     23  C   UNL     1       4.789   4.080  15.318  0.00  0.00    +0.000 A 
BRANCH  18  29
ATOM     24  C   UNL     1       5.434   3.355  12.425  0.00  0.00    +0.000 C 
ATOM     25  C   UNL     1       6.607   4.173  12.813  0.00  0.00    +0.000 A 
ATOM     26  C   UNL     1       7.636   4.652  12.033  0.00  0.00    +0.000 A 
ATOM     27  C   UNL     1       8.324   5.558  12.851  0.00  0.00    +0.000 A 
ATOM     28  N   UNL     1       7.781   5.658  14.059  0.00  0.00    +0.000 NA
ATOM     29  N   UNL     1       6.805   4.715  14.078  0.00  0.00    +0.000 N 
ENDBRANCH  18  29
ENDBRANCH   1  21
TORSDOF 3
ENDMDL
MODEL 2
REMARK VINA RESULT:      -7.6      3.804      6.705
REMARK  Name = 
REMARK  4 active torsions:
REMARK  status: ('A' for Active; 'I' for Inactive)
REMARK    1  A    between atoms: C_1  and  C_2
REMARK    2  A    between atoms: N_6  and  C_7
REMARK    3  A    between atoms: C_10  and  C_11
REMARK    4  A    between atoms: C_17  and  C_18
REMARK                            x       y       z     vdW  Elec       q    Type
REMARK                         _______ _______ _______ _____ _____    ______ ____
ROOT
ATOM      1  C   UNL     1      -0.017   9.195  21.391  0.00  0.00    +0.000 C 
ATOM      2  O   UNL     1      -0.759   8.487  22.088  0.00  0.00    +0.000 OA
ATOM      3  N   UNL     1      -0.050  10.585  21.450  0.00  0.00    +0.000 N 
ATOM      4  C   UNL     1      -0.930  11.257  22.398  0.00  0.00    +0.000 C 
ATOM      5  C   UNL     1      -1.865  12.214  21.664  0.00  0.00    +0.000 C 
ATOM      6  C   UNL     1      -1.100  13.163  20.729  0.00  0.00    +0.000 C 
ATOM      7  C   UNL     1      -0.085  12.414  19.832  0.00  0.00    +0.000 C 
ATOM      8  C   UNL     1       0.794  11.512  20.700  0.00  0.00    +0.000 C 
ENDROOT
BRANCH   7   9
ATOM      9  C   UNL     1       0.800  13.390  19.118  0.00  0.00    +0.000 A 
ATOM     10  N   UNL     1       1.959  13.036  18.613  0.00  0.00    +0.000 NA
ATOM     11  C   UNL     1       2.724  14.159  18.422  0.00  0.00    +0.000 A 
ATOM     12  C   UNL     1       4.107  14.152  18.187  0.00  0.00    +0.000 A 
ATOM     13  C   UNL     1       4.810  15.327  18.437  0.00  0.00    +0.000 A 
ATOM     14  C   UNL     1       4.135  16.534  18.600  0.00  0.00    +0.000 A 
ATOM     15  C   UNL     1       2.738  16.596  18.547  0.00  0.00    +0.000 A 
ATOM     16  C   UNL     1       2.058  15.374  18.595  0.00  0.00    +0.000 A 
ATOM     17  S   UNL     1       0.399  15.046  18.939  0.00  0.00    +0.000 S 
ENDBRANCH   7   9
BRANCH   1  21
ATOM     18  C   UNL     1       2.666   7.159  18.760  0.00  0.00    +0.000 A 
ATOM     19  C   UNL     1       2.463   6.653  20.051  0.00  0.00    +0.000 A 
ATOM     20  C   UNL     1       1.679   7.363  20.963  0.00  0.00    +0.000 A 
ATOM     21  C   UNL     1       0.980   8.501  20.545  0.00  0.00    +0.000 A 
ATOM     22  C   UNL     1       1.199   9.016  19.263  0.00  0.00    +0.000 A 
ATOM     23  C   UNL     1       2.055   8.353  18.374  0.00  0.00    +0.000 A 
BRANCH  18  29
ATOM     24  C   UNL     1       2.144   4.240  17.737  0.00  0.00    +0.000 C 
ATOM     25  C   UNL     1       3.336   5.080  17.473  0.00  0.00    +0.000 A 
ATOM     26  C   UNL     1       4.467   4.789  16.742  0.00  0.00    +0.000 A 
ATOM     27  C   UNL     1       5.144   6.009  16.615  0.00  0.00    +0.000 A 
ATOM     28  N   UNL     1       4.500   7.006  17.211  0.00  0.00    +0.000 NA
ATOM     29  N   UNL     1       3.457   6.414  17.846  0.00  0.00    +0.000 N 
ENDBRANCH  18  29
ENDBRANCH   1  21
TORSDOF 3
ENDMDL
MODEL 3
REMARK VINA RESULT:      -7.6      2.005      8.097
REMARK  Name = 
REMARK  4 active torsions:
REMARK  status: ('A' for Active; 'I' for Inactive)
REMARK    1  A    between atoms: C_1  and  C_2
REMARK    2  A    between atoms: N_6  and  C_7
REMARK    3  A    between atoms: C_10  and  C_11
REMARK    4  A    between atoms: C_17  and  C_18
REMARK                            x       y       z     vdW  Elec       q    Type
REMARK                         _______ _______ _______ _____ _____    ______ ____
ROOT
ATOM      1  C   UNL     1       2.142   5.335  20.257  0.00  0.00    +0.000 C 
ATOM      2  O   UNL     1       1.717   4.936  21.352  0.00  0.00    +0.000 OA
ATOM      3  N   UNL     1       2.709   4.472  19.323  0.00  0.00    +0.000 N 
ATOM      4  C   UNL     1       2.760   3.040  19.586  0.00  0.00    +0.000 C 
ATOM      5  C   UNL     1       4.200   2.539  19.510  0.00  0.00    +0.000 C 
ATOM      6  C   UNL     1       4.890   2.967  18.206  0.00  0.00    +0.000 C 
ATOM      7  C   UNL     1       4.698   4.473  17.906  0.00  0.00    +0.000 C 
ATOM      8  C   UNL     1       3.212   4.826  17.998  0.00  0.00    +0.000 C 
ENDROOT
BRANCH   7   9
ATOM      9  C   UNL     1       5.174   4.794  16.522  0.00  0.00    +0.000 A 
ATOM     10  N   UNL     1       4.548   4.358  15.453  0.00  0.00    +0.000 NA
ATOM     11  C   UNL     1       5.402   4.416  14.381  0.00  0.00    +0.000 A 
ATOM     12  C   UNL     1       5.192   3.764  13.156  0.00  0.00    +0.000 A 
ATOM     13  C   UNL     1       6.298   3.552  12.339  0.00  0.00    +0.000 A 
ATOM     14  C   UNL     1       7.491   4.234  12.572  0.00  0.00    +0.000 A 
ATOM     15  C   UNL     1       7.619   5.123  13.645  0.00  0.00    +0.000 A 
ATOM     16  C   UNL     1       6.605   5.087  14.609  0.00  0.00    +0.000 A 
ATOM     17  S   UNL     1       6.588   5.712  16.218  0.00  0.00    +0.000 S 
ENDBRANCH   7   9
BRANCH   1  21
ATOM     18  C   UNL     1       1.312   9.439  19.400  0.00  0.00    +0.000 A 
ATOM     19  C   UNL     1       1.850   8.627  18.391  0.00  0.00    +0.000 A 
ATOM     20  C   UNL     1       2.232   7.316  18.681  0.00  0.00    +0.000 A 
ATOM     21  C   UNL     1       1.946   6.766  19.936  0.00  0.00    +0.000 A 
ATOM     22  C   UNL     1       1.427   7.583  20.947  0.00  0.00    +0.000 A 
ATOM     23  C   UNL     1       1.124   8.925  20.683  0.00  0.00    +0.000 A 
BRANCH  18  29
ATOM     24  C   UNL     1      -1.573  10.445  18.687  0.00  0.00    +0.000 C 
ATOM     25  C   UNL     1      -0.314  11.225  18.629  0.00  0.00    +0.000 A 
ATOM     26  C   UNL     1      -0.114  12.536  18.255  0.00  0.00    +0.000 A 
ATOM     27  C   UNL     1       1.208  12.822  18.622  0.00  0.00    +0.000 A 
ATOM     28  N   UNL     1       1.809  11.783  19.190  0.00  0.00    +0.000 NA
ATOM     29  N   UNL     1       0.918  10.765  19.079  0.00  0.00    +0.000 N 
ENDBRANCH  18  29
ENDBRANCH   1  21
TORSDOF 3
ENDMDL
MODEL 4
REMARK VINA RESULT:      -7.6      3.730      6.463
REMARK  Name = 
REMARK  4 active torsions:
REMARK  status: ('A' for Active; 'I' for Inactive)
REMARK    1  A    between atoms: C_1  and  C_2
REMARK    2  A    between atoms: N_6  and  C_7
REMARK    3  A    between atoms: C_10  and  C_11
REMARK    4  A    between atoms: C_17  and  C_18
REMARK                            x       y       z     vdW  Elec       q    Type
REMARK                         _______ _______ _______ _____ _____    ______ ____
ROOT
ATOM      1  C   UNL     1       0.051   8.881  21.275  0.00  0.00    +0.000 C 
ATOM      2  O   UNL     1      -0.791   8.131  21.792  0.00  0.00    +0.000 OA
ATOM      3  N   UNL     1       0.083  10.248  21.534  0.00  0.00    +0.000 N 
ATOM      4  C   UNL     1      -0.849  10.835  22.487  0.00  0.00    +0.000 C 
ATOM      5  C   UNL     1      -1.658  11.945  21.821  0.00  0.00    +0.000 C 
ATOM      6  C   UNL     1      -0.758  12.965  21.107  0.00  0.00    +0.000 C 
ATOM      7  C   UNL     1       0.300  12.286  20.205  0.00  0.00    +0.000 C 
ATOM      8  C   UNL     1       1.043  11.214  21.006  0.00  0.00    +0.000 C 
ENDROOT
BRANCH   7   9
ATOM      9  C   UNL     1       1.300  13.293  19.723  0.00  0.00    +0.000 A 
ATOM     10  N   UNL     1       1.302  14.532  20.159  0.00  0.00    +0.000 NA
ATOM     11  C   UNL     1       1.996  15.315  19.270  0.00  0.00    +0.000 A 
ATOM     12  C   UNL     1       1.955  16.717  19.242  0.00  0.00    +0.000 A 
ATOM     13  C   UNL     1       2.340  17.350  18.064  0.00  0.00    +0.000 A 
ATOM     14  C   UNL     1       3.035  16.651  17.079  0.00  0.00    +0.000 A 
ATOM     15  C   UNL     1       3.338  15.294  17.232  0.00  0.00    +0.000 A 
ATOM     16  C   UNL     1       2.685  14.623  18.273  0.00  0.00    +0.000 A 
ATOM     17  S   UNL     1       2.486  12.930  18.542  0.00  0.00    +0.000 S 
ENDBRANCH   7   9
BRANCH   1  21
ATOM     18  C   UNL     1       2.857   7.026  18.639  0.00  0.00    +0.000 A 
ATOM     19  C   UNL     1       2.651   6.475  19.912  0.00  0.00    +0.000 A 
ATOM     20  C   UNL     1       1.824   7.128  20.827  0.00  0.00    +0.000 A 
ATOM     21  C   UNL     1       1.088   8.250  20.429  0.00  0.00    +0.000 A 
ATOM     22  C   UNL     1       1.310   8.809  19.166  0.00  0.00    +0.000 A 
ATOM     23  C   UNL     1       2.208   8.205  18.275  0.00  0.00    +0.000 A 
BRANCH  18  29
ATOM     24  C   UNL     1       2.544   4.072  17.630  0.00  0.00    +0.000 C 
ATOM     25  C   UNL     1       3.667   4.997  17.352  0.00  0.00    +0.000 A 
ATOM     26  C   UNL     1       4.810   4.788  16.611  0.00  0.00    +0.000 A 
ATOM     27  C   UNL     1       5.393   6.055  16.474  0.00  0.00    +0.000 A 
ATOM     28  N   UNL     1       4.683   7.003  17.073  0.00  0.00    +0.000 NA
ATOM     29  N   UNL     1       3.693   6.338  17.719  0.00  0.00    +0.000 N 
ENDBRANCH  18  29
ENDBRANCH   1  21
TORSDOF 3
ENDMDL
MODEL 5
REMARK VINA RESULT:      -7.6      4.583      7.596
REMARK  Name = 
REMARK  4 active torsions:
REMARK  status: ('A' for Active; 'I' for Inactive)
REMARK    1  A    between atoms: C_1  and  C_2
REMARK    2  A    between atoms: N_6  and  C_7
REMARK    3  A    between atoms: C_10  and  C_11
REMARK    4  A    between atoms: C_17  and  C_18
REMARK                            x       y       z     vdW  Elec       q    Type
REMARK                         _______ _______ _______ _____ _____    ______ ____
ROOT
ATOM      1  C   UNL     1      -0.235  10.673  19.645  0.00  0.00    +0.000 C 
ATOM      2  O   UNL     1      -1.402  10.255  19.682  0.00  0.00    +0.000 OA
ATOM      3  N   UNL     1       0.097  11.976  20.007  0.00  0.00    +0.000 N 
ATOM      4  C   UNL     1      -0.929  12.879  20.510  0.00  0.00    +0.000 C 
ATOM      5  C   UNL     1      -0.984  14.144  19.657  0.00  0.00    +0.000 C 
ATOM      6  C   UNL     1       0.401  14.788  19.491  0.00  0.00    +0.000 C 
ATOM      7  C   UNL     1       1.483  13.760  19.080  0.00  0.00    +0.000 C 
ATOM      8  C   UNL     1       1.435  12.561  20.030  0.00  0.00    +0.000 C 
ENDROOT
BRANCH   7   9
ATOM      9  C   UNL     1       2.847  14.376  19.165  0.00  0.00    +0.000 A 
ATOM     10  N   UNL     1       3.606  14.531  18.105  0.00  0.00    +0.000 NA
ATOM     11  C   UNL     1       4.907  14.695  18.509  0.00  0.00    +0.000 A 
ATOM     12  C   UNL     1       6.024  14.588  17.666  0.00  0.00    +0.000 A 
ATOM     13  C   UNL     1       7.260  14.350  18.259  0.00  0.00    +0.000 A 
ATOM     14  C   UNL     1       7.433  14.530  19.629  0.00  0.00    +0.000 A 
ATOM     15  C   UNL     1       6.370  14.925  20.448  0.00  0.00    +0.000 A 
ATOM     16  C   UNL     1       5.091  14.864  19.882  0.00  0.00    +0.000 A 
ATOM     17  S   UNL     1       3.544  14.883  20.645  0.00  0.00    +0.000 S 
ENDBRANCH   7   9
BRANCH   1  21
ATOM     18  C   UNL     1       2.648   7.777  18.391  0.00  0.00    +0.000 A 
ATOM     19  C   UNL     1       2.188   7.752  19.715  0.00  0.00    +0.000 A 
ATOM     20  C   UNL     1       1.333   8.755  20.175  0.00  0.00    +0.000 A 
ATOM     21  C   UNL     1       0.820   9.701  19.280  0.00  0.00    +0.000 A 
ATOM     22  C   UNL     1       1.295   9.737  17.965  0.00  0.00    +0.000 A 
ATOM     23  C   UNL     1       2.222   8.783  17.524  0.00  0.00    +0.000 A 
BRANCH  18  29
ATOM     24  C   UNL     1       1.892   4.778  17.867  0.00  0.00    +0.000 C 
ATOM     25  C   UNL     1       3.246   5.379  17.827  0.00  0.00    +0.000 A 
ATOM     26  C   UNL     1       4.460   4.783  17.564  0.00  0.00    +0.000 A 
ATOM     27  C   UNL     1       5.363   5.845  17.413  0.00  0.00    +0.000 A 
ATOM     28  N   UNL     1       4.778   7.027  17.562  0.00  0.00    +0.000 NA
ATOM     29  N   UNL     1       3.507   6.740  17.942  0.00  0.00    +0.000 N 
ENDBRANCH  18  29
ENDBRANCH   1  21
TORSDOF 3
ENDMDL
MODEL 6
REMARK VINA RESULT:      -7.6      4.716      7.557
REMARK  Name = 
REMARK  4 active torsions:
REMARK  status: ('A' for Active; 'I' for Inactive)
REMARK    1  A    between atoms: C_1  and  C_2
REMARK    2  A    between atoms: N_6  and  C_7
REMARK    3  A    between atoms: C_10  and  C_11
REMARK    4  A    between atoms: C_17  and  C_18
REMARK                            x       y       z     vdW  Elec       q    Type
REMARK                         _______ _______ _______ _____ _____    ______ ____
ROOT
ATOM      1  C   UNL     1      -0.185  10.577  19.436  0.00  0.00    +0.000 C 
ATOM      2  O   UNL     1      -1.373  10.230  19.356  0.00  0.00    +0.000 OA
ATOM      3  N   UNL     1       0.187  11.860  19.826  0.00  0.00    +0.000 N 
ATOM      4  C   UNL     1      -0.827  12.829  20.221  0.00  0.00    +0.000 C 
ATOM      5  C   UNL     1      -0.720  14.087  19.363  0.00  0.00    +0.000 C 
ATOM      6  C   UNL     1       0.711  14.645  19.336  0.00  0.00    +0.000 C 
ATOM      7  C   UNL     1       1.765  13.551  19.039  0.00  0.00    +0.000 C 
ATOM      8  C   UNL     1       1.549  12.365  19.982  0.00  0.00    +0.000 C 
ENDROOT
BRANCH   7   9
ATOM      9  C   UNL     1       3.148  14.084  19.259  0.00  0.00    +0.000 A 
ATOM     10  N   UNL     1       3.719  14.065  20.441  0.00  0.00    +0.000 NA
ATOM     11  C   UNL     1       4.748  14.973  20.454  0.00  0.00    +0.000 A 
ATOM     12  C   UNL     1       5.384  15.444  21.613  0.00  0.00    +0.000 A 
ATOM     13  C   UNL     1       6.086  16.642  21.523  0.00  0.00    +0.000 A 
ATOM     14  C   UNL     1       6.412  17.179  20.279  0.00  0.00    +0.000 A 
ATOM     15  C   UNL     1       6.021  16.549  19.093  0.00  0.00    +0.000 A 
ATOM     16  C   UNL     1       5.074  15.526  19.213  0.00  0.00    +0.000 A 
ATOM     17  S   UNL     1       4.076  14.797  18.009  0.00  0.00    +0.000 S 
ENDBRANCH   7   9
BRANCH   1  21
ATOM     18  C   UNL     1       2.617   7.488  18.501  0.00  0.00    +0.000 A 
ATOM     19  C   UNL     1       2.105   7.573  19.804  0.00  0.00    +0.000 A 
ATOM     20  C   UNL     1       1.276   8.638  20.159  0.00  0.00    +0.000 A 
ATOM     21  C   UNL     1       0.840   9.541  19.181  0.00  0.00    +0.000 A 
ATOM     22  C   UNL     1       1.367   9.466  17.888  0.00  0.00    +0.000 A 
ATOM     23  C   UNL     1       2.269   8.448  17.551  0.00  0.00    +0.000 A 
BRANCH  18  29
ATOM     24  C   UNL     1       1.713   4.555  17.850  0.00  0.00    +0.000 C 
ATOM     25  C   UNL     1       3.102   5.051  17.997  0.00  0.00    +0.000 A 
ATOM     26  C   UNL     1       4.292   4.365  17.890  0.00  0.00    +0.000 A 
ATOM     27  C   UNL     1       5.284   5.354  17.871  0.00  0.00    +0.000 A 
ATOM     28  N   UNL     1       4.775   6.578  17.954  0.00  0.00    +0.000 NA
ATOM     29  N   UNL     1       3.447   6.388  18.159  0.00  0.00    +0.000 N 
ENDBRANCH  18  29
ENDBRANCH   1  21
TORSDOF 3
ENDMDL
MODEL 7
REMARK VINA RESULT:      -7.6      7.449     11.478
REMARK  Name = 
REMARK  4 active torsions:
REMARK  status: ('A' for Active; 'I' for Inactive)
REMARK    1  A    between atoms: C_1  and  C_2
REMARK    2  A    between atoms: N_6  and  C_7
REMARK    3  A    between atoms: C_10  and  C_11
REMARK    4  A    between atoms: C_17  and  C_18
REMARK                            x       y       z     vdW  Elec       q    Type
REMARK                         _______ _______ _______ _____ _____    ______ ____
ROOT
ATOM      1  C   UNL     1       4.088  16.599  19.780  0.00  0.00    +0.000 C 
ATOM      2  O   UNL     1       3.507  17.690  19.875  0.00  0.00    +0.000 OA
ATOM      3  N   UNL     1       5.444  16.454  20.060  0.00  0.00    +0.000 N 
ATOM      4  C   UNL     1       6.217  17.591  20.544  0.00  0.00    +0.000 C 
ATOM      5  C   UNL     1       7.407  17.851  19.624  0.00  0.00    +0.000 C 
ATOM      6  C   UNL     1       8.236  16.580  19.382  0.00  0.00    +0.000 C 
ATOM      7  C   UNL     1       7.355  15.367  18.995  0.00  0.00    +0.000 C 
ATOM      8  C   UNL     1       6.219  15.217  20.011  0.00  0.00    +0.000 C 
ENDROOT
BRANCH   7   9
ATOM      9  C   UNL     1       8.166  14.108  19.005  0.00  0.00    +0.000 A 
ATOM     10  N   UNL     1       8.813  13.706  20.075  0.00  0.00    +0.000 NA
ATOM     11  C   UNL     1       9.786  12.815  19.700  0.00  0.00    +0.000 A 
ATOM     12  C   UNL     1      10.855  12.410  20.514  0.00  0.00    +0.000 A 
ATOM     13  C   UNL     1      11.971  11.862  19.889  0.00  0.00    +0.000 A 
ATOM     14  C   UNL     1      11.903  11.440  18.563  0.00  0.00    +0.000 A 
ATOM     15  C   UNL     1      10.728  11.580  17.817  0.00  0.00    +0.000 A 
ATOM     16  C   UNL     1       9.733  12.395  18.369  0.00  0.00    +0.000 A 
ATOM     17  S   UNL     1       8.355  13.116  17.621  0.00  0.00    +0.000 S 
ENDBRANCH   7   9
BRANCH   1  21
ATOM     18  C   UNL     1       1.862  13.046  18.951  0.00  0.00    +0.000 A 
ATOM     19  C   UNL     1       2.427  13.761  17.886  0.00  0.00    +0.000 A 
ATOM     20  C   UNL     1       3.061  14.981  18.124  0.00  0.00    +0.000 A 
ATOM     21  C   UNL     1       3.261  15.420  19.438  0.00  0.00    +0.000 A 
ATOM     22  C   UNL     1       2.681  14.716  20.498  0.00  0.00    +0.000 A 
ATOM     23  C   UNL     1       1.966  13.536  20.254  0.00  0.00    +0.000 A 
BRANCH  18  29
ATOM     24  C   UNL     1      -1.218  12.466  18.806  0.00  0.00    +0.000 C 
ATOM     25  C   UNL     1      -0.118  11.475  18.747  0.00  0.00    +0.000 A 
ATOM     26  C   UNL     1      -0.181  10.104  18.623  0.00  0.00    +0.000 A 
ATOM     27  C   UNL     1       1.137   9.699  18.371  0.00  0.00    +0.000 A 
ATOM     28  N   UNL     1       1.979  10.725  18.331  0.00  0.00    +0.000 NA
ATOM     29  N   UNL     1       1.232  11.800  18.688  0.00  0.00    +0.000 N 
ENDBRANCH  18  29
ENDBRANCH   1  21
TORSDOF 3
ENDMDL
MODEL 8
REMARK VINA RESULT:      -7.6      4.457      5.546
REMARK  Name = 
REMARK  4 active torsions:
REMARK  status: ('A' for Active; 'I' for Inactive)
REMARK    1  A    between atoms: C_1  and  C_2
REMARK    2  A    between atoms: N_6  and  C_7
REMARK    3  A    between atoms: C_10  and  C_11
REMARK    4  A    between atoms: C_17  and  C_18
REMARK                            x       y       z     vdW  Elec       q    Type
REMARK                         _______ _______ _______ _____ _____    ______ ____
ROOT
ATOM      1  C   UNL     1       6.964   5.526  17.621  0.00  0.00    +0.000 C 
ATOM      2  O   UNL     1       7.721   4.753  17.016  0.00  0.00    +0.000 OA
ATOM      3  N   UNL     1       5.681   5.152  18.011  0.00  0.00    +0.000 N 
ATOM      4  C   UNL     1       5.209   3.795  17.770  0.00  0.00    +0.000 C 
ATOM      5  C   UNL     1       3.923   3.820  16.948  0.00  0.00    +0.000 C 
ATOM      6  C   UNL     1       2.869   4.758  17.555  0.00  0.00    +0.000 C 
ATOM      7  C   UNL     1       3.452   6.147  17.912  0.00  0.00    +0.000 C 
ATOM      8  C   UNL     1       4.720   5.967  18.750  0.00  0.00    +0.000 C 
ENDROOT
BRANCH   7   9
ATOM      9  C   UNL     1       2.464   6.938  18.715  0.00  0.00    +0.000 A 
ATOM     10  N   UNL     1       1.909   8.033  18.249  0.00  0.00    +0.000 NA
ATOM     11  C   UNL     1       1.415   8.764  19.300  0.00  0.00    +0.000 A 
ATOM     12  C   UNL     1       1.030  10.111  19.225  0.00  0.00    +0.000 A 
ATOM     13  C   UNL     1       0.962  10.831  20.414  0.00  0.00    +0.000 A 
ATOM     14  C   UNL     1       0.962  10.171  21.641  0.00  0.00    +0.000 A 
ATOM     15  C   UNL     1       1.058   8.777  21.714  0.00  0.00    +0.000 A 
ATOM     16  C   UNL     1       1.422   8.115  20.537  0.00  0.00    +0.000 A 
ATOM     17  S   UNL     1       2.012   6.509  20.310  0.00  0.00    +0.000 S 
ENDBRANCH   7   9
BRANCH   1  21
ATOM     18  C   UNL     1       8.644   9.367  18.454  0.00  0.00    +0.000 A 
ATOM     19  C   UNL     1       8.989   8.280  19.270  0.00  0.00    +0.000 A 
ATOM     20  C   UNL     1       8.367   7.044  19.085  0.00  0.00    +0.000 A 
ATOM     21  C   UNL     1       7.509   6.849  17.996  0.00  0.00    +0.000 A 
ATOM     22  C   UNL     1       7.151   7.939  17.195  0.00  0.00    +0.000 A 
ATOM     23  C   UNL     1       7.707   9.203  17.434  0.00  0.00    +0.000 A 
BRANCH  18  29
ATOM     24  C   UNL     1       9.020  10.906  21.162  0.00  0.00    +0.000 C 
ATOM     25  C   UNL     1       9.369  11.386  19.804  0.00  0.00    +0.000 A 
ATOM     26  C   UNL     1       9.921  12.588  19.417  0.00  0.00    +0.000 A 
ATOM     27  C   UNL     1      10.265  12.414  18.069  0.00  0.00    +0.000 A 
ATOM     28  N   UNL     1       9.964  11.199  17.626  0.00  0.00    +0.000 NA
ATOM     29  N   UNL     1       9.299  10.611  18.652  0.00  0.00    +0.000 N 
ENDBRANCH  18  29
ENDBRANCH   1  21
TORSDOF 3
ENDMDL
MODEL 9
REMARK VINA RESULT:      -7.6      4.656      7.637
REMARK  Name = 
REMARK  4 active torsions:
REMARK  status: ('A' for Active; 'I' for Inactive)
REMARK    1  A    between atoms: C_1  and  C_2
REMARK    2  A    between atoms: N_6  and  C_7
REMARK    3  A    between atoms: C_10  and  C_11
REMARK    4  A    between atoms: C_17  and  C_18
REMARK                            x       y       z     vdW  Elec       q    Type
REMARK                         _______ _______ _______ _____ _____    ______ ____
ROOT
ATOM      1  C   UNL     1      -0.216  10.608  19.174  0.00  0.00    +0.000 C 
ATOM      2  O   UNL     1      -1.349  10.340  18.746  0.00  0.00    +0.000 OA
ATOM      3  N   UNL     1       0.091  11.846  19.732  0.00  0.00    +0.000 N 
ATOM      4  C   UNL     1      -0.947  12.856  19.889  0.00  0.00    +0.000 C 
ATOM      5  C   UNL     1      -0.545  14.144  19.175  0.00  0.00    +0.000 C 
ATOM      6  C   UNL     1       0.861  14.613  19.581  0.00  0.00    +0.000 C 
ATOM      7  C   UNL     1       1.903  13.470  19.521  0.00  0.00    +0.000 C 
ATOM      8  C   UNL     1       1.376  12.258  20.291  0.00  0.00    +0.000 C 
ENDROOT
BRANCH   7   9
ATOM      9  C   UNL     1       3.192  13.906  20.149  0.00  0.00    +0.000 A 
ATOM     10  N   UNL     1       3.472  13.651  21.406  0.00  0.00    +0.000 NA
ATOM     11  C   UNL     1       4.462  14.505  21.824  0.00  0.00    +0.000 A 
ATOM     12  C   UNL     1       4.806  14.733  23.165  0.00  0.00    +0.000 A 
ATOM     13  C   UNL     1       5.499  15.902  23.464  0.00  0.00    +0.000 A 
ATOM     14  C   UNL     1       6.101  16.646  22.452  0.00  0.00    +0.000 A 
ATOM     15  C   UNL     1       6.003  16.258  21.111  0.00  0.00    +0.000 A 
ATOM     16  C   UNL     1       5.063  15.263  20.817  0.00  0.00    +0.000 A 
ATOM     17  S   UNL     1       4.380  14.803  19.301  0.00  0.00    +0.000 S 
ENDBRANCH   7   9
BRANCH   1  21
ATOM     18  C   UNL     1       2.547   7.359  18.903  0.00  0.00    +0.000 A 
ATOM     19  C   UNL     1       1.912   7.614  20.127  0.00  0.00    +0.000 A 
ATOM     20  C   UNL     1       1.094   8.736  20.267  0.00  0.00    +0.000 A 
ATOM     21  C   UNL     1       0.790   9.523  19.150  0.00  0.00    +0.000 A 
ATOM     22  C   UNL     1       1.439   9.279  17.935  0.00  0.00    +0.000 A 
ATOM     23  C   UNL     1       2.331   8.205  17.815  0.00  0.00    +0.000 A 
BRANCH  18  29
ATOM     24  C   UNL     1       1.702   4.536  17.825  0.00  0.00    +0.000 C 
ATOM     25  C   UNL     1       3.000   4.908  18.437  0.00  0.00    +0.000 A 
ATOM     26  C   UNL     1       4.110   4.128  18.677  0.00  0.00    +0.000 A 
ATOM     27  C   UNL     1       5.121   5.031  19.034  0.00  0.00    +0.000 A 
ATOM     28  N   UNL     1       4.698   6.289  19.022  0.00  0.00    +0.000 NA
ATOM     29  N   UNL     1       3.366   6.205  18.780  0.00  0.00    +0.000 N 
ENDBRANCH  18  29
ENDBRANCH   1  21
TORSDOF 3
ENDMDL
