MODEL 1
REMARK VINA RESULT:      -8.6      0.000      0.000
REMARK  Name = 
REMARK  7 active torsions:
REMARK  status: ('A' for Active; 'I' for Inactive)
REMARK    1  A    between atoms: C_1  and  C_2
REMARK    2  A    between atoms: C_5  and  S_6
REMARK    3  A    between atoms: S_6  and  N_9
REMARK    4  A    between atoms: N_9  and  C_10
REMARK    5  A    between atoms: C_14  and  C_15
REMARK    6  A    between atoms: N_17  and  C_18
REMARK    7  A    between atoms: N_17  and  C_19
REMARK                            x       y       z     vdW  Elec       q    Type
REMARK                         _______ _______ _______ _____ _____    ______ ____
ROOT
ATOM      1  C   UNL     1       4.495   4.977  18.857  0.00  0.00    +0.000 A 
ATOM      2  C   UNL     1       3.581   3.926  18.819  0.00  0.00    +0.000 A 
ATOM      3  C   UNL     1       2.271   4.166  18.419  0.00  0.00    +0.000 A 
ATOM      4  C   UNL     1       1.861   5.461  18.098  0.00  0.00    +0.000 A 
ATOM      5  C   UNL     1       2.693   6.554  18.357  0.00  0.00    +0.000 A 
ATOM      6  C   UNL     1       4.054   6.292  18.643  0.00  0.00    +0.000 A 
ENDROOT
BRANCH   5   7
ATOM      7  C   UNL     1       2.188   7.981  18.364  0.00  0.00    +0.000 C 
ATOM      8  O   UNL     1       2.424   8.646  17.353  0.00  0.00    +0.000 OA
ATOM      9  N   UNL     1       1.527   8.550  19.488  0.00  0.00    +0.000 N 
ATOM     10  C   UNL     1       1.235   7.850  20.737  0.00  0.00    +0.000 C 
BRANCH   9  11
ATOM     11  C   UNL     1       1.143  10.002  19.440  0.00  0.00    +0.000 C 
ATOM     12  C   UNL     1       0.963  10.575  20.864  0.00  0.00    +0.000 C 
ATOM     13  C   UNL     1       0.476  12.029  20.865  0.00  0.00    +0.000 C 
ATOM     14  C   UNL     1      -0.812  12.194  20.068  0.00  0.00    +0.000 C 
ATOM     15  C   UNL     1      -0.613  11.724  18.633  0.00  0.00    +0.000 C 
ATOM     16  C   UNL     1      -0.129  10.273  18.592  0.00  0.00    +0.000 C 
ENDBRANCH   9  11
ENDBRANCH   5   7
BRANCH   1  17
ATOM     17  N   UNL     1       5.858   4.666  19.102  0.00  0.00    +0.000 N 
ATOM     18  H   UNL     1       6.131   4.157  19.945  0.00  0.00    +0.000 HD
BRANCH  17  19
ATOM     19  S   UNL     1       7.090   5.270  18.139  0.00  0.00    +0.000 S 
ATOM     20  O   UNL     1       8.336   4.669  18.574  0.00  0.00    +0.000 OA
ATOM     21  O   UNL     1       6.931   6.702  18.084  0.00  0.00    +0.000 OA
BRANCH  19  26
ATOM     22  C   UNL     1       5.757   3.570  12.454  0.00  0.00    +0.000 C 
ATOM     23  C   UNL     1       6.088   3.922  13.869  0.00  0.00    +0.000 A 
ATOM     24  C   UNL     1       5.382   3.378  14.955  0.00  0.00    +0.000 A 
ATOM     25  C   UNL     1       5.698   3.735  16.268  0.00  0.00    +0.000 A 
ATOM     26  C   UNL     1       6.742   4.644  16.503  0.00  0.00    +0.000 A 
ATOM     27  C   UNL     1       7.442   5.198  15.433  0.00  0.00    +0.000 A 
ATOM     28  C   UNL     1       7.119   4.835  14.134  0.00  0.00    +0.000 A 
ATOM     29  F   UNL     1       7.798   5.384  13.121  0.00  0.00    +0.000 F 
ENDBRANCH  19  26
ENDBRANCH  17  19
ENDBRANCH   1  17
TORSDOF 5
ENDMDL
MODEL 2
REMARK VINA RESULT:      -8.3      2.819      4.069
REMARK  Name = 
REMARK  7 active torsions:
REMARK  status: ('A' for Active; 'I' for Inactive)
REMARK    1  A    between atoms: C_1  and  C_2
REMARK    2  A    between atoms: C_5  and  S_6
REMARK    3  A    between atoms: S_6  and  N_9
REMARK    4  A    between atoms: N_9  and  C_10
REMARK    5  A    between atoms: C_14  and  C_15
REMARK    6  A    between atoms: N_17  and  C_18
REMARK    7  A    between atoms: N_17  and  C_19
REMARK                            x       y       z     vdW  Elec       q    Type
REMARK                         _______ _______ _______ _____ _____    ______ ____
ROOT
ATOM      1  C   UNL     1       2.223   7.107  19.797  0.00  0.00    +0.000 A 
ATOM      2  C   UNL     1       2.352   7.134  18.411  0.00  0.00    +0.000 A 
ATOM      3  C   UNL     1       2.130   8.320  17.720  0.00  0.00    +0.000 A 
ATOM      4  C   UNL     1       1.738   9.470  18.408  0.00  0.00    +0.000 A 
ATOM      5  C   UNL     1       1.376   9.402  19.757  0.00  0.00    +0.000 A 
ATOM      6  C   UNL     1       1.721   8.231  20.472  0.00  0.00    +0.000 A 
ENDROOT
BRANCH   5   7
ATOM      7  C   UNL     1       0.620  10.511  20.457  0.00  0.00    +0.000 C 
ATOM      8  O   UNL     1       1.185  11.028  21.423  0.00  0.00    +0.000 OA
ATOM      9  N   UNL     1      -0.691  10.904  20.067  0.00  0.00    +0.000 N 
ATOM     10  C   UNL     1      -1.449  10.325  18.960  0.00  0.00    +0.000 C 
BRANCH   9  11
ATOM     11  C   UNL     1      -1.401  11.951  20.877  0.00  0.00    +0.000 C 
ATOM     12  C   UNL     1      -1.688  11.444  22.308  0.00  0.00    +0.000 C 
ATOM     13  C   UNL     1      -2.498  12.443  23.143  0.00  0.00    +0.000 C 
ATOM     14  C   UNL     1      -3.801  12.830  22.454  0.00  0.00    +0.000 C 
ATOM     15  C   UNL     1      -3.518  13.426  21.081  0.00  0.00    +0.000 C 
ATOM     16  C   UNL     1      -2.713  12.454  20.217  0.00  0.00    +0.000 C 
ENDBRANCH   9  11
ENDBRANCH   5   7
BRANCH   1  17
ATOM     17  N   UNL     1       2.623   5.929  20.481  0.00  0.00    +0.000 N 
ATOM     18  H   UNL     1       3.109   5.989  21.378  0.00  0.00    +0.000 HD
BRANCH  17  19
ATOM     19  S   UNL     1       2.490   4.412  19.780  0.00  0.00    +0.000 S 
ATOM     20  O   UNL     1       1.265   4.382  19.005  0.00  0.00    +0.000 OA
ATOM     21  O   UNL     1       2.745   3.438  20.812  0.00  0.00    +0.000 OA
BRANCH  19  26
ATOM     22  C   UNL     1       7.154   4.565  15.881  0.00  0.00    +0.000 C 
ATOM     23  C   UNL     1       5.995   4.463  16.820  0.00  0.00    +0.000 A 
ATOM     24  C   UNL     1       4.725   4.042  16.389  0.00  0.00    +0.000 A 
ATOM     25  C   UNL     1       3.651   3.972  17.280  0.00  0.00    +0.000 A 
ATOM     26  C   UNL     1       3.850   4.319  18.627  0.00  0.00    +0.000 A 
ATOM     27  C   UNL     1       5.102   4.747  19.062  0.00  0.00    +0.000 A 
ATOM     28  C   UNL     1       6.159   4.813  18.168  0.00  0.00    +0.000 A 
ATOM     29  F   UNL     1       7.351   5.234  18.604  0.00  0.00    +0.000 F 
ENDBRANCH  19  26
ENDBRANCH  17  19
ENDBRANCH   1  17
TORSDOF 5
ENDMDL
MODEL 3
REMARK VINA RESULT:      -8.2      1.126      1.399
REMARK  Name = 
REMARK  7 active torsions:
REMARK  status: ('A' for Active; 'I' for Inactive)
REMARK    1  A    between atoms: C_1  and  C_2
REMARK    2  A    between atoms: C_5  and  S_6
REMARK    3  A    between atoms: S_6  and  N_9
REMARK    4  A    between atoms: N_9  and  C_10
REMARK    5  A    between atoms: C_14  and  C_15
REMARK    6  A    between atoms: N_17  and  C_18
REMARK    7  A    between atoms: N_17  and  C_19
REMARK                            x       y       z     vdW  Elec       q    Type
REMARK                         _______ _______ _______ _____ _____    ______ ____
ROOT
ATOM      1  C   UNL     1       4.386   4.349  19.156  0.00  0.00    +0.000 A 
ATOM      2  C   UNL     1       3.487   3.288  19.068  0.00  0.00    +0.000 A 
ATOM      3  C   UNL     1       2.122   3.545  19.008  0.00  0.00    +0.000 A 
ATOM      4  C   UNL     1       1.650   4.857  19.082  0.00  0.00    +0.000 A 
ATOM      5  C   UNL     1       2.516   5.905  19.407  0.00  0.00    +0.000 A 
ATOM      6  C   UNL     1       3.907   5.655  19.342  0.00  0.00    +0.000 A 
ENDROOT
BRANCH   5   7
ATOM      7  C   UNL     1       2.020   7.268  19.842  0.00  0.00    +0.000 C 
ATOM      8  O   UNL     1       1.655   7.365  21.016  0.00  0.00    +0.000 OA
ATOM      9  N   UNL     1       1.924   8.366  18.942  0.00  0.00    +0.000 N 
ATOM     10  C   UNL     1       2.299   8.334  17.531  0.00  0.00    +0.000 C 
BRANCH   9  11
ATOM     11  C   UNL     1       1.334   9.656  19.439  0.00  0.00    +0.000 C 
ATOM     12  C   UNL     1      -0.210   9.588  19.460  0.00  0.00    +0.000 C 
ATOM     13  C   UNL     1      -0.859  10.916  19.868  0.00  0.00    +0.000 C 
ATOM     14  C   UNL     1      -0.398  12.067  18.983  0.00  0.00    +0.000 C 
ATOM     15  C   UNL     1       1.118  12.204  19.037  0.00  0.00    +0.000 C 
ATOM     16  C   UNL     1       1.802  10.897  18.632  0.00  0.00    +0.000 C 
ENDBRANCH   9  11
ENDBRANCH   5   7
BRANCH   1  17
ATOM     17  N   UNL     1       5.771   4.060  19.041  0.00  0.00    +0.000 N 
ATOM     18  H   UNL     1       6.194   3.315  19.598  0.00  0.00    +0.000 HD
BRANCH  17  19
ATOM     19  S   UNL     1       6.804   5.029  18.146  0.00  0.00    +0.000 S 
ATOM     20  O   UNL     1       8.166   4.701  18.523  0.00  0.00    +0.000 OA
ATOM     21  O   UNL     1       6.311   6.381  18.232  0.00  0.00    +0.000 OA
BRANCH  19  26
ATOM     22  C   UNL     1       5.924   3.667  12.285  0.00  0.00    +0.000 C 
ATOM     23  C   UNL     1       6.140   3.935  13.740  0.00  0.00    +0.000 A 
ATOM     24  C   UNL     1       5.317   3.371  14.729  0.00  0.00    +0.000 A 
ATOM     25  C   UNL     1       5.527   3.650  16.082  0.00  0.00    +0.000 A 
ATOM     26  C   UNL     1       6.582   4.499  16.455  0.00  0.00    +0.000 A 
ATOM     27  C   UNL     1       7.398   5.071  15.482  0.00  0.00    +0.000 A 
ATOM     28  C   UNL     1       7.179   4.787  14.142  0.00  0.00    +0.000 A 
ATOM     29  F   UNL     1       7.969   5.352  13.223  0.00  0.00    +0.000 F 
ENDBRANCH  19  26
ENDBRANCH  17  19
ENDBRANCH   1  17
TORSDOF 5
ENDMDL
MODEL 4
REMARK VINA RESULT:      -8.2      5.099     10.512
REMARK  Name = 
REMARK  7 active torsions:
REMARK  status: ('A' for Active; 'I' for Inactive)
REMARK    1  A    between atoms: C_1  and  C_2
REMARK    2  A    between atoms: C_5  and  S_6
REMARK    3  A    between atoms: S_6  and  N_9
REMARK    4  A    between atoms: N_9  and  C_10
REMARK    5  A    between atoms: C_14  and  C_15
REMARK    6  A    between atoms: N_17  and  C_18
REMARK    7  A    between atoms: N_17  and  C_19
REMARK                            x       y       z     vdW  Elec       q    Type
REMARK                         _______ _______ _______ _____ _____    ______ ____
ROOT
ATOM      1  C   UNL     1      -0.654  10.780  18.551  0.00  0.00    +0.000 A 
ATOM      2  C   UNL     1      -0.844  10.917  19.924  0.00  0.00    +0.000 A 
ATOM      3  C   UNL     1       0.071  10.354  20.806  0.00  0.00    +0.000 A 
ATOM      4  C   UNL     1       1.152   9.616  20.320  0.00  0.00    +0.000 A 
ATOM      5  C   UNL     1       1.225   9.270  18.968  0.00  0.00    +0.000 A 
ATOM      6  C   UNL     1       0.367   9.946  18.068  0.00  0.00    +0.000 A 
ENDROOT
BRANCH   5   7
ATOM      7  C   UNL     1       2.160   8.199  18.448  0.00  0.00    +0.000 C 
ATOM      8  O   UNL     1       2.691   8.424  17.358  0.00  0.00    +0.000 OA
ATOM      9  N   UNL     1       2.377   6.976  19.141  0.00  0.00    +0.000 N 
ATOM     10  C   UNL     1       1.766   6.611  20.417  0.00  0.00    +0.000 C 
BRANCH   9  11
ATOM     11  C   UNL     1       3.251   5.931  18.504  0.00  0.00    +0.000 C 
ATOM     12  C   UNL     1       2.399   4.809  17.869  0.00  0.00    +0.000 C 
ATOM     13  C   UNL     1       3.249   3.671  17.291  0.00  0.00    +0.000 C 
ATOM     14  C   UNL     1       4.193   3.086  18.334  0.00  0.00    +0.000 C 
ATOM     15  C   UNL     1       5.106   4.169  18.892  0.00  0.00    +0.000 C 
ATOM     16  C   UNL     1       4.292   5.322  19.481  0.00  0.00    +0.000 C 
ENDBRANCH   9  11
ENDBRANCH   5   7
BRANCH   1  17
ATOM     17  N   UNL     1      -1.508  11.510  17.684  0.00  0.00    +0.000 N 
ATOM     18  H   UNL     1      -1.372  12.513  17.545  0.00  0.00    +0.000 HD
BRANCH  17  19
ATOM     19  S   UNL     1      -2.874  10.819  17.001  0.00  0.00    +0.000 S 
ATOM     20  O   UNL     1      -2.937   9.434  17.426  0.00  0.00    +0.000 OA
ATOM     21  O   UNL     1      -2.882  11.171  15.603  0.00  0.00    +0.000 OA
BRANCH  19  26
ATOM     22  C   UNL     1      -7.442  14.090  19.330  0.00  0.00    +0.000 C 
ATOM     23  C   UNL     1      -6.327  13.241  18.808  0.00  0.00    +0.000 A 
ATOM     24  C   UNL     1      -5.265  12.823  19.628  0.00  0.00    +0.000 A 
ATOM     25  C   UNL     1      -4.225  12.044  19.115  0.00  0.00    +0.000 A 
ATOM     26  C   UNL     1      -4.248  11.669  17.761  0.00  0.00    +0.000 A 
ATOM     27  C   UNL     1      -5.291  12.086  16.937  0.00  0.00    +0.000 A 
ATOM     28  C   UNL     1      -6.317  12.859  17.459  0.00  0.00    +0.000 A 
ATOM     29  F   UNL     1      -7.305  13.256  16.649  0.00  0.00    +0.000 F 
ENDBRANCH  19  26
ENDBRANCH  17  19
ENDBRANCH   1  17
TORSDOF 5
ENDMDL
MODEL 5
REMARK VINA RESULT:      -8.1      2.787      4.096
REMARK  Name = 
REMARK  7 active torsions:
REMARK  status: ('A' for Active; 'I' for Inactive)
REMARK    1  A    between atoms: C_1  and  C_2
REMARK    2  A    between atoms: C_5  and  S_6
REMARK    3  A    between atoms: S_6  and  N_9
REMARK    4  A    between atoms: N_9  and  C_10
REMARK    5  A    between atoms: C_14  and  C_15
REMARK    6  A    between atoms: N_17  and  C_18
REMARK    7  A    between atoms: N_17  and  C_19
REMARK                            x       y       z     vdW  Elec       q    Type
REMARK                         _______ _______ _______ _____ _____    ______ ____
ROOT
ATOM      1  C   UNL     1       2.370   7.027  19.826  0.00  0.00    +0.000 A 
ATOM      2  C   UNL     1       2.535   7.338  18.479  0.00  0.00    +0.000 A 
ATOM      3  C   UNL     1       2.060   8.548  17.986  0.00  0.00    +0.000 A 
ATOM      4  C   UNL     1       1.380   9.430  18.829  0.00  0.00    +0.000 A 
ATOM      5  C   UNL     1       1.000   9.034  20.114  0.00  0.00    +0.000 A 
ATOM      6  C   UNL     1       1.591   7.862  20.643  0.00  0.00    +0.000 A 
ENDROOT
BRANCH   5   7
ATOM      7  C   UNL     1      -0.023   9.792  20.933  0.00  0.00    +0.000 C 
ATOM      8  O   UNL     1      -0.604   9.147  21.809  0.00  0.00    +0.000 OA
ATOM      9  N   UNL     1      -0.344  11.154  20.679  0.00  0.00    +0.000 N 
ATOM     10  C   UNL     1       0.266  11.985  19.644  0.00  0.00    +0.000 C 
BRANCH   9  11
ATOM     11  C   UNL     1      -1.438  11.799  21.483  0.00  0.00    +0.000 C 
ATOM     12  C   UNL     1      -2.367  12.641  20.579  0.00  0.00    +0.000 C 
ATOM     13  C   UNL     1      -3.442  13.397  21.369  0.00  0.00    +0.000 C 
ATOM     14  C   UNL     1      -2.833  14.274  22.456  0.00  0.00    +0.000 C 
ATOM     15  C   UNL     1      -1.996  13.433  23.411  0.00  0.00    +0.000 C 
ATOM     16  C   UNL     1      -0.909  12.666  22.657  0.00  0.00    +0.000 C 
ENDBRANCH   9  11
ENDBRANCH   5   7
BRANCH   1  17
ATOM     17  N   UNL     1       3.016   5.867  20.327  0.00  0.00    +0.000 N 
ATOM     18  H   UNL     1       3.708   5.940  21.075  0.00  0.00    +0.000 HD
BRANCH  17  19
ATOM     19  S   UNL     1       2.822   4.367  19.605  0.00  0.00    +0.000 S 
ATOM     20  O   UNL     1       1.542   4.358  18.924  0.00  0.00    +0.000 OA
ATOM     21  O   UNL     1       3.149   3.368  20.593  0.00  0.00    +0.000 OA
BRANCH  19  26
ATOM     22  C   UNL     1       7.203   4.583  15.393  0.00  0.00    +0.000 C 
ATOM     23  C   UNL     1       6.108   4.468  16.404  0.00  0.00    +0.000 A 
ATOM     24  C   UNL     1       4.790   4.147  16.039  0.00  0.00    +0.000 A 
ATOM     25  C   UNL     1       3.779   4.063  17.000  0.00  0.00    +0.000 A 
ATOM     26  C   UNL     1       4.090   4.294  18.350  0.00  0.00    +0.000 A 
ATOM     27  C   UNL     1       5.392   4.623  18.722  0.00  0.00    +0.000 A 
ATOM     28  C   UNL     1       6.386   4.704  17.759  0.00  0.00    +0.000 A 
ATOM     29  F   UNL     1       7.628   5.028  18.135  0.00  0.00    +0.000 F 
ENDBRANCH  19  26
ENDBRANCH  17  19
ENDBRANCH   1  17
TORSDOF 5
ENDMDL
MODEL 6
REMARK VINA RESULT:      -8.1      2.733      3.975
REMARK  Name = 
REMARK  7 active torsions:
REMARK  status: ('A' for Active; 'I' for Inactive)
REMARK    1  A    between atoms: C_1  and  C_2
REMARK    2  A    between atoms: C_5  and  S_6
REMARK    3  A    between atoms: S_6  and  N_9
REMARK    4  A    between atoms: N_9  and  C_10
REMARK    5  A    between atoms: C_14  and  C_15
REMARK    6  A    between atoms: N_17  and  C_18
REMARK    7  A    between atoms: N_17  and  C_19
REMARK                            x       y       z     vdW  Elec       q    Type
REMARK                         _______ _______ _______ _____ _____    ______ ____
ROOT
ATOM      1  C   UNL     1       2.338   7.199  19.705  0.00  0.00    +0.000 A 
ATOM      2  C   UNL     1       2.613   7.379  18.352  0.00  0.00    +0.000 A 
ATOM      3  C   UNL     1       2.244   8.564  17.725  0.00  0.00    +0.000 A 
ATOM      4  C   UNL     1       1.561   9.552  18.437  0.00  0.00    +0.000 A 
ATOM      5  C   UNL     1       1.072   9.292  19.720  0.00  0.00    +0.000 A 
ATOM      6  C   UNL     1       1.555   8.142  20.389  0.00  0.00    +0.000 A 
ENDROOT
BRANCH   5   7
ATOM      7  C   UNL     1       0.041  10.172  20.395  0.00  0.00    +0.000 C 
ATOM      8  O   UNL     1      -1.065   9.663  20.588  0.00  0.00    +0.000 OA
ATOM      9  N   UNL     1       0.305  11.526  20.740  0.00  0.00    +0.000 N 
ATOM     10  C   UNL     1       1.572  12.220  20.519  0.00  0.00    +0.000 C 
BRANCH   9  11
ATOM     11  C   UNL     1      -0.807  12.352  21.323  0.00  0.00    +0.000 C 
ATOM     12  C   UNL     1      -1.266  11.781  22.684  0.00  0.00    +0.000 C 
ATOM     13  C   UNL     1      -2.465  12.535  23.272  0.00  0.00    +0.000 C 
ATOM     14  C   UNL     1      -3.637  12.579  22.300  0.00  0.00    +0.000 C 
ATOM     15  C   UNL     1      -3.217  13.233  20.990  0.00  0.00    +0.000 C 
ATOM     16  C   UNL     1      -2.023  12.505  20.371  0.00  0.00    +0.000 C 
ENDBRANCH   9  11
ENDBRANCH   5   7
BRANCH   1  17
ATOM     17  N   UNL     1       2.880   6.056  20.349  0.00  0.00    +0.000 N 
ATOM     18  H   UNL     1       3.489   6.158  21.162  0.00  0.00    +0.000 HD
BRANCH  17  19
ATOM     19  S   UNL     1       2.707   4.516  19.709  0.00  0.00    +0.000 S 
ATOM     20  O   UNL     1       1.443   4.465  18.999  0.00  0.00    +0.000 OA
ATOM     21  O   UNL     1       3.011   3.576  20.759  0.00  0.00    +0.000 OA
BRANCH  19  26
ATOM     22  C   UNL     1       7.183   4.507  15.593  0.00  0.00    +0.000 C 
ATOM     23  C   UNL     1       6.066   4.446  16.584  0.00  0.00    +0.000 A 
ATOM     24  C   UNL     1       4.760   4.087  16.211  0.00  0.00    +0.000 A 
ATOM     25  C   UNL     1       3.727   4.054  17.152  0.00  0.00    +0.000 A 
ATOM     26  C   UNL     1       4.005   4.376  18.491  0.00  0.00    +0.000 A 
ATOM     27  C   UNL     1       5.294   4.743  18.870  0.00  0.00    +0.000 A 
ATOM     28  C   UNL     1       6.310   4.772  17.927  0.00  0.00    +0.000 A 
ATOM     29  F   UNL     1       7.539   5.135  18.309  0.00  0.00    +0.000 F 
ENDBRANCH  19  26
ENDBRANCH  17  19
ENDBRANCH   1  17
TORSDOF 5
ENDMDL
MODEL 7
REMARK VINA RESULT:      -8.0      5.017     10.343
REMARK  Name = 
REMARK  7 active torsions:
REMARK  status: ('A' for Active; 'I' for Inactive)
REMARK    1  A    between atoms: C_1  and  C_2
REMARK    2  A    between atoms: C_5  and  S_6
REMARK    3  A    between atoms: S_6  and  N_9
REMARK    4  A    between atoms: N_9  and  C_10
REMARK    5  A    between atoms: C_14  and  C_15
REMARK    6  A    between atoms: N_17  and  C_18
REMARK    7  A    between atoms: N_17  and  C_19
REMARK                            x       y       z     vdW  Elec       q    Type
REMARK                         _______ _______ _______ _____ _____    ______ ____
ROOT
ATOM      1  C   UNL     1      -0.653  10.823  18.465  0.00  0.00    +0.000 A 
ATOM      2  C   UNL     1      -0.846  10.980  19.836  0.00  0.00    +0.000 A 
ATOM      3  C   UNL     1       0.064  10.425  20.728  0.00  0.00    +0.000 A 
ATOM      4  C   UNL     1       1.144   9.676  20.255  0.00  0.00    +0.000 A 
ATOM      5  C   UNL     1       1.219   9.312  18.908  0.00  0.00    +0.000 A 
ATOM      6  C   UNL     1       0.366   9.979  17.997  0.00  0.00    +0.000 A 
ENDROOT
BRANCH   5   7
ATOM      7  C   UNL     1       2.151   8.230  18.406  0.00  0.00    +0.000 C 
ATOM      8  O   UNL     1       2.681   8.434  17.311  0.00  0.00    +0.000 OA
ATOM      9  N   UNL     1       2.366   7.018  19.119  0.00  0.00    +0.000 N 
ATOM     10  C   UNL     1       1.756   6.676  20.402  0.00  0.00    +0.000 C 
BRANCH   9  11
ATOM     11  C   UNL     1       3.237   5.961  18.499  0.00  0.00    +0.000 C 
ATOM     12  C   UNL     1       2.381   4.847  17.854  0.00  0.00    +0.000 C 
ATOM     13  C   UNL     1       3.226   3.697  17.294  0.00  0.00    +0.000 C 
ATOM     14  C   UNL     1       4.146   3.103  18.352  0.00  0.00    +0.000 C 
ATOM     15  C   UNL     1       5.063   4.177  18.922  0.00  0.00    +0.000 C 
ATOM     16  C   UNL     1       4.255   5.342  19.495  0.00  0.00    +0.000 C 
ENDBRANCH   9  11
ENDBRANCH   5   7
BRANCH   1  17
ATOM     17  N   UNL     1      -1.501  11.545  17.586  0.00  0.00    +0.000 N 
ATOM     18  H   UNL     1      -1.359  12.545  17.431  0.00  0.00    +0.000 HD
BRANCH  17  19
ATOM     19  S   UNL     1      -2.872  10.852  16.914  0.00  0.00    +0.000 S 
ATOM     20  O   UNL     1      -2.652   9.421  16.821  0.00  0.00    +0.000 OA
ATOM     21  O   UNL     1      -3.222  11.630  15.751  0.00  0.00    +0.000 OA
BRANCH  19  26
ATOM     22  C   UNL     1      -7.542  11.856  20.677  0.00  0.00    +0.000 C 
ATOM     23  C   UNL     1      -6.352  11.611  19.806  0.00  0.00    +0.000 A 
ATOM     24  C   UNL     1      -5.210  12.428  19.861  0.00  0.00    +0.000 A 
ATOM     25  C   UNL     1      -4.117  12.190  19.024  0.00  0.00    +0.000 A 
ATOM     26  C   UNL     1      -4.159  11.113  18.124  0.00  0.00    +0.000 A 
ATOM     27  C   UNL     1      -5.290  10.303  18.054  0.00  0.00    +0.000 A 
ATOM     28  C   UNL     1      -6.369  10.549  18.890  0.00  0.00    +0.000 A 
ATOM     29  F   UNL     1      -7.448   9.764  18.802  0.00  0.00    +0.000 F 
ENDBRANCH  19  26
ENDBRANCH  17  19
ENDBRANCH   1  17
TORSDOF 5
ENDMDL
MODEL 8
REMARK VINA RESULT:      -7.9      1.502      1.821
REMARK  Name = 
REMARK  7 active torsions:
REMARK  status: ('A' for Active; 'I' for Inactive)
REMARK    1  A    between atoms: C_1  and  C_2
REMARK    2  A    between atoms: C_5  and  S_6
REMARK    3  A    between atoms: S_6  and  N_9
REMARK    4  A    between atoms: N_9  and  C_10
REMARK    5  A    between atoms: C_14  and  C_15
REMARK    6  A    between atoms: N_17  and  C_18
REMARK    7  A    between atoms: N_17  and  C_19
REMARK                            x       y       z     vdW  Elec       q    Type
REMARK                         _______ _______ _______ _____ _____    ______ ____
ROOT
ATOM      1  C   UNL     1       3.441   4.915  18.927  0.00  0.00    +0.000 A 
ATOM      2  C   UNL     1       3.196   4.004  19.951  0.00  0.00    +0.000 A 
ATOM      3  C   UNL     1       2.283   4.319  20.951  0.00  0.00    +0.000 A 
ATOM      4  C   UNL     1       1.647   5.562  20.955  0.00  0.00    +0.000 A 
ATOM      5  C   UNL     1       2.054   6.570  20.077  0.00  0.00    +0.000 A 
ATOM      6  C   UNL     1       2.886   6.203  18.993  0.00  0.00    +0.000 A 
ENDROOT
BRANCH   5   7
ATOM      7  C   UNL     1       1.659   8.020  20.259  0.00  0.00    +0.000 C 
ATOM      8  O   UNL     1       1.408   8.374  21.414  0.00  0.00    +0.000 OA
ATOM      9  N   UNL     1       1.527   8.917  19.163  0.00  0.00    +0.000 N 
ATOM     10  C   UNL     1       1.770   8.578  17.763  0.00  0.00    +0.000 C 
BRANCH   9  11
ATOM     11  C   UNL     1       1.041  10.315  19.429  0.00  0.00    +0.000 C 
ATOM     12  C   UNL     1      -0.499  10.393  19.334  0.00  0.00    +0.000 C 
ATOM     13  C   UNL     1      -1.035  11.819  19.502  0.00  0.00    +0.000 C 
ATOM     14  C   UNL     1      -0.399  12.783  18.508  0.00  0.00    +0.000 C 
ATOM     15  C   UNL     1       1.115  12.786  18.665  0.00  0.00    +0.000 C 
ATOM     16  C   UNL     1       1.687  11.377  18.500  0.00  0.00    +0.000 C 
ENDBRANCH   9  11
ENDBRANCH   5   7
BRANCH   1  17
ATOM     17  N   UNL     1       4.244   4.492  17.836  0.00  0.00    +0.000 N 
ATOM     18  H   UNL     1       3.969   3.688  17.270  0.00  0.00    +0.000 HD
BRANCH  17  19
ATOM     19  S   UNL     1       5.754   5.159  17.539  0.00  0.00    +0.000 S 
ATOM     20  O   UNL     1       6.712   4.504  18.410  0.00  0.00    +0.000 OA
ATOM     21  O   UNL     1       5.600   6.592  17.542  0.00  0.00    +0.000 OA
BRANCH  19  26
ATOM     22  C   UNL     1       6.999   3.969  11.707  0.00  0.00    +0.000 C 
ATOM     23  C   UNL     1       6.690   4.194  13.153  0.00  0.00    +0.000 A 
ATOM     24  C   UNL     1       5.594   3.580  13.782  0.00  0.00    +0.000 A 
ATOM     25  C   UNL     1       5.314   3.819  15.130  0.00  0.00    +0.000 A 
ATOM     26  C   UNL     1       6.146   4.679  15.865  0.00  0.00    +0.000 A 
ATOM     27  C   UNL     1       7.229   5.301  15.248  0.00  0.00    +0.000 A 
ATOM     28  C   UNL     1       7.497   5.056  13.910  0.00  0.00    +0.000 A 
ATOM     29  F   UNL     1       8.537   5.669  13.334  0.00  0.00    +0.000 F 
ENDBRANCH  19  26
ENDBRANCH  17  19
ENDBRANCH   1  17
TORSDOF 5
ENDMDL
MODEL 9
REMARK VINA RESULT:      -7.9      2.797      3.744
REMARK  Name = 
REMARK  7 active torsions:
REMARK  status: ('A' for Active; 'I' for Inactive)
REMARK    1  A    between atoms: C_1  and  C_2
REMARK    2  A    between atoms: C_5  and  S_6
REMARK    3  A    between atoms: S_6  and  N_9
REMARK    4  A    between atoms: N_9  and  C_10
REMARK    5  A    between atoms: C_14  and  C_15
REMARK    6  A    between atoms: N_17  and  C_18
REMARK    7  A    between atoms: N_17  and  C_19
REMARK                            x       y       z     vdW  Elec       q    Type
REMARK                         _______ _______ _______ _____ _____    ______ ____
ROOT
ATOM      1  C   UNL     1       4.351   4.272  17.846  0.00  0.00    +0.000 A 
ATOM      2  C   UNL     1       3.405   3.369  17.369  0.00  0.00    +0.000 A 
ATOM      3  C   UNL     1       2.050   3.638  17.533  0.00  0.00    +0.000 A 
ATOM      4  C   UNL     1       1.640   4.787  18.212  0.00  0.00    +0.000 A 
ATOM      5  C   UNL     1       2.567   5.575  18.898  0.00  0.00    +0.000 A 
ATOM      6  C   UNL     1       3.940   5.366  18.624  0.00  0.00    +0.000 A 
ENDROOT
BRANCH   5   7
ATOM      7  C   UNL     1       2.159   6.611  19.924  0.00  0.00    +0.000 C 
ATOM      8  O   UNL     1       2.038   6.209  21.084  0.00  0.00    +0.000 OA
ATOM      9  N   UNL     1       1.873   7.959  19.574  0.00  0.00    +0.000 N 
ATOM     10  C   UNL     1       1.956   8.515  18.225  0.00  0.00    +0.000 C 
BRANCH   9  11
ATOM     11  C   UNL     1       1.386   8.895  20.644  0.00  0.00    +0.000 C 
ATOM     12  C   UNL     1       0.136   8.325  21.351  0.00  0.00    +0.000 C 
ATOM     13  C   UNL     1      -0.455   9.290  22.386  0.00  0.00    +0.000 C 
ATOM     14  C   UNL     1      -0.774  10.648  21.774  0.00  0.00    +0.000 C 
ATOM     15  C   UNL     1       0.478  11.263  21.163  0.00  0.00    +0.000 C 
ATOM     16  C   UNL     1       1.096  10.328  20.121  0.00  0.00    +0.000 C 
ENDBRANCH   9  11
ENDBRANCH   5   7
BRANCH   1  17
ATOM     17  N   UNL     1       5.712   4.051  17.510  0.00  0.00    +0.000 N 
ATOM     18  H   UNL     1       6.265   3.357  18.016  0.00  0.00    +0.000 HD
BRANCH  17  19
ATOM     19  S   UNL     1       6.522   5.029  16.416  0.00  0.00    +0.000 S 
ATOM     20  O   UNL     1       5.541   5.603  15.515  0.00  0.00    +0.000 OA
ATOM     21  O   UNL     1       7.645   4.276  15.914  0.00  0.00    +0.000 OA
BRANCH  19  26
ATOM     22  C   UNL     1       9.086   9.663  19.405  0.00  0.00    +0.000 C 
ATOM     23  C   UNL     1       8.426   8.504  18.729  0.00  0.00    +0.000 A 
ATOM     24  C   UNL     1       8.536   7.194  19.225  0.00  0.00    +0.000 A 
ATOM     25  C   UNL     1       7.926   6.123  18.566  0.00  0.00    +0.000 A 
ATOM     26  C   UNL     1       7.186   6.364  17.397  0.00  0.00    +0.000 A 
ATOM     27  C   UNL     1       7.079   7.658  16.891  0.00  0.00    +0.000 A 
ATOM     28  C   UNL     1       7.690   8.712  17.554  0.00  0.00    +0.000 A 
ATOM     29  F   UNL     1       7.582   9.945  17.047  0.00  0.00    +0.000 F 
ENDBRANCH  19  26
ENDBRANCH  17  19
ENDBRANCH   1  17
TORSDOF 5
ENDMDL
