MODEL 1
REMARK VINA RESULT:     -10.0      0.000      0.000
REMARK  Name = 
REMARK  3 active torsions:
REMARK  status: ('A' for Active; 'I' for Inactive)
REMARK    1  A    between atoms: C_1  and  N_2
REMARK    2  A    between atoms: C_4  and  C_5
REMARK    3  A    between atoms: C_14  and  C_15
REMARK                            x       y       z     vdW  Elec       q    Type
REMARK                         _______ _______ _______ _____ _____    ______ ____
ROOT
ATOM      1  C   UNL     1       2.992   4.066  17.330  0.00  0.00    +0.000 C 
ATOM      2  O   UNL     1       2.327   3.113  16.943  0.00  0.00    +0.000 OA
ATOM      3  N   UNL     1       2.611   4.870  18.396  0.00  0.00    +0.000 N 
ATOM      4  C   UNL     1       1.426   4.416  19.168  0.00  0.00    +0.000 C 
ATOM      5  C   UNL     1       1.768   4.561  20.645  0.00  0.00    +0.000 C 
ATOM      6  O   UNL     1       1.414   3.758  21.502  0.00  0.00    +0.000 OA
ATOM      7  N   UNL     1       2.394   5.754  20.970  0.00  0.00    +0.000 N 
ATOM      8  C   UNL     1       2.522   6.697  19.923  0.00  0.00    +0.000 A 
ATOM      9  C   UNL     1       1.839   7.895  20.079  0.00  0.00    +0.000 A 
ATOM     10  C   UNL     1       1.570   8.670  18.948  0.00  0.00    +0.000 A 
ATOM     11  C   UNL     1       2.235   8.371  17.742  0.00  0.00    +0.000 A 
ATOM     12  C   UNL     1       2.932   7.163  17.584  0.00  0.00    +0.000 A 
ATOM     13  C   UNL     1       2.884   6.252  18.635  0.00  0.00    +0.000 A 
ATOM     14  H   UNL     1       3.281   5.506  21.404  0.00  0.00    +0.000 HD
ENDROOT
BRANCH   1  18
ATOM     15  C   UNL     1       5.732   4.156  13.363  0.00  0.00    +0.000 C 
ATOM     16  N   UNL     1       5.665   4.352  14.798  0.00  0.00    +0.000 N 
ATOM     17  N   UNL     1       4.472   4.051  15.420  0.00  0.00    +0.000 NA
ATOM     18  C   UNL     1       4.379   4.235  16.709  0.00  0.00    +0.000 A 
ATOM     19  C   UNL     1       5.498   4.720  17.545  0.00  0.00    +0.000 A 
ATOM     20  C   UNL     1       5.417   4.901  18.934  0.00  0.00    +0.000 A 
ATOM     21  C   UNL     1       6.535   5.327  19.659  0.00  0.00    +0.000 A 
ATOM     22  C   UNL     1       7.740   5.574  19.010  0.00  0.00    +0.000 A 
ATOM     23  C   UNL     1       7.822   5.424  17.627  0.00  0.00    +0.000 A 
ATOM     24  C   UNL     1       6.698   5.004  16.900  0.00  0.00    +0.000 A 
ATOM     25  C   UNL     1       6.792   4.854  15.441  0.00  0.00    +0.000 A 
ATOM     26  O   UNL     1       7.835   5.155  14.864  0.00  0.00    +0.000 OA
ENDBRANCH   1  18
BRANCH  10  27
ATOM     27  C   UNL     1       0.431   9.664  18.970  0.00  0.00    +0.000 C 
ATOM     28  F   UNL     1      -0.275   9.707  17.805  0.00  0.00    +0.000 F 
ATOM     29  F   UNL     1      -0.469   9.437  19.957  0.00  0.00    +0.000 F 
ATOM     30  F   UNL     1       0.889  10.939  19.156  0.00  0.00    +0.000 F 
ENDBRANCH  10  27
TORSDOF 2
ENDMDL
MODEL 2
REMARK VINA RESULT:      -8.5      7.708     12.251
REMARK  Name = 
REMARK  3 active torsions:
REMARK  status: ('A' for Active; 'I' for Inactive)
REMARK    1  A    between atoms: C_1  and  N_2
REMARK    2  A    between atoms: C_4  and  C_5
REMARK    3  A    between atoms: C_14  and  C_15
REMARK                            x       y       z     vdW  Elec       q    Type
REMARK                         _______ _______ _______ _____ _____    ______ ____
ROOT
ATOM      1  C   UNL     1      -5.459  11.454  18.745  0.00  0.00    +0.000 C 
ATOM      2  O   UNL     1      -6.269  10.549  18.580  0.00  0.00    +0.000 OA
ATOM      3  N   UNL     1      -4.159  11.401  18.262  0.00  0.00    +0.000 N 
ATOM      4  C   UNL     1      -3.835  10.253  17.377  0.00  0.00    +0.000 C 
ATOM      5  C   UNL     1      -3.052  10.803  16.192  0.00  0.00    +0.000 C 
ATOM      6  O   UNL     1      -3.185  10.390  15.045  0.00  0.00    +0.000 OA
ATOM      7  N   UNL     1      -2.067  11.716  16.535  0.00  0.00    +0.000 N 
ATOM      8  C   UNL     1      -1.857  11.918  17.919  0.00  0.00    +0.000 A 
ATOM      9  C   UNL     1      -0.618  11.546  18.420  0.00  0.00    +0.000 A 
ATOM     10  C   UNL     1      -0.488  11.315  19.792  0.00  0.00    +0.000 A 
ATOM     11  C   UNL     1      -1.517  11.738  20.657  0.00  0.00    +0.000 A 
ATOM     12  C   UNL     1      -2.770  12.121  20.151  0.00  0.00    +0.000 A 
ATOM     13  C   UNL     1      -2.972  12.004  18.780  0.00  0.00    +0.000 A 
ATOM     14  H   UNL     1      -2.279  12.573  16.027  0.00  0.00    +0.000 HD
ENDROOT
BRANCH   1  18
ATOM     15  C   UNL     1      -6.091  14.211  22.649  0.00  0.00    +0.000 C 
ATOM     16  N   UNL     1      -6.219  14.096  21.210  0.00  0.00    +0.000 N 
ATOM     17  N   UNL     1      -5.903  12.880  20.644  0.00  0.00    +0.000 NA
ATOM     18  C   UNL     1      -5.993  12.754  19.349  0.00  0.00    +0.000 A 
ATOM     19  C   UNL     1      -6.449  13.840  18.455  0.00  0.00    +0.000 A 
ATOM     20  C   UNL     1      -6.570  13.710  17.063  0.00  0.00    +0.000 A 
ATOM     21  C   UNL     1      -7.047  14.775  16.291  0.00  0.00    +0.000 A 
ATOM     22  C   UNL     1      -7.407  15.975  16.898  0.00  0.00    +0.000 A 
ATOM     23  C   UNL     1      -7.263  16.122  18.275  0.00  0.00    +0.000 A 
ATOM     24  C   UNL     1      -6.778  15.055  19.048  0.00  0.00    +0.000 A 
ATOM     25  C   UNL     1      -6.623  15.222  20.500  0.00  0.00    +0.000 A 
ATOM     26  O   UNL     1      -6.863  16.311  21.016  0.00  0.00    +0.000 OA
ENDBRANCH   1  18
BRANCH  10  27
ATOM     27  C   UNL     1       0.633  10.440  20.305  0.00  0.00    +0.000 C 
ATOM     28  F   UNL     1       1.468   9.996  19.324  0.00  0.00    +0.000 F 
ATOM     29  F   UNL     1       1.414  11.045  21.232  0.00  0.00    +0.000 F 
ATOM     30  F   UNL     1       0.147   9.307  20.897  0.00  0.00    +0.000 F 
ENDBRANCH  10  27
TORSDOF 2
ENDMDL
MODEL 3
REMARK VINA RESULT:      -8.5      7.933     12.182
REMARK  Name = 
REMARK  3 active torsions:
REMARK  status: ('A' for Active; 'I' for Inactive)
REMARK    1  A    between atoms: C_1  and  N_2
REMARK    2  A    between atoms: C_4  and  C_5
REMARK    3  A    between atoms: C_14  and  C_15
REMARK                            x       y       z     vdW  Elec       q    Type
REMARK                         _______ _______ _______ _____ _____    ______ ____
ROOT
ATOM      1  C   UNL     1      -5.640  11.600  18.382  0.00  0.00    +0.000 C 
ATOM      2  O   UNL     1      -6.490  10.724  18.276  0.00  0.00    +0.000 OA
ATOM      3  N   UNL     1      -4.317  11.419  18.003  0.00  0.00    +0.000 N 
ATOM      4  C   UNL     1      -4.006  10.150  17.296  0.00  0.00    +0.000 C 
ATOM      5  C   UNL     1      -3.118  10.501  16.109  0.00  0.00    +0.000 C 
ATOM      6  O   UNL     1      -3.202   9.950  15.017  0.00  0.00    +0.000 OA
ATOM      7  N   UNL     1      -2.104  11.400  16.403  0.00  0.00    +0.000 N 
ATOM      8  C   UNL     1      -1.972  11.768  17.763  0.00  0.00    +0.000 A 
ATOM      9  C   UNL     1      -0.791  11.402  18.394  0.00  0.00    +0.000 A 
ATOM     10  C   UNL     1      -0.763  11.345  19.790  0.00  0.00    +0.000 A 
ATOM     11  C   UNL     1      -1.819  11.929  20.518  0.00  0.00    +0.000 A 
ATOM     12  C   UNL     1      -3.011  12.306  19.881  0.00  0.00    +0.000 A 
ATOM     13  C   UNL     1      -3.132  12.022  18.524  0.00  0.00    +0.000 A 
ATOM     14  H   UNL     1      -2.231  12.193  15.778  0.00  0.00    +0.000 HD
ENDROOT
BRANCH   1  18
ATOM     15  C   UNL     1      -7.059  15.998  17.006  0.00  0.00    +0.000 C 
ATOM     16  N   UNL     1      -6.883  15.066  18.102  0.00  0.00    +0.000 N 
ATOM     17  N   UNL     1      -6.288  13.857  17.813  0.00  0.00    +0.000 NA
ATOM     18  C   UNL     1      -6.133  12.993  18.778  0.00  0.00    +0.000 A 
ATOM     19  C   UNL     1      -6.534  13.254  20.177  0.00  0.00    +0.000 A 
ATOM     20  C   UNL     1      -6.355  12.341  21.227  0.00  0.00    +0.000 A 
ATOM     21  C   UNL     1      -6.727  12.680  22.532  0.00  0.00    +0.000 A 
ATOM     22  C   UNL     1      -7.279  13.929  22.802  0.00  0.00    +0.000 A 
ATOM     23  C   UNL     1      -7.488  14.830  21.760  0.00  0.00    +0.000 A 
ATOM     24  C   UNL     1      -7.121  14.486  20.450  0.00  0.00    +0.000 A 
ATOM     25  C   UNL     1      -7.350  15.441  19.357  0.00  0.00    +0.000 A 
ATOM     26  O   UNL     1      -7.916  16.507  19.590  0.00  0.00    +0.000 OA
ENDBRANCH   1  18
BRANCH  10  27
ATOM     27  C   UNL     1       0.269  10.488  20.487  0.00  0.00    +0.000 C 
ATOM     28  F   UNL     1       0.909  11.129  21.505  0.00  0.00    +0.000 F 
ATOM     29  F   UNL     1      -0.238   9.345  21.009  0.00  0.00    +0.000 F 
ATOM     30  F   UNL     1       1.261  10.107  19.627  0.00  0.00    +0.000 F 
ENDBRANCH  10  27
TORSDOF 2
ENDMDL
MODEL 4
REMARK VINA RESULT:      -8.4      7.137      9.519
REMARK  Name = 
REMARK  3 active torsions:
REMARK  status: ('A' for Active; 'I' for Inactive)
REMARK    1  A    between atoms: C_1  and  N_2
REMARK    2  A    between atoms: C_4  and  C_5
REMARK    3  A    between atoms: C_14  and  C_15
REMARK                            x       y       z     vdW  Elec       q    Type
REMARK                         _______ _______ _______ _____ _____    ______ ____
ROOT
ATOM      1  C   UNL     1      -0.793  12.037  21.981  0.00  0.00    +0.000 C 
ATOM      2  O   UNL     1      -0.370  11.282  22.848  0.00  0.00    +0.000 OA
ATOM      3  N   UNL     1      -2.093  12.524  21.972  0.00  0.00    +0.000 N 
ATOM      4  C   UNL     1      -2.915  12.218  23.171  0.00  0.00    +0.000 C 
ATOM      5  C   UNL     1      -3.639  13.501  23.560  0.00  0.00    +0.000 C 
ATOM      6  O   UNL     1      -3.829  13.843  24.723  0.00  0.00    +0.000 OA
ATOM      7  N   UNL     1      -4.195  14.188  22.492  0.00  0.00    +0.000 N 
ATOM      8  C   UNL     1      -4.111  13.554  21.230  0.00  0.00    +0.000 A 
ATOM      9  C   UNL     1      -5.311  13.192  20.636  0.00  0.00    +0.000 A 
ATOM     10  C   UNL     1      -5.300  12.214  19.638  0.00  0.00    +0.000 A 
ATOM     11  C   UNL     1      -4.069  11.836  19.065  0.00  0.00    +0.000 A 
ATOM     12  C   UNL     1      -2.853  12.208  19.661  0.00  0.00    +0.000 A 
ATOM     13  C   UNL     1      -2.914  12.901  20.866  0.00  0.00    +0.000 A 
ATOM     14  H   UNL     1      -3.788  15.122  22.506  0.00  0.00    +0.000 HD
ENDROOT
BRANCH   1  18
ATOM     15  C   UNL     1       2.170  15.623  20.711  0.00  0.00    +0.000 C 
ATOM     16  N   UNL     1       1.702  14.279  20.437  0.00  0.00    +0.000 N 
ATOM     17  N   UNL     1       0.662  13.804  21.205  0.00  0.00    +0.000 NA
ATOM     18  C   UNL     1       0.232  12.590  20.990  0.00  0.00    +0.000 A 
ATOM     19  C   UNL     1       0.783  11.706  19.941  0.00  0.00    +0.000 A 
ATOM     20  C   UNL     1       0.316  10.407  19.686  0.00  0.00    +0.000 A 
ATOM     21  C   UNL     1       0.865   9.648  18.648  0.00  0.00    +0.000 A 
ATOM     22  C   UNL     1       1.881  10.174  17.855  0.00  0.00    +0.000 A 
ATOM     23  C   UNL     1       2.370  11.452  18.120  0.00  0.00    +0.000 A 
ATOM     24  C   UNL     1       1.823  12.210  19.166  0.00  0.00    +0.000 A 
ATOM     25  C   UNL     1       2.350  13.554  19.441  0.00  0.00    +0.000 A 
ATOM     26  O   UNL     1       3.304  13.978  18.792  0.00  0.00    +0.000 OA
ENDBRANCH   1  18
BRANCH  10  27
ATOM     27  C   UNL     1      -6.557  11.430  19.339  0.00  0.00    +0.000 C 
ATOM     28  F   UNL     1      -6.866  10.511  20.297  0.00  0.00    +0.000 F 
ATOM     29  F   UNL     1      -7.657  12.206  19.181  0.00  0.00    +0.000 F 
ATOM     30  F   UNL     1      -6.431  10.710  18.183  0.00  0.00    +0.000 F 
ENDBRANCH  10  27
TORSDOF 2
ENDMDL
MODEL 5
REMARK VINA RESULT:      -8.4      3.973      7.655
REMARK  Name = 
REMARK  3 active torsions:
REMARK  status: ('A' for Active; 'I' for Inactive)
REMARK    1  A    between atoms: C_1  and  N_2
REMARK    2  A    between atoms: C_4  and  C_5
REMARK    3  A    between atoms: C_14  and  C_15
REMARK                            x       y       z     vdW  Elec       q    Type
REMARK                         _______ _______ _______ _____ _____    ______ ____
ROOT
ATOM      1  C   UNL     1       2.143   8.295  18.245  0.00  0.00    +0.000 C 
ATOM      2  O   UNL     1       2.062   8.894  17.179  0.00  0.00    +0.000 OA
ATOM      3  N   UNL     1       2.997   7.220  18.444  0.00  0.00    +0.000 N 
ATOM      4  C   UNL     1       3.948   6.926  17.342  0.00  0.00    +0.000 C 
ATOM      5  C   UNL     1       5.310   6.674  17.977  0.00  0.00    +0.000 C 
ATOM      6  O   UNL     1       6.367   7.047  17.478  0.00  0.00    +0.000 OA
ATOM      7  N   UNL     1       5.274   5.861  19.099  0.00  0.00    +0.000 N 
ATOM      8  C   UNL     1       4.016   5.300  19.422  0.00  0.00    +0.000 A 
ATOM      9  C   UNL     1       3.917   3.917  19.355  0.00  0.00    +0.000 A 
ATOM     10  C   UNL     1       2.651   3.337  19.240  0.00  0.00    +0.000 A 
ATOM     11  C   UNL     1       1.512   4.130  19.481  0.00  0.00    +0.000 A 
ATOM     12  C   UNL     1       1.611   5.529  19.556  0.00  0.00    +0.000 A 
ATOM     13  C   UNL     1       2.857   6.098  19.317  0.00  0.00    +0.000 A 
ATOM     14  H   UNL     1       5.686   6.399  19.859  0.00  0.00    +0.000 HD
ENDROOT
BRANCH   1  18
ATOM     15  C   UNL     1       1.955   9.121  22.992  0.00  0.00    +0.000 C 
ATOM     16  N   UNL     1       1.355   9.356  21.693  0.00  0.00    +0.000 N 
ATOM     17  N   UNL     1       1.904   8.694  20.616  0.00  0.00    +0.000 NA
ATOM     18  C   UNL     1       1.394   8.901  19.432  0.00  0.00    +0.000 A 
ATOM     19  C   UNL     1       0.234   9.786  19.189  0.00  0.00    +0.000 A 
ATOM     20  C   UNL     1      -0.336  10.001  17.925  0.00  0.00    +0.000 A 
ATOM     21  C   UNL     1      -1.458  10.824  17.785  0.00  0.00    +0.000 A 
ATOM     22  C   UNL     1      -2.021  11.439  18.899  0.00  0.00    +0.000 A 
ATOM     23  C   UNL     1      -1.443  11.254  20.153  0.00  0.00    +0.000 A 
ATOM     24  C   UNL     1      -0.314  10.434  20.292  0.00  0.00    +0.000 A 
ATOM     25  C   UNL     1       0.291  10.250  21.619  0.00  0.00    +0.000 A 
ATOM     26  O   UNL     1      -0.160  10.863  22.583  0.00  0.00    +0.000 OA
ENDBRANCH   1  18
BRANCH  10  27
ATOM     27  C   UNL     1       2.510   1.949  18.657  0.00  0.00    +0.000 C 
ATOM     28  F   UNL     1       2.239   1.946  17.321  0.00  0.00    +0.000 F 
ATOM     29  F   UNL     1       3.607   1.173  18.831  0.00  0.00    +0.000 F 
ATOM     30  F   UNL     1       1.470   1.273  19.233  0.00  0.00    +0.000 F 
ENDBRANCH  10  27
TORSDOF 2
ENDMDL
MODEL 6
REMARK VINA RESULT:      -8.2      8.159     12.639
REMARK  Name = 
REMARK  3 active torsions:
REMARK  status: ('A' for Active; 'I' for Inactive)
REMARK    1  A    between atoms: C_1  and  N_2
REMARK    2  A    between atoms: C_4  and  C_5
REMARK    3  A    between atoms: C_14  and  C_15
REMARK                            x       y       z     vdW  Elec       q    Type
REMARK                         _______ _______ _______ _____ _____    ______ ____
ROOT
ATOM      1  C   UNL     1      -4.606  12.937  20.211  0.00  0.00    +0.000 C 
ATOM      2  O   UNL     1      -5.483  12.451  19.507  0.00  0.00    +0.000 OA
ATOM      3  N   UNL     1      -3.272  12.564  20.122  0.00  0.00    +0.000 N 
ATOM      4  C   UNL     1      -2.920  11.653  19.002  0.00  0.00    +0.000 C 
ATOM      5  C   UNL     1      -1.642  12.189  18.370  0.00  0.00    +0.000 C 
ATOM      6  O   UNL     1      -1.426  12.170  17.163  0.00  0.00    +0.000 OA
ATOM      7  N   UNL     1      -0.673  12.575  19.284  0.00  0.00    +0.000 N 
ATOM      8  C   UNL     1      -0.960  12.315  20.645  0.00  0.00    +0.000 A 
ATOM      9  C   UNL     1      -0.128  11.414  21.294  0.00  0.00    +0.000 A 
ATOM     10  C   UNL     1      -0.584  10.797  22.462  0.00  0.00    +0.000 A 
ATOM     11  C   UNL     1      -1.732  11.307  23.101  0.00  0.00    +0.000 A 
ATOM     12  C   UNL     1      -2.572  12.223  22.448  0.00  0.00    +0.000 A 
ATOM     13  C   UNL     1      -2.263  12.553  21.132  0.00  0.00    +0.000 A 
ATOM     14  H   UNL     1      -0.468  13.553  19.092  0.00  0.00    +0.000 HD
ENDROOT
BRANCH   1  18
ATOM     15  C   UNL     1      -4.542  17.707  20.913  0.00  0.00    +0.000 C 
ATOM     16  N   UNL     1      -5.033  16.420  21.362  0.00  0.00    +0.000 N 
ATOM     17  N   UNL     1      -4.566  15.302  20.706  0.00  0.00    +0.000 NA
ATOM     18  C   UNL     1      -5.005  14.131  21.079  0.00  0.00    +0.000 A 
ATOM     19  C   UNL     1      -5.956  13.936  22.194  0.00  0.00    +0.000 A 
ATOM     20  C   UNL     1      -6.420  12.682  22.619  0.00  0.00    +0.000 A 
ATOM     21  C   UNL     1      -7.290  12.580  23.709  0.00  0.00    +0.000 A 
ATOM     22  C   UNL     1      -7.705  13.723  24.385  0.00  0.00    +0.000 A 
ATOM     23  C   UNL     1      -7.273  14.975  23.952  0.00  0.00    +0.000 A 
ATOM     24  C   UNL     1      -6.405  15.077  22.854  0.00  0.00    +0.000 A 
ATOM     25  C   UNL     1      -5.959  16.402  22.401  0.00  0.00    +0.000 A 
ATOM     26  O   UNL     1      -6.397  17.411  22.949  0.00  0.00    +0.000 OA
ENDBRANCH   1  18
BRANCH  10  27
ATOM     27  C   UNL     1       0.019   9.483  22.903  0.00  0.00    +0.000 C 
ATOM     28  F   UNL     1      -0.742   8.400  22.578  0.00  0.00    +0.000 F 
ATOM     29  F   UNL     1       1.254   9.253  22.394  0.00  0.00    +0.000 F 
ATOM     30  F   UNL     1       0.152   9.429  24.263  0.00  0.00    +0.000 F 
ENDBRANCH  10  27
TORSDOF 2
ENDMDL
MODEL 7
REMARK VINA RESULT:      -8.2      8.649     10.339
REMARK  Name = 
REMARK  3 active torsions:
REMARK  status: ('A' for Active; 'I' for Inactive)
REMARK    1  A    between atoms: C_1  and  N_2
REMARK    2  A    between atoms: C_4  and  C_5
REMARK    3  A    between atoms: C_14  and  C_15
REMARK                            x       y       z     vdW  Elec       q    Type
REMARK                         _______ _______ _______ _____ _____    ______ ____
ROOT
ATOM      1  C   UNL     1       0.019  13.779  21.323  0.00  0.00    +0.000 C 
ATOM      2  O   UNL     1       0.704  13.380  22.257  0.00  0.00    +0.000 OA
ATOM      3  N   UNL     1      -1.192  13.199  20.971  0.00  0.00    +0.000 N 
ATOM      4  C   UNL     1      -1.712  12.159  21.896  0.00  0.00    +0.000 C 
ATOM      5  C   UNL     1      -3.196  12.440  22.100  0.00  0.00    +0.000 C 
ATOM      6  O   UNL     1      -3.769  12.292  23.174  0.00  0.00    +0.000 OA
ATOM      7  N   UNL     1      -3.884  12.743  20.935  0.00  0.00    +0.000 N 
ATOM      8  C   UNL     1      -3.148  12.638  19.731  0.00  0.00    +0.000 A 
ATOM      9  C   UNL     1      -3.571  11.675  18.827  0.00  0.00    +0.000 A 
ATOM     10  C   UNL     1      -2.676  11.229  17.850  0.00  0.00    +0.000 A 
ATOM     11  C   UNL     1      -1.492  11.959  17.625  0.00  0.00    +0.000 A 
ATOM     12  C   UNL     1      -1.066  12.939  18.535  0.00  0.00    +0.000 A 
ATOM     13  C   UNL     1      -1.820  13.112  19.692  0.00  0.00    +0.000 A 
ATOM     14  H   UNL     1      -4.303  13.659  21.078  0.00  0.00    +0.000 HD
ENDROOT
BRANCH   1  18
ATOM     15  C   UNL     1      -0.287  18.587  21.121  0.00  0.00    +0.000 C 
ATOM     16  N   UNL     1       0.360  17.389  20.624  0.00  0.00    +0.000 N 
ATOM     17  N   UNL     1      -0.119  16.179  21.077  0.00  0.00    +0.000 NA
ATOM     18  C   UNL     1       0.457  15.085  20.658  0.00  0.00    +0.000 A 
ATOM     19  C   UNL     1       1.579  15.073  19.696  0.00  0.00    +0.000 A 
ATOM     20  C   UNL     1       2.193  13.903  19.222  0.00  0.00    +0.000 A 
ATOM     21  C   UNL     1       3.225  13.976  18.281  0.00  0.00    +0.000 A 
ATOM     22  C   UNL     1       3.653  15.211  17.803  0.00  0.00    +0.000 A 
ATOM     23  C   UNL     1       3.069  16.379  18.290  0.00  0.00    +0.000 A 
ATOM     24  C   UNL     1       2.039  16.305  19.239  0.00  0.00    +0.000 A 
ATOM     25  C   UNL     1       1.433  17.542  19.751  0.00  0.00    +0.000 A 
ATOM     26  O   UNL     1       1.874  18.631  19.388  0.00  0.00    +0.000 OA
ENDBRANCH   1  18
BRANCH  10  27
ATOM     27  C   UNL     1      -2.878   9.877  17.205  0.00  0.00    +0.000 C 
ATOM     28  F   UNL     1      -3.524   8.984  18.007  0.00  0.00    +0.000 F 
ATOM     29  F   UNL     1      -3.575   9.927  16.044  0.00  0.00    +0.000 F 
ATOM     30  F   UNL     1      -1.681   9.286  16.906  0.00  0.00    +0.000 F 
ENDBRANCH  10  27
TORSDOF 2
ENDMDL
MODEL 8
REMARK VINA RESULT:      -8.2      6.787     10.157
REMARK  Name = 
REMARK  3 active torsions:
REMARK  status: ('A' for Active; 'I' for Inactive)
REMARK    1  A    between atoms: C_1  and  N_2
REMARK    2  A    between atoms: C_4  and  C_5
REMARK    3  A    between atoms: C_14  and  C_15
REMARK                            x       y       z     vdW  Elec       q    Type
REMARK                         _______ _______ _______ _____ _____    ______ ____
ROOT
ATOM      1  C   UNL     1       1.289  14.274  21.039  0.00  0.00    +0.000 C 
ATOM      2  O   UNL     1       1.571  14.490  22.211  0.00  0.00    +0.000 OA
ATOM      3  N   UNL     1       0.618  13.132  20.621  0.00  0.00    +0.000 N 
ATOM      4  C   UNL     1       0.100  12.248  21.697  0.00  0.00    +0.000 C 
ATOM      5  C   UNL     1      -1.320  11.855  21.311  0.00  0.00    +0.000 C 
ATOM      6  O   UNL     1      -2.233  11.742  22.123  0.00  0.00    +0.000 OA
ATOM      7  N   UNL     1      -1.471  11.495  19.981  0.00  0.00    +0.000 N 
ATOM      8  C   UNL     1      -0.285  11.435  19.213  0.00  0.00    +0.000 A 
ATOM      9  C   UNL     1       0.073  10.189  18.718  0.00  0.00    +0.000 A 
ATOM     10  C   UNL     1       1.399   9.971  18.335  0.00  0.00    +0.000 A 
ATOM     11  C   UNL     1       2.258  11.079  18.188  0.00  0.00    +0.000 A 
ATOM     12  C   UNL     1       1.895  12.342  18.681  0.00  0.00    +0.000 A 
ATOM     13  C   UNL     1       0.693  12.440  19.375  0.00  0.00    +0.000 A 
ATOM     14  H   UNL     1      -2.176  12.117  19.592  0.00  0.00    +0.000 HD
ENDROOT
BRANCH   1  18
ATOM     15  C   UNL     1       4.331  16.535  18.058  0.00  0.00    +0.000 C 
ATOM     16  N   UNL     1       2.978  16.438  18.570  0.00  0.00    +0.000 N 
ATOM     17  N   UNL     1       2.750  15.533  19.583  0.00  0.00    +0.000 NA
ATOM     18  C   UNL     1       1.537  15.413  20.050  0.00  0.00    +0.000 A 
ATOM     19  C   UNL     1       0.397  16.224  19.570  0.00  0.00    +0.000 A 
ATOM     20  C   UNL     1      -0.907  16.120  20.078  0.00  0.00    +0.000 A 
ATOM     21  C   UNL     1      -1.923  16.951  19.597  0.00  0.00    +0.000 A 
ATOM     22  C   UNL     1      -1.650  17.893  18.609  0.00  0.00    +0.000 A 
ATOM     23  C   UNL     1      -0.365  17.983  18.078  0.00  0.00    +0.000 A 
ATOM     24  C   UNL     1       0.652  17.143  18.557  0.00  0.00    +0.000 A 
ATOM     25  C   UNL     1       2.003  17.241  17.987  0.00  0.00    +0.000 A 
ATOM     26  O   UNL     1       2.215  18.016  17.056  0.00  0.00    +0.000 OA
ENDBRANCH   1  18
BRANCH  10  27
ATOM     27  C   UNL     1       1.949   8.564  18.293  0.00  0.00    +0.000 C 
ATOM     28  F   UNL     1       1.962   7.949  19.510  0.00  0.00    +0.000 F 
ATOM     29  F   UNL     1       1.274   7.742  17.454  0.00  0.00    +0.000 F 
ATOM     30  F   UNL     1       3.251   8.551  17.874  0.00  0.00    +0.000 F 
ENDBRANCH  10  27
TORSDOF 2
ENDMDL
MODEL 9
REMARK VINA RESULT:      -8.1      6.029      8.935
REMARK  Name = 
REMARK  3 active torsions:
REMARK  status: ('A' for Active; 'I' for Inactive)
REMARK    1  A    between atoms: C_1  and  N_2
REMARK    2  A    between atoms: C_4  and  C_5
REMARK    3  A    between atoms: C_14  and  C_15
REMARK                            x       y       z     vdW  Elec       q    Type
REMARK                         _______ _______ _______ _____ _____    ______ ____
ROOT
ATOM      1  C   UNL     1      -0.342  12.426  18.751  0.00  0.00    +0.000 C 
ATOM      2  O   UNL     1      -1.263  12.453  17.943  0.00  0.00    +0.000 OA
ATOM      3  N   UNL     1       0.180  13.570  19.340  0.00  0.00    +0.000 N 
ATOM      4  C   UNL     1      -0.549  14.836  19.069  0.00  0.00    +0.000 C 
ATOM      5  C   UNL     1      -0.673  15.577  20.394  0.00  0.00    +0.000 C 
ATOM      6  O   UNL     1      -1.669  16.216  20.719  0.00  0.00    +0.000 OA
ATOM      7  N   UNL     1       0.488  15.590  21.151  0.00  0.00    +0.000 N 
ATOM      8  C   UNL     1       1.634  15.024  20.544  0.00  0.00    +0.000 A 
ATOM      9  C   UNL     1       2.694  15.883  20.293  0.00  0.00    +0.000 A 
ATOM     10  C   UNL     1       3.650  15.515  19.344  0.00  0.00    +0.000 A 
ATOM     11  C   UNL     1       3.679  14.183  18.885  0.00  0.00    +0.000 A 
ATOM     12  C   UNL     1       2.611  13.309  19.144  0.00  0.00    +0.000 A 
ATOM     13  C   UNL     1       1.504  13.827  19.809  0.00  0.00    +0.000 A 
ATOM     14  H   UNL     1       0.253  15.171  22.048  0.00  0.00    +0.000 HD
ENDROOT
BRANCH   1  18
ATOM     15  C   UNL     1       2.092   8.348  17.918  0.00  0.00    +0.000 C 
ATOM     16  N   UNL     1       1.330   9.136  18.867  0.00  0.00    +0.000 N 
ATOM     17  N   UNL     1       0.775  10.311  18.409  0.00  0.00    +0.000 NA
ATOM     18  C   UNL     1       0.098  11.048  19.247  0.00  0.00    +0.000 A 
ATOM     19  C   UNL     1      -0.132  10.673  20.659  0.00  0.00    +0.000 A 
ATOM     20  C   UNL     1      -0.875  11.446  21.564  0.00  0.00    +0.000 A 
ATOM     21  C   UNL     1      -1.079  11.001  22.874  0.00  0.00    +0.000 A 
ATOM     22  C   UNL     1      -0.549   9.785  23.293  0.00  0.00    +0.000 A 
ATOM     23  C   UNL     1       0.215   9.025  22.409  0.00  0.00    +0.000 A 
ATOM     24  C   UNL     1       0.425   9.475  21.097  0.00  0.00    +0.000 A 
ATOM     25  C   UNL     1       1.236   8.669  20.174  0.00  0.00    +0.000 A 
ATOM     26  O   UNL     1       1.772   7.639  20.577  0.00  0.00    +0.000 OA
ENDBRANCH   1  18
BRANCH  10  27
ATOM     27  C   UNL     1       4.489  16.576  18.670  0.00  0.00    +0.000 C 
ATOM     28  F   UNL     1       4.841  17.599  19.499  0.00  0.00    +0.000 F 
ATOM     29  F   UNL     1       5.640  16.100  18.135  0.00  0.00    +0.000 F 
ATOM     30  F   UNL     1       3.809  17.169  17.642  0.00  0.00    +0.000 F 
ENDBRANCH  10  27
TORSDOF 2
ENDMDL
