MODEL 1
REMARK VINA RESULT:      -9.5      0.000      0.000
REMARK  Name = 
REMARK  5 active torsions:
REMARK  status: ('A' for Active; 'I' for Inactive)
REMARK    1  A    between atoms: C_1  and  C_2
REMARK    2  A    between atoms: C_2  and  C_3
REMARK    3  A    between atoms: N_15  and  C_16
REMARK    4  A    between atoms: C_16  and  C_17
REMARK    5  A    between atoms: C_20  and  C_21
REMARK                            x       y       z     vdW  Elec       q    Type
REMARK                         _______ _______ _______ _____ _____    ______ ____
ROOT
ATOM      1  C   UNL     1       3.490   3.374  18.965  0.00  0.00    +0.000 C 
ATOM      2  C   UNL     1       4.296   4.525  18.385  0.00  0.00    +0.000 C 
ATOM      3  N   UNL     1       4.726   4.257  17.025  0.00  0.00    +0.000 N 
ATOM      4  C   UNL     1       6.016   4.685  16.807  0.00  0.00    +0.000 C 
ATOM      5  O   UNL     1       6.527   4.768  15.704  0.00  0.00    +0.000 OA
ATOM      6  N   UNL     1       6.573   4.987  18.005  0.00  0.00    +0.000 N 
ATOM      7  C   UNL     1       5.709   4.676  19.014  0.00  0.00    +0.000 C 
ATOM      8  O   UNL     1       5.977   4.659  20.208  0.00  0.00    +0.000 OA
ATOM      9  H   UNL     1       4.114   4.097  16.238  0.00  0.00    +0.000 HD
ENDROOT
BRANCH   2  10
ATOM     10  C   UNL     1       3.534   5.856  18.499  0.00  0.00    +0.000 A 
ATOM     11  C   UNL     1       3.529   6.804  17.448  0.00  0.00    +0.000 A 
ATOM     12  C   UNL     1       2.854   8.027  17.570  0.00  0.00    +0.000 A 
ATOM     13  C   UNL     1       2.170   8.294  18.741  0.00  0.00    +0.000 A 
ATOM     14  C   UNL     1       2.159   7.371  19.786  0.00  0.00    +0.000 A 
ATOM     15  C   UNL     1       2.815   6.159  19.676  0.00  0.00    +0.000 A 
ATOM     16  C   UNL     1       1.418   7.906  20.971  0.00  0.00    +0.000 C 
ATOM     17  C   UNL     1       0.582   9.009  20.311  0.00  0.00    +0.000 C 
ATOM     18  C   UNL     1       1.403   9.523  19.117  0.00  0.00    +0.000 C 
ENDBRANCH   2  10
BRANCH   6  19
ATOM     19  C   UNL     1       7.833   5.664  18.184  0.00  0.00    +0.000 C 
BRANCH  19  20
ATOM     20  C   UNL     1       7.745   7.135  18.022  0.00  0.00    +0.000 A 
ATOM     21  N   UNL     1       6.965   7.804  17.194  0.00  0.00    +0.000 NA
ATOM     22  C   UNL     1       7.361   9.104  17.354  0.00  0.00    +0.000 A 
ATOM     23  C   UNL     1       8.378   9.185  18.280  0.00  0.00    +0.000 A 
ATOM     24  O   UNL     1       8.628   7.912  18.720  0.00  0.00    +0.000 OA
BRANCH  23  25
ATOM     25  C   UNL     1       9.196  10.259  18.823  0.00  0.00    +0.000 A 
ATOM     26  C   UNL     1       9.966  11.058  17.964  0.00  0.00    +0.000 A 
ATOM     27  C   UNL     1      10.774  12.076  18.471  0.00  0.00    +0.000 A 
ATOM     28  C   UNL     1      10.813  12.304  19.841  0.00  0.00    +0.000 A 
ATOM     29  F   UNL     1      11.596  13.275  20.325  0.00  0.00    +0.000 F 
ATOM     30  C   UNL     1      10.055  11.533  20.711  0.00  0.00    +0.000 A 
ATOM     31  C   UNL     1       9.247  10.512  20.204  0.00  0.00    +0.000 A 
ENDBRANCH  23  25
ENDBRANCH  19  20
ENDBRANCH   6  19
TORSDOF 4
ENDMDL
MODEL 2
REMARK VINA RESULT:      -9.3      4.204      7.176
REMARK  Name = 
REMARK  5 active torsions:
REMARK  status: ('A' for Active; 'I' for Inactive)
REMARK    1  A    between atoms: C_1  and  C_2
REMARK    2  A    between atoms: C_2  and  C_3
REMARK    3  A    between atoms: N_15  and  C_16
REMARK    4  A    between atoms: C_16  and  C_17
REMARK    5  A    between atoms: C_20  and  C_21
REMARK                            x       y       z     vdW  Elec       q    Type
REMARK                         _______ _______ _______ _____ _____    ______ ____
ROOT
ATOM      1  C   UNL     1       3.602   1.815  17.278  0.00  0.00    +0.000 C 
ATOM      2  C   UNL     1       3.525   2.876  18.364  0.00  0.00    +0.000 C 
ATOM      3  N   UNL     1       3.777   2.324  19.682  0.00  0.00    +0.000 N 
ATOM      4  C   UNL     1       2.930   2.858  20.627  0.00  0.00    +0.000 C 
ATOM      5  O   UNL     1       3.079   2.720  21.828  0.00  0.00    +0.000 OA
ATOM      6  N   UNL     1       1.951   3.540  19.984  0.00  0.00    +0.000 N 
ATOM      7  C   UNL     1       2.082   3.385  18.635  0.00  0.00    +0.000 C 
ATOM      8  O   UNL     1       1.261   3.721  17.792  0.00  0.00    +0.000 OA
ATOM      9  H   UNL     1       4.634   1.877  19.976  0.00  0.00    +0.000 HD
ENDROOT
BRANCH   2  10
ATOM     10  C   UNL     1       4.444   4.067  18.050  0.00  0.00    +0.000 A 
ATOM     11  C   UNL     1       4.112   5.025  17.062  0.00  0.00    +0.000 A 
ATOM     12  C   UNL     1       4.968   6.093  16.761  0.00  0.00    +0.000 A 
ATOM     13  C   UNL     1       6.153   6.212  17.463  0.00  0.00    +0.000 A 
ATOM     14  C   UNL     1       6.497   5.282  18.443  0.00  0.00    +0.000 A 
ATOM     15  C   UNL     1       5.658   4.227  18.752  0.00  0.00    +0.000 A 
ATOM     16  C   UNL     1       7.849   5.573  19.013  0.00  0.00    +0.000 C 
ATOM     17  C   UNL     1       8.014   7.046  18.620  0.00  0.00    +0.000 C 
ATOM     18  C   UNL     1       7.232   7.238  17.310  0.00  0.00    +0.000 C 
ENDBRANCH   2  10
BRANCH   6  19
ATOM     19  C   UNL     1       0.996   4.412  20.620  0.00  0.00    +0.000 C 
BRANCH  19  20
ATOM     20  C   UNL     1       1.301   5.853  20.449  0.00  0.00    +0.000 A 
ATOM     21  N   UNL     1       2.334   6.383  19.821  0.00  0.00    +0.000 NA
ATOM     22  C   UNL     1       2.205   7.724  20.063  0.00  0.00    +0.000 A 
ATOM     23  C   UNL     1       1.092   7.969  20.836  0.00  0.00    +0.000 A 
ATOM     24  O   UNL     1       0.499   6.759  21.086  0.00  0.00    +0.000 OA
BRANCH  23  25
ATOM     25  C   UNL     1       0.481   9.152  21.420  0.00  0.00    +0.000 A 
ATOM     26  C   UNL     1       0.663  10.407  20.816  0.00  0.00    +0.000 A 
ATOM     27  C   UNL     1       0.103  11.555  21.376  0.00  0.00    +0.000 A 
ATOM     28  C   UNL     1      -0.647  11.456  22.541  0.00  0.00    +0.000 A 
ATOM     29  F   UNL     1      -1.174  12.560  23.082  0.00  0.00    +0.000 F 
ATOM     30  C   UNL     1      -0.849  10.226  23.153  0.00  0.00    +0.000 A 
ATOM     31  C   UNL     1      -0.286   9.076  22.594  0.00  0.00    +0.000 A 
ENDBRANCH  23  25
ENDBRANCH  19  20
ENDBRANCH   6  19
TORSDOF 4
ENDMDL
MODEL 3
REMARK VINA RESULT:      -9.2      0.611      1.292
REMARK  Name = 
REMARK  5 active torsions:
REMARK  status: ('A' for Active; 'I' for Inactive)
REMARK    1  A    between atoms: C_1  and  C_2
REMARK    2  A    between atoms: C_2  and  C_3
REMARK    3  A    between atoms: N_15  and  C_16
REMARK    4  A    between atoms: C_16  and  C_17
REMARK    5  A    between atoms: C_20  and  C_21
REMARK                            x       y       z     vdW  Elec       q    Type
REMARK                         _______ _______ _______ _____ _____    ______ ____
ROOT
ATOM      1  C   UNL     1       3.347   3.233  18.063  0.00  0.00    +0.000 C 
ATOM      2  C   UNL     1       4.107   4.539  17.895  0.00  0.00    +0.000 C 
ATOM      3  N   UNL     1       4.473   4.781  16.512  0.00  0.00    +0.000 N 
ATOM      4  C   UNL     1       5.745   5.298  16.407  0.00  0.00    +0.000 C 
ATOM      5  O   UNL     1       6.199   5.780  15.385  0.00  0.00    +0.000 OA
ATOM      6  N   UNL     1       6.356   5.176  17.611  0.00  0.00    +0.000 N 
ATOM      7  C   UNL     1       5.546   4.502  18.478  0.00  0.00    +0.000 C 
ATOM      8  O   UNL     1       5.873   4.074  19.578  0.00  0.00    +0.000 OA
ATOM      9  H   UNL     1       3.825   4.890  15.745  0.00  0.00    +0.000 HD
ENDROOT
BRANCH   2  10
ATOM     10  C   UNL     1       3.332   5.720  18.504  0.00  0.00    +0.000 A 
ATOM     11  C   UNL     1       2.867   5.696  19.840  0.00  0.00    +0.000 A 
ATOM     12  C   UNL     1       2.137   6.764  20.381  0.00  0.00    +0.000 A 
ATOM     13  C   UNL     1       1.886   7.866  19.584  0.00  0.00    +0.000 A 
ATOM     14  C   UNL     1       2.339   7.911  18.267  0.00  0.00    +0.000 A 
ATOM     15  C   UNL     1       3.065   6.866  17.725  0.00  0.00    +0.000 A 
ATOM     16  C   UNL     1       1.889   9.164  17.584  0.00  0.00    +0.000 C 
ATOM     17  C   UNL     1       1.570  10.050  18.793  0.00  0.00    +0.000 C 
ATOM     18  C   UNL     1       1.117   9.105  19.919  0.00  0.00    +0.000 C 
ENDBRANCH   2  10
BRANCH   6  19
ATOM     19  C   UNL     1       7.612   5.784  17.966  0.00  0.00    +0.000 C 
BRANCH  19  20
ATOM     20  C   UNL     1       7.585   7.267  17.935  0.00  0.00    +0.000 A 
ATOM     21  N   UNL     1       6.742   8.037  17.273  0.00  0.00    +0.000 NA
ATOM     22  C   UNL     1       7.226   9.300  17.483  0.00  0.00    +0.000 A 
ATOM     23  C   UNL     1       8.356   9.257  18.269  0.00  0.00    +0.000 A 
ATOM     24  O   UNL     1       8.591   7.941  18.569  0.00  0.00    +0.000 OA
BRANCH  23  25
ATOM     25  C   UNL     1       9.294  10.243  18.784  0.00  0.00    +0.000 A 
ATOM     26  C   UNL     1      10.202  10.869  17.914  0.00  0.00    +0.000 A 
ATOM     27  C   UNL     1      11.123  11.799  18.396  0.00  0.00    +0.000 A 
ATOM     28  C   UNL     1      11.140  12.113  19.749  0.00  0.00    +0.000 A 
ATOM     29  F   UNL     1      12.031  12.998  20.209  0.00  0.00    +0.000 F 
ATOM     30  C   UNL     1      10.248  11.514  20.628  0.00  0.00    +0.000 A 
ATOM     31  C   UNL     1       9.326  10.581  20.147  0.00  0.00    +0.000 A 
ENDBRANCH  23  25
ENDBRANCH  19  20
ENDBRANCH   6  19
TORSDOF 4
ENDMDL
MODEL 4
REMARK VINA RESULT:      -8.6      0.776      1.067
REMARK  Name = 
REMARK  5 active torsions:
REMARK  status: ('A' for Active; 'I' for Inactive)
REMARK    1  A    between atoms: C_1  and  C_2
REMARK    2  A    between atoms: C_2  and  C_3
REMARK    3  A    between atoms: N_15  and  C_16
REMARK    4  A    between atoms: C_16  and  C_17
REMARK    5  A    between atoms: C_20  and  C_21
REMARK                            x       y       z     vdW  Elec       q    Type
REMARK                         _______ _______ _______ _____ _____    ______ ____
ROOT
ATOM      1  C   UNL     1       4.069   3.538  18.363  0.00  0.00    +0.000 C 
ATOM      2  C   UNL     1       4.786   4.846  18.068  0.00  0.00    +0.000 C 
ATOM      3  N   UNL     1       5.392   4.847  16.750  0.00  0.00    +0.000 N 
ATOM      4  C   UNL     1       6.637   5.437  16.765  0.00  0.00    +0.000 C 
ATOM      5  O   UNL     1       7.251   5.750  15.760  0.00  0.00    +0.000 OA
ATOM      6  N   UNL     1       7.017   5.598  18.055  0.00  0.00    +0.000 N 
ATOM      7  C   UNL     1       6.091   5.039  18.888  0.00  0.00    +0.000 C 
ATOM      8  O   UNL     1       6.226   4.858  20.091  0.00  0.00    +0.000 OA
ATOM      9  H   UNL     1       4.896   4.753  15.876  0.00  0.00    +0.000 HD
ENDROOT
BRANCH   2  10
ATOM     10  C   UNL     1       3.858   6.054  18.279  0.00  0.00    +0.000 A 
ATOM     11  C   UNL     1       3.710   7.061  17.296  0.00  0.00    +0.000 A 
ATOM     12  C   UNL     1       2.883   8.173  17.506  0.00  0.00    +0.000 A 
ATOM     13  C   UNL     1       2.190   8.269  18.699  0.00  0.00    +0.000 A 
ATOM     14  C   UNL     1       2.318   7.285  19.678  0.00  0.00    +0.000 A 
ATOM     15  C   UNL     1       3.126   6.180  19.480  0.00  0.00    +0.000 A 
ATOM     16  C   UNL     1       1.534   7.637  20.903  0.00  0.00    +0.000 C 
ATOM     17  C   UNL     1       0.549   8.662  20.327  0.00  0.00    +0.000 C 
ATOM     18  C   UNL     1       1.276   9.358  19.164  0.00  0.00    +0.000 C 
ENDBRANCH   2  10
BRANCH   6  19
ATOM     19  C   UNL     1       8.156   6.365  18.493  0.00  0.00    +0.000 C 
BRANCH  19  20
ATOM     20  C   UNL     1       8.034   7.818  18.221  0.00  0.00    +0.000 A 
ATOM     21  N   UNL     1       7.257   8.403  17.329  0.00  0.00    +0.000 NA
ATOM     22  C   UNL     1       7.616   9.721  17.403  0.00  0.00    +0.000 A 
ATOM     23  C   UNL     1       8.607   9.898  18.343  0.00  0.00    +0.000 A 
ATOM     24  O   UNL     1       8.879   8.667  18.880  0.00  0.00    +0.000 OA
BRANCH  23  25
ATOM     25  C   UNL     1       9.383  11.030  18.825  0.00  0.00    +0.000 A 
ATOM     26  C   UNL     1      10.261  10.869  19.909  0.00  0.00    +0.000 A 
ATOM     27  C   UNL     1      10.995  11.950  20.398  0.00  0.00    +0.000 A 
ATOM     28  C   UNL     1      10.858  13.198  19.803  0.00  0.00    +0.000 A 
ATOM     29  F   UNL     1      11.556  14.235  20.281  0.00  0.00    +0.000 F 
ATOM     30  C   UNL     1      10.003  13.382  18.725  0.00  0.00    +0.000 A 
ATOM     31  C   UNL     1       9.267  12.300  18.236  0.00  0.00    +0.000 A 
ENDBRANCH  23  25
ENDBRANCH  19  20
ENDBRANCH   6  19
TORSDOF 4
ENDMDL
MODEL 5
REMARK VINA RESULT:      -8.2      4.613      7.360
REMARK  Name = 
REMARK  5 active torsions:
REMARK  status: ('A' for Active; 'I' for Inactive)
REMARK    1  A    between atoms: C_1  and  C_2
REMARK    2  A    between atoms: C_2  and  C_3
REMARK    3  A    between atoms: N_15  and  C_16
REMARK    4  A    between atoms: C_16  and  C_17
REMARK    5  A    between atoms: C_20  and  C_21
REMARK                            x       y       z     vdW  Elec       q    Type
REMARK                         _______ _______ _______ _____ _____    ______ ____
ROOT
ATOM      1  C   UNL     1       3.768   1.186  18.076  0.00  0.00    +0.000 C 
ATOM      2  C   UNL     1       3.532   2.418  18.935  0.00  0.00    +0.000 C 
ATOM      3  N   UNL     1       3.578   2.109  20.352  0.00  0.00    +0.000 N 
ATOM      4  C   UNL     1       2.600   2.781  21.050  0.00  0.00    +0.000 C 
ATOM      5  O   UNL     1       2.564   2.857  22.266  0.00  0.00    +0.000 OA
ATOM      6  N   UNL     1       1.734   3.320  20.159  0.00  0.00    +0.000 N 
ATOM      7  C   UNL     1       2.068   2.936  18.892  0.00  0.00    +0.000 C 
ATOM      8  O   UNL     1       1.386   3.103  17.889  0.00  0.00    +0.000 OA
ATOM      9  H   UNL     1       4.378   1.738  20.846  0.00  0.00    +0.000 HD
ENDROOT
BRANCH   2  10
ATOM     10  C   UNL     1       4.495   3.556  18.560  0.00  0.00    +0.000 A 
ATOM     11  C   UNL     1       5.207   4.284  19.542  0.00  0.00    +0.000 A 
ATOM     12  C   UNL     1       6.063   5.339  19.194  0.00  0.00    +0.000 A 
ATOM     13  C   UNL     1       6.218   5.654  17.857  0.00  0.00    +0.000 A 
ATOM     14  C   UNL     1       5.529   4.946  16.874  0.00  0.00    +0.000 A 
ATOM     15  C   UNL     1       4.687   3.900  17.204  0.00  0.00    +0.000 A 
ATOM     16  C   UNL     1       5.799   5.509  15.514  0.00  0.00    +0.000 C 
ATOM     17  C   UNL     1       7.099   6.279  15.776  0.00  0.00    +0.000 C 
ATOM     18  C   UNL     1       7.045   6.740  17.242  0.00  0.00    +0.000 C 
ENDBRANCH   2  10
BRANCH   6  19
ATOM     19  C   UNL     1       0.698   4.269  20.481  0.00  0.00    +0.000 C 
BRANCH  19  20
ATOM     20  C   UNL     1       1.143   5.682  20.406  0.00  0.00    +0.000 A 
ATOM     21  N   UNL     1       2.304   6.133  19.973  0.00  0.00    +0.000 NA
ATOM     22  C   UNL     1       2.246   7.476  20.231  0.00  0.00    +0.000 A 
ATOM     23  C   UNL     1       1.043   7.801  20.818  0.00  0.00    +0.000 A 
ATOM     24  O   UNL     1       0.322   6.642  20.930  0.00  0.00    +0.000 OA
BRANCH  23  25
ATOM     25  C   UNL     1       0.440   9.022  21.329  0.00  0.00    +0.000 A 
ATOM     26  C   UNL     1       0.223  10.111  20.469  0.00  0.00    +0.000 A 
ATOM     27  C   UNL     1      -0.332  11.298  20.949  0.00  0.00    +0.000 A 
ATOM     28  C   UNL     1      -0.677  11.402  22.290  0.00  0.00    +0.000 A 
ATOM     29  F   UNL     1      -1.201  12.544  22.749  0.00  0.00    +0.000 F 
ATOM     30  C   UNL     1      -0.480  10.337  23.159  0.00  0.00    +0.000 A 
ATOM     31  C   UNL     1       0.078   9.149  22.680  0.00  0.00    +0.000 A 
ENDBRANCH  23  25
ENDBRANCH  19  20
ENDBRANCH   6  19
TORSDOF 4
ENDMDL
MODEL 6
REMARK VINA RESULT:      -8.1      6.020      9.193
REMARK  Name = 
REMARK  5 active torsions:
REMARK  status: ('A' for Active; 'I' for Inactive)
REMARK    1  A    between atoms: C_1  and  C_2
REMARK    2  A    between atoms: C_2  and  C_3
REMARK    3  A    between atoms: N_15  and  C_16
REMARK    4  A    between atoms: C_16  and  C_17
REMARK    5  A    between atoms: C_20  and  C_21
REMARK                            x       y       z     vdW  Elec       q    Type
REMARK                         _______ _______ _______ _____ _____    ______ ____
ROOT
ATOM      1  C   UNL     1      -2.864  11.453  16.271  0.00  0.00    +0.000 C 
ATOM      2  C   UNL     1      -2.246  11.689  17.640  0.00  0.00    +0.000 C 
ATOM      3  N   UNL     1      -1.232  12.726  17.608  0.00  0.00    +0.000 N 
ATOM      4  C   UNL     1      -0.145  12.397  18.385  0.00  0.00    +0.000 C 
ATOM      5  O   UNL     1       0.734  13.184  18.690  0.00  0.00    +0.000 OA
ATOM      6  N   UNL     1      -0.247  11.091  18.731  0.00  0.00    +0.000 N 
ATOM      7  C   UNL     1      -1.329  10.530  18.117  0.00  0.00    +0.000 C 
ATOM      8  O   UNL     1      -1.591   9.334  18.080  0.00  0.00    +0.000 OA
ATOM      9  H   UNL     1      -1.388  13.691  17.350  0.00  0.00    +0.000 HD
ENDROOT
BRANCH   2  10
ATOM     10  C   UNL     1      -3.325  11.967  18.701  0.00  0.00    +0.000 A 
ATOM     11  C   UNL     1      -3.017  12.604  19.927  0.00  0.00    +0.000 A 
ATOM     12  C   UNL     1      -4.000  12.829  20.901  0.00  0.00    +0.000 A 
ATOM     13  C   UNL     1      -5.298  12.430  20.639  0.00  0.00    +0.000 A 
ATOM     14  C   UNL     1      -5.622  11.805  19.436  0.00  0.00    +0.000 A 
ATOM     15  C   UNL     1      -4.662  11.582  18.465  0.00  0.00    +0.000 A 
ATOM     16  C   UNL     1      -7.062  11.402  19.408  0.00  0.00    +0.000 C 
ATOM     17  C   UNL     1      -7.635  12.312  20.501  0.00  0.00    +0.000 C 
ATOM     18  C   UNL     1      -6.504  12.536  21.519  0.00  0.00    +0.000 C 
ENDBRANCH   2  10
BRANCH   6  19
ATOM     19  C   UNL     1       0.578  10.427  19.707  0.00  0.00    +0.000 C 
BRANCH  19  20
ATOM     20  C   UNL     1       1.443   9.368  19.132  0.00  0.00    +0.000 A 
ATOM     21  N   UNL     1       2.000   9.352  17.936  0.00  0.00    +0.000 NA
ATOM     22  C   UNL     1       2.580   8.114  17.865  0.00  0.00    +0.000 A 
ATOM     23  C   UNL     1       2.355   7.411  19.028  0.00  0.00    +0.000 A 
ATOM     24  O   UNL     1       1.622   8.221  19.855  0.00  0.00    +0.000 OA
BRANCH  23  25
ATOM     25  C   UNL     1       2.686   6.079  19.510  0.00  0.00    +0.000 A 
ATOM     26  C   UNL     1       3.791   5.395  18.977  0.00  0.00    +0.000 A 
ATOM     27  C   UNL     1       4.107   4.107  19.412  0.00  0.00    +0.000 A 
ATOM     28  C   UNL     1       3.324   3.498  20.383  0.00  0.00    +0.000 A 
ATOM     29  F   UNL     1       3.625   2.259  20.791  0.00  0.00    +0.000 F 
ATOM     30  C   UNL     1       2.232   4.156  20.931  0.00  0.00    +0.000 A 
ATOM     31  C   UNL     1       1.912   5.445  20.496  0.00  0.00    +0.000 A 
ENDBRANCH  23  25
ENDBRANCH  19  20
ENDBRANCH   6  19
TORSDOF 4
ENDMDL
MODEL 7
REMARK VINA RESULT:      -7.9      0.804      1.691
REMARK  Name = 
REMARK  5 active torsions:
REMARK  status: ('A' for Active; 'I' for Inactive)
REMARK    1  A    between atoms: C_1  and  C_2
REMARK    2  A    between atoms: C_2  and  C_3
REMARK    3  A    between atoms: N_15  and  C_16
REMARK    4  A    between atoms: C_16  and  C_17
REMARK    5  A    between atoms: C_20  and  C_21
REMARK                            x       y       z     vdW  Elec       q    Type
REMARK                         _______ _______ _______ _____ _____    ______ ____
ROOT
ATOM      1  C   UNL     1       4.374   3.064  19.918  0.00  0.00    +0.000 C 
ATOM      2  C   UNL     1       4.674   4.129  18.875  0.00  0.00    +0.000 C 
ATOM      3  N   UNL     1       4.612   3.600  17.525  0.00  0.00    +0.000 N 
ATOM      4  C   UNL     1       5.625   4.101  16.737  0.00  0.00    +0.000 C 
ATOM      5  O   UNL     1       5.665   3.979  15.526  0.00  0.00    +0.000 OA
ATOM      6  N   UNL     1       6.518   4.730  17.539  0.00  0.00    +0.000 N 
ATOM      7  C   UNL     1       6.163   4.571  18.847  0.00  0.00    +0.000 C 
ATOM      8  O   UNL     1       6.852   4.861  19.817  0.00  0.00    +0.000 OA
ATOM      9  H   UNL     1       3.795   3.197  17.090  0.00  0.00    +0.000 HD
ENDROOT
BRANCH   2  10
ATOM     10  C   UNL     1       3.771   5.360  19.056  0.00  0.00    +0.000 A 
ATOM     11  C   UNL     1       2.936   5.511  20.188  0.00  0.00    +0.000 A 
ATOM     12  C   UNL     1       2.094   6.623  20.333  0.00  0.00    +0.000 A 
ATOM     13  C   UNL     1       2.102   7.594  19.349  0.00  0.00    +0.000 A 
ATOM     14  C   UNL     1       2.922   7.467  18.229  0.00  0.00    +0.000 A 
ATOM     15  C   UNL     1       3.760   6.377  18.077  0.00  0.00    +0.000 A 
ATOM     16  C   UNL     1       2.708   8.597  17.272  0.00  0.00    +0.000 C 
ATOM     17  C   UNL     1       2.062   9.636  18.197  0.00  0.00    +0.000 C 
ATOM     18  C   UNL     1       1.286   8.846  19.264  0.00  0.00    +0.000 C 
ENDBRANCH   2  10
BRANCH   6  19
ATOM     19  C   UNL     1       7.601   5.560  17.079  0.00  0.00    +0.000 C 
BRANCH  19  20
ATOM     20  C   UNL     1       7.415   7.001  17.379  0.00  0.00    +0.000 A 
ATOM     21  N   UNL     1       6.400   7.767  17.027  0.00  0.00    +0.000 NA
ATOM     22  C   UNL     1       6.779   9.016  17.441  0.00  0.00    +0.000 A 
ATOM     23  C   UNL     1       8.021   8.969  18.034  0.00  0.00    +0.000 A 
ATOM     24  O   UNL     1       8.437   7.664  18.001  0.00  0.00    +0.000 OA
BRANCH  23  25
ATOM     25  C   UNL     1       8.923   9.949  18.618  0.00  0.00    +0.000 A 
ATOM     26  C   UNL     1       8.939  10.149  20.008  0.00  0.00    +0.000 A 
ATOM     27  C   UNL     1       9.782  11.102  20.581  0.00  0.00    +0.000 A 
ATOM     28  C   UNL     1      10.616  11.858  19.769  0.00  0.00    +0.000 A 
ATOM     29  F   UNL     1      11.416  12.778  20.321  0.00  0.00    +0.000 F 
ATOM     30  C   UNL     1      10.625  11.675  18.393  0.00  0.00    +0.000 A 
ATOM     31  C   UNL     1       9.781  10.722  17.818  0.00  0.00    +0.000 A 
ENDBRANCH  23  25
ENDBRANCH  19  20
ENDBRANCH   6  19
TORSDOF 4
ENDMDL
MODEL 8
REMARK VINA RESULT:      -7.9      5.854      9.091
REMARK  Name = 
REMARK  5 active torsions:
REMARK  status: ('A' for Active; 'I' for Inactive)
REMARK    1  A    between atoms: C_1  and  C_2
REMARK    2  A    between atoms: C_2  and  C_3
REMARK    3  A    between atoms: N_15  and  C_16
REMARK    4  A    between atoms: C_16  and  C_17
REMARK    5  A    between atoms: C_20  and  C_21
REMARK                            x       y       z     vdW  Elec       q    Type
REMARK                         _______ _______ _______ _____ _____    ______ ____
ROOT
ATOM      1  C   UNL     1      -3.076  11.454  16.604  0.00  0.00    +0.000 C 
ATOM      2  C   UNL     1      -2.330  11.713  17.903  0.00  0.00    +0.000 C 
ATOM      3  N   UNL     1      -1.297  12.720  17.744  0.00  0.00    +0.000 N 
ATOM      4  C   UNL     1      -0.151  12.383  18.430  0.00  0.00    +0.000 C 
ATOM      5  O   UNL     1       0.772  13.153  18.628  0.00  0.00    +0.000 OA
ATOM      6  N   UNL     1      -0.255  11.091  18.826  0.00  0.00    +0.000 N 
ATOM      7  C   UNL     1      -1.403  10.543  18.332  0.00  0.00    +0.000 C 
ATOM      8  O   UNL     1      -1.698   9.355  18.357  0.00  0.00    +0.000 OA
ATOM      9  H   UNL     1      -1.451  13.680  17.471  0.00  0.00    +0.000 HD
ENDROOT
BRANCH   2  10
ATOM     10  C   UNL     1      -3.299  12.054  19.047  0.00  0.00    +0.000 A 
ATOM     11  C   UNL     1      -4.700  11.922  18.900  0.00  0.00    +0.000 A 
ATOM     12  C   UNL     1      -5.579  12.260  19.939  0.00  0.00    +0.000 A 
ATOM     13  C   UNL     1      -5.052  12.717  21.132  0.00  0.00    +0.000 A 
ATOM     14  C   UNL     1      -3.674  12.850  21.298  0.00  0.00    +0.000 A 
ATOM     15  C   UNL     1      -2.797  12.514  20.284  0.00  0.00    +0.000 A 
ATOM     16  C   UNL     1      -3.345  13.426  22.639  0.00  0.00    +0.000 C 
ATOM     17  C   UNL     1      -4.642  13.130  23.403  0.00  0.00    +0.000 C 
ATOM     18  C   UNL     1      -5.776  13.160  22.365  0.00  0.00    +0.000 C 
ENDBRANCH   2  10
BRANCH   6  19
ATOM     19  C   UNL     1       0.639  10.433  19.744  0.00  0.00    +0.000 C 
BRANCH  19  20
ATOM     20  C   UNL     1       1.495   9.404  19.105  0.00  0.00    +0.000 A 
ATOM     21  N   UNL     1       2.016   9.436  17.893  0.00  0.00    +0.000 NA
ATOM     22  C   UNL     1       2.603   8.207  17.760  0.00  0.00    +0.000 A 
ATOM     23  C   UNL     1       2.418   7.460  18.903  0.00  0.00    +0.000 A 
ATOM     24  O   UNL     1       1.704   8.233  19.780  0.00  0.00    +0.000 OA
BRANCH  23  25
ATOM     25  C   UNL     1       2.773   6.115  19.325  0.00  0.00    +0.000 A 
ATOM     26  C   UNL     1       1.946   5.418  20.221  0.00  0.00    +0.000 A 
ATOM     27  C   UNL     1       2.286   4.136  20.654  0.00  0.00    +0.000 A 
ATOM     28  C   UNL     1       3.452   3.541  20.191  0.00  0.00    +0.000 A 
ATOM     29  F   UNL     1       3.780   2.315  20.616  0.00  0.00    +0.000 F 
ATOM     30  C   UNL     1       4.283   4.205  19.299  0.00  0.00    +0.000 A 
ATOM     31  C   UNL     1       3.945   5.490  18.866  0.00  0.00    +0.000 A 
ENDBRANCH  23  25
ENDBRANCH  19  20
ENDBRANCH   6  19
TORSDOF 4
ENDMDL
MODEL 9
REMARK VINA RESULT:      -7.8      4.784      7.698
REMARK  Name = 
REMARK  5 active torsions:
REMARK  status: ('A' for Active; 'I' for Inactive)
REMARK    1  A    between atoms: C_1  and  C_2
REMARK    2  A    between atoms: C_2  and  C_3
REMARK    3  A    between atoms: N_15  and  C_16
REMARK    4  A    between atoms: C_16  and  C_17
REMARK    5  A    between atoms: C_20  and  C_21
REMARK                            x       y       z     vdW  Elec       q    Type
REMARK                         _______ _______ _______ _____ _____    ______ ____
ROOT
ATOM      1  C   UNL     1       4.396   2.026  17.401  0.00  0.00    +0.000 C 
ATOM      2  C   UNL     1       4.803   3.490  17.422  0.00  0.00    +0.000 C 
ATOM      3  N   UNL     1       5.528   3.836  18.630  0.00  0.00    +0.000 N 
ATOM      4  C   UNL     1       5.148   5.068  19.115  0.00  0.00    +0.000 C 
ATOM      5  O   UNL     1       5.753   5.670  19.985  0.00  0.00    +0.000 OA
ATOM      6  N   UNL     1       4.029   5.457  18.459  0.00  0.00    +0.000 N 
ATOM      7  C   UNL     1       3.610   4.465  17.620  0.00  0.00    +0.000 C 
ATOM      8  O   UNL     1       2.539   4.433  17.027  0.00  0.00    +0.000 OA
ATOM      9  H   UNL     1       6.409   3.436  18.920  0.00  0.00    +0.000 HD
ENDROOT
BRANCH   2  10
ATOM     10  C   UNL     1       5.580   3.873  16.151  0.00  0.00    +0.000 A 
ATOM     11  C   UNL     1       6.717   4.714  16.198  0.00  0.00    +0.000 A 
ATOM     12  C   UNL     1       7.404   5.082  15.033  0.00  0.00    +0.000 A 
ATOM     13  C   UNL     1       6.959   4.593  13.818  0.00  0.00    +0.000 A 
ATOM     14  C   UNL     1       5.844   3.760  13.751  0.00  0.00    +0.000 A 
ATOM     15  C   UNL     1       5.161   3.386  14.894  0.00  0.00    +0.000 A 
ATOM     16  C   UNL     1       5.511   3.417  12.333  0.00  0.00    +0.000 C 
ATOM     17  C   UNL     1       6.846   3.723  11.644  0.00  0.00    +0.000 C 
ATOM     18  C   UNL     1       7.502   4.858  12.449  0.00  0.00    +0.000 C 
ENDBRANCH   2  10
BRANCH   6  19
ATOM     19  C   UNL     1       3.445   6.772  18.529  0.00  0.00    +0.000 C 
BRANCH  19  20
ATOM     20  C   UNL     1       2.484   6.937  19.647  0.00  0.00    +0.000 A 
ATOM     21  N   UNL     1       1.929   5.983  20.372  0.00  0.00    +0.000 NA
ATOM     22  C   UNL     1       1.043   6.657  21.169  0.00  0.00    +0.000 A 
ATOM     23  C   UNL     1       1.086   8.008  20.900  0.00  0.00    +0.000 A 
ATOM     24  O   UNL     1       2.022   8.195  19.918  0.00  0.00    +0.000 OA
BRANCH  23  25
ATOM     25  C   UNL     1       0.377   9.180  21.388  0.00  0.00    +0.000 A 
ATOM     26  C   UNL     1       0.231  10.307  20.563  0.00  0.00    +0.000 A 
ATOM     27  C   UNL     1      -0.425  11.448  21.025  0.00  0.00    +0.000 A 
ATOM     28  C   UNL     1      -0.943  11.468  22.313  0.00  0.00    +0.000 A 
ATOM     29  F   UNL     1      -1.564  12.567  22.757  0.00  0.00    +0.000 F 
ATOM     30  C   UNL     1      -0.819  10.365  23.146  0.00  0.00    +0.000 A 
ATOM     31  C   UNL     1      -0.160   9.222  22.685  0.00  0.00    +0.000 A 
ENDBRANCH  23  25
ENDBRANCH  19  20
ENDBRANCH   6  19
TORSDOF 4
ENDMDL
