MODEL 1
REMARK VINA RESULT:      -8.8      0.000      0.000
REMARK  Name = 
REMARK  5 active torsions:
REMARK  status: ('A' for Active; 'I' for Inactive)
REMARK    1  A    between atoms: C_8  and  N_9
REMARK    2  A    between atoms: N_9  and  C_10
REMARK    3  A    between atoms: C_10  and  C_11
REMARK    4  A    between atoms: C_13  and  C_14
REMARK    5  A    between atoms: C_17  and  C_18
REMARK                            x       y       z     vdW  Elec       q    Type
REMARK                         _______ _______ _______ _____ _____    ______ ____
ROOT
ATOM      1  C   UNL     1       7.436   6.250  17.983  0.00  0.00    +0.000 A 
ATOM      2  N   UNL     1       8.160   7.122  18.641  0.00  0.00    +0.000 NA
ATOM      3  C   UNL     1       7.912   8.283  17.951  0.00  0.00    +0.000 A 
ATOM      4  N   UNL     1       7.086   8.136  16.902  0.00  0.00    +0.000 NA
ATOM      5  O   UNL     1       6.785   6.778  16.911  0.00  0.00    +0.000 OA
ENDROOT
BRANCH   3   6
ATOM      6  C   UNL     1       8.521   9.537  18.347  0.00  0.00    +0.000 A 
ATOM      7  C   UNL     1       8.362  10.671  17.542  0.00  0.00    +0.000 A 
ATOM      8  C   UNL     1       8.935  11.885  17.914  0.00  0.00    +0.000 A 
ATOM      9  C   UNL     1       9.690  11.980  19.092  0.00  0.00    +0.000 A 
ATOM     10  C   UNL     1       9.844  10.841  19.899  0.00  0.00    +0.000 A 
ATOM     11  C   UNL     1       9.268   9.627  19.527  0.00  0.00    +0.000 A 
BRANCH   9  12
ATOM     12  C   UNL     1      10.333  13.283  19.495  0.00  0.00    +0.000 C 
ATOM     13  F   UNL     1       9.751  13.851  20.586  0.00  0.00    +0.000 F 
ATOM     14  F   UNL     1      11.652  13.139  19.805  0.00  0.00    +0.000 F 
ATOM     15  F   UNL     1      10.281  14.225  18.512  0.00  0.00    +0.000 F 
ENDBRANCH   9  12
ENDBRANCH   3   6
BRANCH   1  16
ATOM     16  C   UNL     1       7.262   4.797  18.240  0.00  0.00    +0.000 C 
BRANCH  16  17
ATOM     17  N   UNL     1       6.151   4.210  17.504  0.00  0.00    +0.000 N 
ATOM     18  H   UNL     1       6.415   3.596  16.740  0.00  0.00    +0.000 HD
BRANCH  17  26
ATOM     19  O   UNL     1       3.408   2.208  21.743  0.00  0.00    +0.000 OA
ATOM     20  C   UNL     1       2.782   2.848  20.933  0.00  0.00    +0.000 C 
ATOM     21  N   UNL     1       1.436   3.152  20.961  0.00  0.00    +0.000 N 
ATOM     22  C   UNL     1       1.008   3.944  19.834  0.00  0.00    +0.000 C 
ATOM     23  C   UNL     1       2.267   4.093  19.049  0.00  0.00    +0.000 A 
ATOM     24  C   UNL     1       2.502   4.742  17.856  0.00  0.00    +0.000 A 
ATOM     25  C   UNL     1       3.812   4.732  17.352  0.00  0.00    +0.000 A 
ATOM     26  C   UNL     1       4.877   4.080  18.021  0.00  0.00    +0.000 A 
ATOM     27  C   UNL     1       4.610   3.439  19.233  0.00  0.00    +0.000 A 
ATOM     28  C   UNL     1       3.314   3.454  19.708  0.00  0.00    +0.000 A 
ATOM     29  H   UNL     1       0.848   2.833  21.718  0.00  0.00    +0.000 HD
ENDBRANCH  17  26
ENDBRANCH  16  17
ENDBRANCH   1  16
TORSDOF 5
ENDMDL
MODEL 2
REMARK VINA RESULT:      -8.7      0.911      1.148
REMARK  Name = 
REMARK  5 active torsions:
REMARK  status: ('A' for Active; 'I' for Inactive)
REMARK    1  A    between atoms: C_8  and  N_9
REMARK    2  A    between atoms: N_9  and  C_10
REMARK    3  A    between atoms: C_10  and  C_11
REMARK    4  A    between atoms: C_13  and  C_14
REMARK    5  A    between atoms: C_17  and  C_18
REMARK                            x       y       z     vdW  Elec       q    Type
REMARK                         _______ _______ _______ _____ _____    ______ ____
ROOT
ATOM      1  C   UNL     1       7.446   6.573  17.931  0.00  0.00    +0.000 A 
ATOM      2  N   UNL     1       8.278   7.314  18.622  0.00  0.00    +0.000 NA
ATOM      3  C   UNL     1       8.074   8.560  18.081  0.00  0.00    +0.000 A 
ATOM      4  N   UNL     1       7.170   8.590  17.089  0.00  0.00    +0.000 NA
ATOM      5  O   UNL     1       6.766   7.263  16.974  0.00  0.00    +0.000 OA
ENDROOT
BRANCH   3   6
ATOM      6  C   UNL     1       8.803   9.716  18.563  0.00  0.00    +0.000 A 
ATOM      7  C   UNL     1       9.243  10.687  17.654  0.00  0.00    +0.000 A 
ATOM      8  C   UNL     1       9.939  11.807  18.103  0.00  0.00    +0.000 A 
ATOM      9  C   UNL     1      10.218  11.967  19.468  0.00  0.00    +0.000 A 
ATOM     10  C   UNL     1       9.772  10.993  20.376  0.00  0.00    +0.000 A 
ATOM     11  C   UNL     1       9.075   9.873  19.926  0.00  0.00    +0.000 A 
BRANCH   9  12
ATOM     12  C   UNL     1      10.989  13.164  19.964  0.00  0.00    +0.000 C 
ATOM     13  F   UNL     1      10.818  14.269  19.188  0.00  0.00    +0.000 F 
ATOM     14  F   UNL     1      10.627  13.531  21.225  0.00  0.00    +0.000 F 
ATOM     15  F   UNL     1      12.333  12.946  20.010  0.00  0.00    +0.000 F 
ENDBRANCH   9  12
ENDBRANCH   3   6
BRANCH   1  16
ATOM     16  C   UNL     1       7.178   5.117  18.043  0.00  0.00    +0.000 C 
BRANCH  16  17
ATOM     17  N   UNL     1       6.321   4.773  19.169  0.00  0.00    +0.000 N 
ATOM     18  H   UNL     1       6.551   5.233  20.044  0.00  0.00    +0.000 HD
BRANCH  17  26
ATOM     19  O   UNL     1       1.984   3.181  22.026  0.00  0.00    +0.000 OA
ATOM     20  C   UNL     1       1.877   3.198  20.823  0.00  0.00    +0.000 C 
ATOM     21  N   UNL     1       0.764   2.873  20.074  0.00  0.00    +0.000 N 
ATOM     22  C   UNL     1       0.976   3.007  18.654  0.00  0.00    +0.000 C 
ATOM     23  C   UNL     1       2.400   3.445  18.580  0.00  0.00    +0.000 A 
ATOM     24  C   UNL     1       3.190   3.729  17.487  0.00  0.00    +0.000 A 
ATOM     25  C   UNL     1       4.510   4.141  17.723  0.00  0.00    +0.000 A 
ATOM     26  C   UNL     1       5.045   4.262  19.029  0.00  0.00    +0.000 A 
ATOM     27  C   UNL     1       4.217   3.977  20.118  0.00  0.00    +0.000 A 
ATOM     28  C   UNL     1       2.924   3.567  19.864  0.00  0.00    +0.000 A 
ATOM     29  H   UNL     1      -0.092   2.578  20.520  0.00  0.00    +0.000 HD
ENDBRANCH  17  26
ENDBRANCH  16  17
ENDBRANCH   1  16
TORSDOF 5
ENDMDL
MODEL 3
REMARK VINA RESULT:      -8.7      5.481     10.324
REMARK  Name = 
REMARK  5 active torsions:
REMARK  status: ('A' for Active; 'I' for Inactive)
REMARK    1  A    between atoms: C_8  and  N_9
REMARK    2  A    between atoms: N_9  and  C_10
REMARK    3  A    between atoms: C_10  and  C_11
REMARK    4  A    between atoms: C_13  and  C_14
REMARK    5  A    between atoms: C_17  and  C_18
REMARK                            x       y       z     vdW  Elec       q    Type
REMARK                         _______ _______ _______ _____ _____    ______ ____
ROOT
ATOM      1  C   UNL     1       7.498   7.127  18.076  0.00  0.00    +0.000 A 
ATOM      2  N   UNL     1       6.257   6.743  17.898  0.00  0.00    +0.000 NA
ATOM      3  C   UNL     1       6.158   5.677  18.759  0.00  0.00    +0.000 A 
ATOM      4  N   UNL     1       7.289   5.401  19.428  0.00  0.00    +0.000 NA
ATOM      5  O   UNL     1       8.188   6.353  18.958  0.00  0.00    +0.000 OA
ENDROOT
BRANCH   3   6
ATOM      6  C   UNL     1       4.922   4.934  18.894  0.00  0.00    +0.000 A 
ATOM      7  C   UNL     1       4.956   3.606  19.340  0.00  0.00    +0.000 A 
ATOM      8  C   UNL     1       3.775   2.881  19.482  0.00  0.00    +0.000 A 
ATOM      9  C   UNL     1       2.541   3.469  19.166  0.00  0.00    +0.000 A 
ATOM     10  C   UNL     1       2.511   4.801  18.723  0.00  0.00    +0.000 A 
ATOM     11  C   UNL     1       3.693   5.526  18.583  0.00  0.00    +0.000 A 
BRANCH   9  12
ATOM     12  C   UNL     1       1.257   2.688  19.295  0.00  0.00    +0.000 C 
ATOM     13  F   UNL     1       0.556   2.995  20.420  0.00  0.00    +0.000 F 
ATOM     14  F   UNL     1       0.409   2.905  18.252  0.00  0.00    +0.000 F 
ATOM     15  F   UNL     1       1.460   1.341  19.337  0.00  0.00    +0.000 F 
ENDBRANCH   9  12
ENDBRANCH   3   6
BRANCH   1  16
ATOM     16  C   UNL     1       8.228   8.251  17.437  0.00  0.00    +0.000 C 
BRANCH  16  17
ATOM     17  N   UNL     1       8.023   9.527  18.108  0.00  0.00    +0.000 N 
ATOM     18  H   UNL     1       7.125   9.634  18.570  0.00  0.00    +0.000 HD
BRANCH  17  26
ATOM     19  O   UNL     1      11.548  13.235  16.282  0.00  0.00    +0.000 OA
ATOM     20  C   UNL     1      11.529  13.030  17.472  0.00  0.00    +0.000 C 
ATOM     21  N   UNL     1      12.295  13.644  18.443  0.00  0.00    +0.000 N 
ATOM     22  C   UNL     1      12.016  13.164  19.774  0.00  0.00    +0.000 C 
ATOM     23  C   UNL     1      10.973  12.127  19.531  0.00  0.00    +0.000 A 
ATOM     24  C   UNL     1      10.311  11.304  20.417  0.00  0.00    +0.000 A 
ATOM     25  C   UNL     1       9.351  10.422  19.898  0.00  0.00    +0.000 A 
ATOM     26  C   UNL     1       9.055  10.351  18.515  0.00  0.00    +0.000 A 
ATOM     27  C   UNL     1       9.734  11.204  17.643  0.00  0.00    +0.000 A 
ATOM     28  C   UNL     1      10.681  12.060  18.172  0.00  0.00    +0.000 A 
ATOM     29  H   UNL     1      12.969  14.355  18.198  0.00  0.00    +0.000 HD
ENDBRANCH  17  26
ENDBRANCH  16  17
ENDBRANCH   1  16
TORSDOF 5
ENDMDL
MODEL 4
REMARK VINA RESULT:      -8.6      7.152      9.032
REMARK  Name = 
REMARK  5 active torsions:
REMARK  status: ('A' for Active; 'I' for Inactive)
REMARK    1  A    between atoms: C_8  and  N_9
REMARK    2  A    between atoms: N_9  and  C_10
REMARK    3  A    between atoms: C_10  and  C_11
REMARK    4  A    between atoms: C_13  and  C_14
REMARK    5  A    between atoms: C_17  and  C_18
REMARK                            x       y       z     vdW  Elec       q    Type
REMARK                         _______ _______ _______ _____ _____    ______ ____
ROOT
ATOM      1  C   UNL     1       1.495   8.218  19.917  0.00  0.00    +0.000 A 
ATOM      2  N   UNL     1       2.153   8.040  18.797  0.00  0.00    +0.000 NA
ATOM      3  C   UNL     1       2.689   6.788  18.972  0.00  0.00    +0.000 A 
ATOM      4  N   UNL     1       2.390   6.220  20.152  0.00  0.00    +0.000 NA
ATOM      5  O   UNL     1       1.612   7.180  20.790  0.00  0.00    +0.000 OA
ENDROOT
BRANCH   3   6
ATOM      6  C   UNL     1       3.511   6.173  17.949  0.00  0.00    +0.000 A 
ATOM      7  C   UNL     1       3.455   4.787  17.754  0.00  0.00    +0.000 A 
ATOM      8  C   UNL     1       4.234   4.183  16.770  0.00  0.00    +0.000 A 
ATOM      9  C   UNL     1       5.092   4.955  15.973  0.00  0.00    +0.000 A 
ATOM     10  C   UNL     1       5.141   6.345  16.169  0.00  0.00    +0.000 A 
ATOM     11  C   UNL     1       4.361   6.948  17.153  0.00  0.00    +0.000 A 
BRANCH   9  12
ATOM     12  C   UNL     1       5.955   4.311  14.918  0.00  0.00    +0.000 C 
ATOM     13  F   UNL     1       5.358   4.260  13.696  0.00  0.00    +0.000 F 
ATOM     14  F   UNL     1       7.132   4.971  14.734  0.00  0.00    +0.000 F 
ATOM     15  F   UNL     1       6.292   3.026  15.223  0.00  0.00    +0.000 F 
ENDBRANCH   9  12
ENDBRANCH   3   6
BRANCH   1  16
ATOM     16  C   UNL     1       0.680   9.383  20.346  0.00  0.00    +0.000 C 
BRANCH  16  17
ATOM     17  N   UNL     1       0.514  10.386  19.304  0.00  0.00    +0.000 N 
ATOM     18  H   UNL     1       1.327  10.535  18.713  0.00  0.00    +0.000 HD
BRANCH  17  26
ATOM     19  O   UNL     1      -2.936   9.613  15.180  0.00  0.00    +0.000 OA
ATOM     20  C   UNL     1      -3.308  10.319  16.087  0.00  0.00    +0.000 C 
ATOM     21  N   UNL     1      -4.529  10.949  16.213  0.00  0.00    +0.000 N 
ATOM     22  C   UNL     1      -4.649  11.717  17.429  0.00  0.00    +0.000 C 
ATOM     23  C   UNL     1      -3.318  11.516  18.069  0.00  0.00    +0.000 A 
ATOM     24  C   UNL     1      -2.816  12.007  19.255  0.00  0.00    +0.000 A 
ATOM     25  C   UNL     1      -1.514  11.632  19.620  0.00  0.00    +0.000 A 
ATOM     26  C   UNL     1      -0.715  10.785  18.815  0.00  0.00    +0.000 A 
ATOM     27  C   UNL     1      -1.254  10.294  17.624  0.00  0.00    +0.000 A 
ATOM     28  C   UNL     1      -2.534  10.680  17.279  0.00  0.00    +0.000 A 
ATOM     29  H   UNL     1      -5.238  10.853  15.501  0.00  0.00    +0.000 HD
ENDBRANCH  17  26
ENDBRANCH  16  17
ENDBRANCH   1  16
TORSDOF 5
ENDMDL
MODEL 5
REMARK VINA RESULT:      -8.6      5.541     10.352
REMARK  Name = 
REMARK  5 active torsions:
REMARK  status: ('A' for Active; 'I' for Inactive)
REMARK    1  A    between atoms: C_8  and  N_9
REMARK    2  A    between atoms: N_9  and  C_10
REMARK    3  A    between atoms: C_10  and  C_11
REMARK    4  A    between atoms: C_13  and  C_14
REMARK    5  A    between atoms: C_17  and  C_18
REMARK                            x       y       z     vdW  Elec       q    Type
REMARK                         _______ _______ _______ _____ _____    ______ ____
ROOT
ATOM      1  C   UNL     1       7.139   7.227  17.777  0.00  0.00    +0.000 A 
ATOM      2  N   UNL     1       6.415   6.424  18.518  0.00  0.00    +0.000 NA
ATOM      3  C   UNL     1       5.426   6.039  17.646  0.00  0.00    +0.000 A 
ATOM      4  N   UNL     1       5.522   6.589  16.425  0.00  0.00    +0.000 NA
ATOM      5  O   UNL     1       6.651   7.396  16.517  0.00  0.00    +0.000 OA
ENDROOT
BRANCH   3   6
ATOM      6  C   UNL     1       4.381   5.123  18.055  0.00  0.00    +0.000 A 
ATOM      7  C   UNL     1       3.038   5.494  17.910  0.00  0.00    +0.000 A 
ATOM      8  C   UNL     1       2.021   4.621  18.291  0.00  0.00    +0.000 A 
ATOM      9  C   UNL     1       2.333   3.367  18.838  0.00  0.00    +0.000 A 
ATOM     10  C   UNL     1       3.681   2.998  18.978  0.00  0.00    +0.000 A 
ATOM     11  C   UNL     1       4.697   3.871  18.595  0.00  0.00    +0.000 A 
BRANCH   9  12
ATOM     12  C   UNL     1       1.242   2.422  19.275  0.00  0.00    +0.000 C 
ATOM     13  F   UNL     1       0.217   2.341  18.384  0.00  0.00    +0.000 F 
ATOM     14  F   UNL     1       1.694   1.148  19.444  0.00  0.00    +0.000 F 
ATOM     15  F   UNL     1       0.677   2.779  20.462  0.00  0.00    +0.000 F 
ENDBRANCH   9  12
ENDBRANCH   3   6
BRANCH   1  16
ATOM     16  C   UNL     1       8.375   7.968  18.136  0.00  0.00    +0.000 C 
BRANCH  16  17
ATOM     17  N   UNL     1       8.256   9.409  17.958  0.00  0.00    +0.000 N 
ATOM     18  H   UNL     1       7.317   9.745  17.765  0.00  0.00    +0.000 HD
BRANCH  17  26
ATOM     19  O   UNL     1      11.667  13.340  16.404  0.00  0.00    +0.000 OA
ATOM     20  C   UNL     1      11.538  13.158  17.591  0.00  0.00    +0.000 C 
ATOM     21  N   UNL     1      12.149  13.849  18.618  0.00  0.00    +0.000 N 
ATOM     22  C   UNL     1      11.768  13.375  19.927  0.00  0.00    +0.000 C 
ATOM     23  C   UNL     1      10.837  12.257  19.606  0.00  0.00    +0.000 A 
ATOM     24  C   UNL     1      10.148  11.403  20.440  0.00  0.00    +0.000 A 
ATOM     25  C   UNL     1       9.317  10.439  19.850  0.00  0.00    +0.000 A 
ATOM     26  C   UNL     1       9.175  10.318  18.446  0.00  0.00    +0.000 A 
ATOM     27  C   UNL     1       9.877  11.203  17.625  0.00  0.00    +0.000 A 
ATOM     28  C   UNL     1      10.695  12.139  18.226  0.00  0.00    +0.000 A 
ATOM     29  H   UNL     1      12.790  14.605  18.425  0.00  0.00    +0.000 HD
ENDBRANCH  17  26
ENDBRANCH  16  17
ENDBRANCH   1  16
TORSDOF 5
ENDMDL
MODEL 6
REMARK VINA RESULT:      -8.6      7.057      8.913
REMARK  Name = 
REMARK  5 active torsions:
REMARK  status: ('A' for Active; 'I' for Inactive)
REMARK    1  A    between atoms: C_8  and  N_9
REMARK    2  A    between atoms: N_9  and  C_10
REMARK    3  A    between atoms: C_10  and  C_11
REMARK    4  A    between atoms: C_13  and  C_14
REMARK    5  A    between atoms: C_17  and  C_18
REMARK                            x       y       z     vdW  Elec       q    Type
REMARK                         _______ _______ _______ _____ _____    ______ ____
ROOT
ATOM      1  C   UNL     1       1.555   8.093  20.134  0.00  0.00    +0.000 A 
ATOM      2  N   UNL     1       2.265   7.987  19.037  0.00  0.00    +0.000 NA
ATOM      3  C   UNL     1       2.661   6.672  19.076  0.00  0.00    +0.000 A 
ATOM      4  N   UNL     1       2.231   5.998  20.154  0.00  0.00    +0.000 NA
ATOM      5  O   UNL     1       1.511   6.949  20.870  0.00  0.00    +0.000 OA
ENDROOT
BRANCH   3   6
ATOM      6  C   UNL     1       3.483   6.105  18.026  0.00  0.00    +0.000 A 
ATOM      7  C   UNL     1       4.316   6.940  17.270  0.00  0.00    +0.000 A 
ATOM      8  C   UNL     1       5.118   6.409  16.262  0.00  0.00    +0.000 A 
ATOM      9  C   UNL     1       5.089   5.033  15.986  0.00  0.00    +0.000 A 
ATOM     10  C   UNL     1       4.256   4.200  16.749  0.00  0.00    +0.000 A 
ATOM     11  C   UNL     1       3.455   4.732  17.758  0.00  0.00    +0.000 A 
BRANCH   9  12
ATOM     12  C   UNL     1       5.936   4.449  14.884  0.00  0.00    +0.000 C 
ATOM     13  F   UNL     1       7.014   5.220  14.572  0.00  0.00    +0.000 F 
ATOM     14  F   UNL     1       6.432   3.221  15.203  0.00  0.00    +0.000 F 
ATOM     15  F   UNL     1       5.248   4.282  13.719  0.00  0.00    +0.000 F 
ENDBRANCH   9  12
ENDBRANCH   3   6
BRANCH   1  16
ATOM     16  C   UNL     1       0.833   9.277  20.667  0.00  0.00    +0.000 C 
BRANCH  16  17
ATOM     17  N   UNL     1       0.697  10.355  19.698  0.00  0.00    +0.000 N 
ATOM     18  H   UNL     1       1.530  10.554  19.153  0.00  0.00    +0.000 HD
BRANCH  17  26
ATOM     19  O   UNL     1      -2.770   9.562  15.593  0.00  0.00    +0.000 OA
ATOM     20  C   UNL     1      -3.120  10.311  16.474  0.00  0.00    +0.000 C 
ATOM     21  N   UNL     1      -4.318  10.987  16.575  0.00  0.00    +0.000 N 
ATOM     22  C   UNL     1      -4.414  11.799  17.764  0.00  0.00    +0.000 C 
ATOM     23  C   UNL     1      -3.091  11.574  18.415  0.00  0.00    +0.000 A 
ATOM     24  C   UNL     1      -2.575  12.088  19.585  0.00  0.00    +0.000 A 
ATOM     25  C   UNL     1      -1.288  11.680  19.966  0.00  0.00    +0.000 A 
ATOM     26  C   UNL     1      -0.517  10.779  19.192  0.00  0.00    +0.000 A 
ATOM     27  C   UNL     1      -1.070  10.267  18.017  0.00  0.00    +0.000 A 
ATOM     28  C   UNL     1      -2.335  10.686  17.655  0.00  0.00    +0.000 A 
ATOM     29  H   UNL     1      -5.029  10.891  15.864  0.00  0.00    +0.000 HD
ENDBRANCH  17  26
ENDBRANCH  16  17
ENDBRANCH   1  16
TORSDOF 5
ENDMDL
MODEL 7
REMARK VINA RESULT:      -8.5      1.491      1.939
REMARK  Name = 
REMARK  5 active torsions:
REMARK  status: ('A' for Active; 'I' for Inactive)
REMARK    1  A    between atoms: C_8  and  N_9
REMARK    2  A    between atoms: N_9  and  C_10
REMARK    3  A    between atoms: C_10  and  C_11
REMARK    4  A    between atoms: C_13  and  C_14
REMARK    5  A    between atoms: C_17  and  C_18
REMARK                            x       y       z     vdW  Elec       q    Type
REMARK                         _______ _______ _______ _____ _____    ______ ____
ROOT
ATOM      1  C   UNL     1       7.021   6.809  17.262  0.00  0.00    +0.000 A 
ATOM      2  N   UNL     1       7.205   8.101  17.136  0.00  0.00    +0.000 NA
ATOM      3  C   UNL     1       8.107   8.363  18.138  0.00  0.00    +0.000 A 
ATOM      4  N   UNL     1       8.455   7.288  18.863  0.00  0.00    +0.000 NA
ATOM      5  O   UNL     1       7.716   6.256  18.293  0.00  0.00    +0.000 OA
ENDROOT
BRANCH   3   6
ATOM      6  C   UNL     1       8.606   9.705  18.365  0.00  0.00    +0.000 A 
ATOM      7  C   UNL     1       9.487   9.946  19.427  0.00  0.00    +0.000 A 
ATOM      8  C   UNL     1       9.981  11.229  19.654  0.00  0.00    +0.000 A 
ATOM      9  C   UNL     1       9.591  12.294  18.828  0.00  0.00    +0.000 A 
ATOM     10  C   UNL     1       8.712  12.046  17.762  0.00  0.00    +0.000 A 
ATOM     11  C   UNL     1       8.219  10.762  17.535  0.00  0.00    +0.000 A 
BRANCH   9  12
ATOM     12  C   UNL     1      10.102  13.691  19.076  0.00  0.00    +0.000 C 
ATOM     13  F   UNL     1      10.550  13.878  20.348  0.00  0.00    +0.000 F 
ATOM     14  F   UNL     1      11.143  14.017  18.260  0.00  0.00    +0.000 F 
ATOM     15  F   UNL     1       9.153  14.646  18.870  0.00  0.00    +0.000 F 
ENDBRANCH   9  12
ENDBRANCH   3   6
BRANCH   1  16
ATOM     16  C   UNL     1       6.157   5.906  16.459  0.00  0.00    +0.000 C 
BRANCH  16  17
ATOM     17  N   UNL     1       4.734   6.126  16.675  0.00  0.00    +0.000 N 
ATOM     18  H   UNL     1       4.291   6.762  16.019  0.00  0.00    +0.000 HD
BRANCH  17  26
ATOM     19  O   UNL     1       1.358   5.816  20.919  0.00  0.00    +0.000 OA
ATOM     20  C   UNL     1       1.455   4.838  20.217  0.00  0.00    +0.000 C 
ATOM     21  N   UNL     1       0.789   3.637  20.355  0.00  0.00    +0.000 N 
ATOM     22  C   UNL     1       1.134   2.675  19.337  0.00  0.00    +0.000 C 
ATOM     23  C   UNL     1       2.144   3.415  18.525  0.00  0.00    +0.000 A 
ATOM     24  C   UNL     1       2.855   3.020  17.413  0.00  0.00    +0.000 A 
ATOM     25  C   UNL     1       3.739   3.946  16.838  0.00  0.00    +0.000 A 
ATOM     26  C   UNL     1       3.922   5.248  17.366  0.00  0.00    +0.000 A 
ATOM     27  C   UNL     1       3.180   5.623  18.488  0.00  0.00    +0.000 A 
ATOM     28  C   UNL     1       2.321   4.695  19.043  0.00  0.00    +0.000 A 
ATOM     29  H   UNL     1       0.131   3.492  21.108  0.00  0.00    +0.000 HD
ENDBRANCH  17  26
ENDBRANCH  16  17
ENDBRANCH   1  16
TORSDOF 5
ENDMDL
MODEL 8
REMARK VINA RESULT:      -8.4      7.398      9.151
REMARK  Name = 
REMARK  5 active torsions:
REMARK  status: ('A' for Active; 'I' for Inactive)
REMARK    1  A    between atoms: C_8  and  N_9
REMARK    2  A    between atoms: N_9  and  C_10
REMARK    3  A    between atoms: C_10  and  C_11
REMARK    4  A    between atoms: C_13  and  C_14
REMARK    5  A    between atoms: C_17  and  C_18
REMARK                            x       y       z     vdW  Elec       q    Type
REMARK                         _______ _______ _______ _____ _____    ______ ____
ROOT
ATOM      1  C   UNL     1       1.427   8.324  19.966  0.00  0.00    +0.000 A 
ATOM      2  N   UNL     1       2.129   8.142  18.874  0.00  0.00    +0.000 NA
ATOM      3  C   UNL     1       2.561   6.846  19.020  0.00  0.00    +0.000 A 
ATOM      4  N   UNL     1       2.159   6.256  20.157  0.00  0.00    +0.000 NA
ATOM      5  O   UNL     1       1.420   7.246  20.797  0.00  0.00    +0.000 OA
ENDROOT
BRANCH   3   6
ATOM      6  C   UNL     1       3.388   6.213  18.013  0.00  0.00    +0.000 A 
ATOM      7  C   UNL     1       4.242   6.995  17.225  0.00  0.00    +0.000 A 
ATOM      8  C   UNL     1       5.050   6.400  16.258  0.00  0.00    +0.000 A 
ATOM      9  C   UNL     1       5.004   5.013  16.054  0.00  0.00    +0.000 A 
ATOM     10  C   UNL     1       4.149   4.232  16.849  0.00  0.00    +0.000 A 
ATOM     11  C   UNL     1       3.343   4.829  17.817  0.00  0.00    +0.000 A 
BRANCH   9  12
ATOM     12  C   UNL     1       5.857   4.359  14.996  0.00  0.00    +0.000 C 
ATOM     13  F   UNL     1       5.222   4.237  13.799  0.00  0.00    +0.000 F 
ATOM     14  F   UNL     1       7.001   5.055  14.746  0.00  0.00    +0.000 F 
ATOM     15  F   UNL     1       6.253   3.101  15.339  0.00  0.00    +0.000 F 
ENDBRANCH   9  12
ENDBRANCH   3   6
BRANCH   1  16
ATOM     16  C   UNL     1       0.679   9.529  20.405  0.00  0.00    +0.000 C 
BRANCH  16  17
ATOM     17  N   UNL     1       0.380  10.451  19.318  0.00  0.00    +0.000 N 
ATOM     18  H   UNL     1       1.175  10.712  18.742  0.00  0.00    +0.000 HD
BRANCH  17  26
ATOM     19  O   UNL     1      -4.321  13.054  20.109  0.00  0.00    +0.000 OA
ATOM     20  C   UNL     1      -4.208  12.415  19.091  0.00  0.00    +0.000 C 
ATOM     21  N   UNL     1      -5.136  12.277  18.079  0.00  0.00    +0.000 N 
ATOM     22  C   UNL     1      -4.677  11.442  16.996  0.00  0.00    +0.000 C 
ATOM     23  C   UNL     1      -3.319  11.034  17.458  0.00  0.00    +0.000 A 
ATOM     24  C   UNL     1      -2.380  10.223  16.858  0.00  0.00    +0.000 A 
ATOM     25  C   UNL     1      -1.163  10.025  17.528  0.00  0.00    +0.000 A 
ATOM     26  C   UNL     1      -0.882  10.618  18.783  0.00  0.00    +0.000 A 
ATOM     27  C   UNL     1      -1.849  11.444  19.362  0.00  0.00    +0.000 A 
ATOM     28  C   UNL     1      -3.043  11.620  18.690  0.00  0.00    +0.000 A 
ATOM     29  H   UNL     1      -6.035  12.735  18.133  0.00  0.00    +0.000 HD
ENDBRANCH  17  26
ENDBRANCH  16  17
ENDBRANCH   1  16
TORSDOF 5
ENDMDL
MODEL 9
REMARK VINA RESULT:      -8.4      1.295      1.674
REMARK  Name = 
REMARK  5 active torsions:
REMARK  status: ('A' for Active; 'I' for Inactive)
REMARK    1  A    between atoms: C_8  and  N_9
REMARK    2  A    between atoms: N_9  and  C_10
REMARK    3  A    between atoms: C_10  and  C_11
REMARK    4  A    between atoms: C_13  and  C_14
REMARK    5  A    between atoms: C_17  and  C_18
REMARK                            x       y       z     vdW  Elec       q    Type
REMARK                         _______ _______ _______ _____ _____    ______ ____
ROOT
ATOM      1  C   UNL     1       7.284   6.696  17.221  0.00  0.00    +0.000 A 
ATOM      2  N   UNL     1       7.467   7.986  17.074  0.00  0.00    +0.000 NA
ATOM      3  C   UNL     1       8.201   8.302  18.191  0.00  0.00    +0.000 A 
ATOM      4  N   UNL     1       8.449   7.261  19.002  0.00  0.00    +0.000 NA
ATOM      5  O   UNL     1       7.820   6.195  18.367  0.00  0.00    +0.000 OA
ENDROOT
BRANCH   3   6
ATOM      6  C   UNL     1       8.641   9.660  18.440  0.00  0.00    +0.000 A 
ATOM      7  C   UNL     1       8.293  10.677  17.542  0.00  0.00    +0.000 A 
ATOM      8  C   UNL     1       8.702  11.989  17.772  0.00  0.00    +0.000 A 
ATOM      9  C   UNL     1       9.479  12.301  18.897  0.00  0.00    +0.000 A 
ATOM     10  C   UNL     1       9.823  11.279  19.796  0.00  0.00    +0.000 A 
ATOM     11  C   UNL     1       9.412   9.967  19.566  0.00  0.00    +0.000 A 
BRANCH   9  12
ATOM     12  C   UNL     1       9.946  13.713  19.145  0.00  0.00    +0.000 C 
ATOM     13  F   UNL     1      11.124  13.775  19.825  0.00  0.00    +0.000 F 
ATOM     14  F   UNL     1      10.142  14.408  17.990  0.00  0.00    +0.000 F 
ATOM     15  F   UNL     1       9.056  14.445  19.874  0.00  0.00    +0.000 F 
ENDBRANCH   9  12
ENDBRANCH   3   6
BRANCH   1  16
ATOM     16  C   UNL     1       6.566   5.748  16.331  0.00  0.00    +0.000 C 
BRANCH  16  17
ATOM     17  N   UNL     1       5.144   6.033  16.210  0.00  0.00    +0.000 N 
ATOM     18  H   UNL     1       4.832   6.294  15.280  0.00  0.00    +0.000 HD
BRANCH  17  26
ATOM     19  O   UNL     1       3.167   1.472  18.398  0.00  0.00    +0.000 OA
ATOM     20  C   UNL     1       2.735   2.518  18.819  0.00  0.00    +0.000 C 
ATOM     21  N   UNL     1       1.798   2.700  19.816  0.00  0.00    +0.000 N 
ATOM     22  C   UNL     1       1.510   4.089  20.078  0.00  0.00    +0.000 C 
ATOM     23  C   UNL     1       2.378   4.790  19.090  0.00  0.00    +0.000 A 
ATOM     24  C   UNL     1       2.539   6.136  18.842  0.00  0.00    +0.000 A 
ATOM     25  C   UNL     1       3.452   6.514  17.846  0.00  0.00    +0.000 A 
ATOM     26  C   UNL     1       4.193   5.567  17.098  0.00  0.00    +0.000 A 
ATOM     27  C   UNL     1       4.016   4.210  17.378  0.00  0.00    +0.000 A 
ATOM     28  C   UNL     1       3.107   3.859  18.356  0.00  0.00    +0.000 A 
ATOM     29  H   UNL     1       1.384   1.910  20.289  0.00  0.00    +0.000 HD
ENDBRANCH  17  26
ENDBRANCH  16  17
ENDBRANCH   1  16
TORSDOF 5
ENDMDL
