MODEL 1
REMARK VINA RESULT:      -6.8      0.000      0.000
REMARK  Name = 
REMARK  3 active torsions:
REMARK  status: ('A' for Active; 'I' for Inactive)
REMARK    1  A    between atoms: C_7  and  C_8
REMARK    2  A    between atoms: C_19  and  C_20
REMARK    3  A    between atoms: C_20  and  O_22
REMARK                            x       y       z     vdW  Elec       q    Type
REMARK                         _______ _______ _______ _____ _____    ______ ____
ROOT
ATOM      1  C   UNL     1      -0.945  10.893  22.857  0.00  0.00    +0.000 C 
ATOM      2  O   UNL     1      -0.787  10.139  23.818  0.00  0.00    +0.000 OA
ATOM      3  N   UNL     1      -0.492  10.531  21.577  0.00  0.00    +0.000 N 
ATOM      4  C   UNL     1       0.011   9.147  21.452  0.00  0.00    +0.000 C 
ATOM      5  C   UNL     1       0.804   8.887  20.196  0.00  0.00    +0.000 A 
ATOM      6  C   UNL     1       1.882   7.997  20.186  0.00  0.00    +0.000 A 
ATOM      7  C   UNL     1       2.582   7.758  19.001  0.00  0.00    +0.000 A 
ATOM      8  C   UNL     1       2.192   8.382  17.817  0.00  0.00    +0.000 A 
ATOM      9  C   UNL     1       1.108   9.256  17.812  0.00  0.00    +0.000 A 
ATOM     10  C   UNL     1       0.425   9.516  19.001  0.00  0.00    +0.000 A 
ATOM     11  C   UNL     1      -0.705  10.502  19.063  0.00  0.00    +0.000 C 
ATOM     12  C   UNL     1      -0.557  11.361  20.327  0.00  0.00    +0.000 C 
ENDROOT
BRANCH   1  19
ATOM     13  O   UNL     1      -5.400  17.040  24.159  0.00  0.00    +0.000 OA
ATOM     14  C   UNL     1      -4.840  15.973  23.923  0.00  0.00    +0.000 C 
ATOM     15  C   UNL     1      -5.585  14.695  23.538  0.00  0.00    +0.000 C 
ATOM     16  O   UNL     1      -4.947  13.443  23.763  0.00  0.00    +0.000 OA
ATOM     17  C   UNL     1      -3.590  13.477  23.577  0.00  0.00    +0.000 A 
ATOM     18  C   UNL     1      -2.946  12.256  23.376  0.00  0.00    +0.000 A 
ATOM     19  C   UNL     1      -1.559  12.217  23.150  0.00  0.00    +0.000 A 
ATOM     20  C   UNL     1      -0.851  13.420  23.089  0.00  0.00    +0.000 A 
ATOM     21  C   UNL     1      -1.475  14.632  23.396  0.00  0.00    +0.000 A 
ATOM     22  C   UNL     1      -2.847  14.658  23.623  0.00  0.00    +0.000 A 
ATOM     23  N   UNL     1      -3.476  15.874  23.884  0.00  0.00    +0.000 N 
ATOM     24  H   UNL     1      -2.949  16.723  24.035  0.00  0.00    +0.000 HD
ENDBRANCH   1  19
BRANCH  12  25
ATOM     25  C   UNL     1       0.640  12.311  20.190  0.00  0.00    +0.000 C 
ATOM     26  O   UNL     1       1.580  12.326  20.975  0.00  0.00    +0.000 OA
BRANCH  25  27
ATOM     27  O   UNL     1       0.596  13.109  19.099  0.00  0.00    +0.000 OA
ATOM     28  H   UNL     1      -0.296  13.102  18.698  0.00  0.00    +0.000 HD
ENDBRANCH  25  27
ENDBRANCH  12  25
TORSDOF 3
ENDMDL
MODEL 2
REMARK VINA RESULT:      -6.7      3.916      8.190
REMARK  Name = 
REMARK  3 active torsions:
REMARK  status: ('A' for Active; 'I' for Inactive)
REMARK    1  A    between atoms: C_7  and  C_8
REMARK    2  A    between atoms: C_19  and  C_20
REMARK    3  A    between atoms: C_20  and  O_22
REMARK                            x       y       z     vdW  Elec       q    Type
REMARK                         _______ _______ _______ _____ _____    ______ ____
ROOT
ATOM      1  C   UNL     1      -0.175  11.281  19.014  0.00  0.00    +0.000 C 
ATOM      2  O   UNL     1      -0.918  11.177  18.038  0.00  0.00    +0.000 OA
ATOM      3  N   UNL     1       0.013  12.523  19.645  0.00  0.00    +0.000 N 
ATOM      4  C   UNL     1      -0.860  13.614  19.167  0.00  0.00    +0.000 C 
ATOM      5  C   UNL     1      -0.418  14.992  19.590  0.00  0.00    +0.000 A 
ATOM      6  C   UNL     1      -0.607  16.105  18.764  0.00  0.00    +0.000 A 
ATOM      7  C   UNL     1      -0.209  17.372  19.194  0.00  0.00    +0.000 A 
ATOM      8  C   UNL     1       0.352  17.541  20.459  0.00  0.00    +0.000 A 
ATOM      9  C   UNL     1       0.528  16.443  21.297  0.00  0.00    +0.000 A 
ATOM     10  C   UNL     1       0.155  15.171  20.858  0.00  0.00    +0.000 A 
ATOM     11  C   UNL     1       0.388  13.947  21.694  0.00  0.00    +0.000 C 
ATOM     12  C   UNL     1       0.925  12.820  20.801  0.00  0.00    +0.000 C 
ENDROOT
BRANCH   1  19
ATOM     13  O   UNL     1       3.956   4.816  19.698  0.00  0.00    +0.000 OA
ATOM     14  C   UNL     1       3.335   5.838  19.417  0.00  0.00    +0.000 C 
ATOM     15  C   UNL     1       3.194   6.376  17.993  0.00  0.00    +0.000 C 
ATOM     16  O   UNL     1       2.906   7.759  17.816  0.00  0.00    +0.000 OA
ATOM     17  C   UNL     1       2.088   8.277  18.784  0.00  0.00    +0.000 A 
ATOM     18  C   UNL     1       1.434   9.474  18.488  0.00  0.00    +0.000 A 
ATOM     19  C   UNL     1       0.557  10.050  19.422  0.00  0.00    +0.000 A 
ATOM     20  C   UNL     1       0.321   9.383  20.628  0.00  0.00    +0.000 A 
ATOM     21  C   UNL     1       1.054   8.244  20.968  0.00  0.00    +0.000 A 
ATOM     22  C   UNL     1       1.924   7.686  20.038  0.00  0.00    +0.000 A 
ATOM     23  N   UNL     1       2.621   6.523  20.362  0.00  0.00    +0.000 N 
ATOM     24  H   UNL     1       2.609   6.140  21.298  0.00  0.00    +0.000 HD
ENDBRANCH   1  19
BRANCH  12  25
ATOM     25  C   UNL     1       2.359  13.132  20.351  0.00  0.00    +0.000 C 
ATOM     26  O   UNL     1       2.714  13.121  19.179  0.00  0.00    +0.000 OA
BRANCH  25  27
ATOM     27  O   UNL     1       3.199  13.465  21.358  0.00  0.00    +0.000 OA
ATOM     28  H   UNL     1       2.971  14.343  21.726  0.00  0.00    +0.000 HD
ENDBRANCH  25  27
ENDBRANCH  12  25
TORSDOF 3
ENDMDL
MODEL 3
REMARK VINA RESULT:      -6.7      3.919      6.840
REMARK  Name = 
REMARK  3 active torsions:
REMARK  status: ('A' for Active; 'I' for Inactive)
REMARK    1  A    between atoms: C_7  and  C_8
REMARK    2  A    between atoms: C_19  and  C_20
REMARK    3  A    between atoms: C_20  and  O_22
REMARK                            x       y       z     vdW  Elec       q    Type
REMARK                         _______ _______ _______ _____ _____    ______ ____
ROOT
ATOM      1  C   UNL     1       2.646   8.470  17.998  0.00  0.00    +0.000 C 
ATOM      2  O   UNL     1       2.567   9.293  17.086  0.00  0.00    +0.000 OA
ATOM      3  N   UNL     1       3.463   7.333  17.873  0.00  0.00    +0.000 N 
ATOM      4  C   UNL     1       4.322   7.301  16.672  0.00  0.00    +0.000 C 
ATOM      5  C   UNL     1       4.916   5.948  16.371  0.00  0.00    +0.000 A 
ATOM      6  C   UNL     1       5.128   5.520  15.056  0.00  0.00    +0.000 A 
ATOM      7  C   UNL     1       5.703   4.272  14.811  0.00  0.00    +0.000 A 
ATOM      8  C   UNL     1       6.097   3.458  15.871  0.00  0.00    +0.000 A 
ATOM      9  C   UNL     1       5.908   3.882  17.185  0.00  0.00    +0.000 A 
ATOM     10  C   UNL     1       5.308   5.118  17.432  0.00  0.00    +0.000 A 
ATOM     11  C   UNL     1       5.018   5.590  18.827  0.00  0.00    +0.000 C 
ATOM     12  C   UNL     1       3.618   6.218  18.867  0.00  0.00    +0.000 C 
ENDROOT
BRANCH   1  19
ATOM     13  O   UNL     1      -1.983  11.077  23.576  0.00  0.00    +0.000 OA
ATOM     14  C   UNL     1      -1.257  10.823  22.618  0.00  0.00    +0.000 C 
ATOM     15  C   UNL     1      -0.869  11.852  21.556  0.00  0.00    +0.000 C 
ATOM     16  O   UNL     1      -0.462  11.384  20.275  0.00  0.00    +0.000 OA
ATOM     17  C   UNL     1       0.238  10.208  20.317  0.00  0.00    +0.000 A 
ATOM     18  C   UNL     1       1.010   9.889  19.199  0.00  0.00    +0.000 A 
ATOM     19  C   UNL     1       1.778   8.712  19.183  0.00  0.00    +0.000 A 
ATOM     20  C   UNL     1       1.785   7.895  20.318  0.00  0.00    +0.000 A 
ATOM     21  C   UNL     1       0.931   8.158  21.392  0.00  0.00    +0.000 A 
ATOM     22  C   UNL     1       0.172   9.322  21.395  0.00  0.00    +0.000 A 
ATOM     23  N   UNL     1      -0.645   9.606  22.488  0.00  0.00    +0.000 N 
ATOM     24  H   UNL     1      -0.798   8.933  23.225  0.00  0.00    +0.000 HD
ENDBRANCH   1  19
BRANCH  12  25
ATOM     25  C   UNL     1       2.543   5.134  18.706  0.00  0.00    +0.000 C 
ATOM     26  O   UNL     1       1.760   5.099  17.765  0.00  0.00    +0.000 OA
BRANCH  25  27
ATOM     27  O   UNL     1       2.556   4.189  19.673  0.00  0.00    +0.000 OA
ATOM     28  H   UNL     1       1.972   4.443  20.417  0.00  0.00    +0.000 HD
ENDBRANCH  25  27
ENDBRANCH  12  25
TORSDOF 3
ENDMDL
MODEL 4
REMARK VINA RESULT:      -6.6      1.410      1.925
REMARK  Name = 
REMARK  3 active torsions:
REMARK  status: ('A' for Active; 'I' for Inactive)
REMARK    1  A    between atoms: C_7  and  C_8
REMARK    2  A    between atoms: C_19  and  C_20
REMARK    3  A    between atoms: C_20  and  O_22
REMARK                            x       y       z     vdW  Elec       q    Type
REMARK                         _______ _______ _______ _____ _____    ______ ____
ROOT
ATOM      1  C   UNL     1      -1.171  11.081  22.509  0.00  0.00    +0.000 C 
ATOM      2  O   UNL     1      -1.216  10.311  23.468  0.00  0.00    +0.000 OA
ATOM      3  N   UNL     1      -0.578  10.687  21.297  0.00  0.00    +0.000 N 
ATOM      4  C   UNL     1      -0.187   9.265  21.217  0.00  0.00    +0.000 C 
ATOM      5  C   UNL     1       0.747   8.942  20.078  0.00  0.00    +0.000 A 
ATOM      6  C   UNL     1       1.734   7.959  20.201  0.00  0.00    +0.000 A 
ATOM      7  C   UNL     1       2.568   7.665  19.120  0.00  0.00    +0.000 A 
ATOM      8  C   UNL     1       2.403   8.327  17.905  0.00  0.00    +0.000 A 
ATOM      9  C   UNL     1       1.411   9.295  17.766  0.00  0.00    +0.000 A 
ATOM     10  C   UNL     1       0.594   9.608  18.854  0.00  0.00    +0.000 A 
ATOM     11  C   UNL     1      -0.442  10.692  18.777  0.00  0.00    +0.000 C 
ATOM     12  C   UNL     1      -0.396  11.526  20.064  0.00  0.00    +0.000 C 
ENDROOT
BRANCH   1  19
ATOM     13  O   UNL     1      -2.650  18.399  24.406  0.00  0.00    +0.000 OA
ATOM     14  C   UNL     1      -2.263  17.253  24.190  0.00  0.00    +0.000 C 
ATOM     15  C   UNL     1      -0.940  16.696  24.716  0.00  0.00    +0.000 C 
ATOM     16  O   UNL     1      -0.353  15.589  24.040  0.00  0.00    +0.000 OA
ATOM     17  C   UNL     1      -1.270  14.704  23.538  0.00  0.00    +0.000 A 
ATOM     18  C   UNL     1      -0.812  13.422  23.229  0.00  0.00    +0.000 A 
ATOM     19  C   UNL     1      -1.702  12.453  22.737  0.00  0.00    +0.000 A 
ATOM     20  C   UNL     1      -3.054  12.784  22.604  0.00  0.00    +0.000 A 
ATOM     21  C   UNL     1      -3.492  14.094  22.809  0.00  0.00    +0.000 A 
ATOM     22  C   UNL     1      -2.601  15.046  23.291  0.00  0.00    +0.000 A 
ATOM     23  N   UNL     1      -3.050  16.342  23.540  0.00  0.00    +0.000 N 
ATOM     24  H   UNL     1      -3.974  16.646  23.265  0.00  0.00    +0.000 HD
ENDBRANCH   1  19
BRANCH  12  25
ATOM     25  C   UNL     1       0.888  12.366  20.111  0.00  0.00    +0.000 C 
ATOM     26  O   UNL     1       1.680  12.331  21.044  0.00  0.00    +0.000 OA
BRANCH  25  27
ATOM     27  O   UNL     1       1.098  13.124  19.011  0.00  0.00    +0.000 OA
ATOM     28  H   UNL     1       1.600  13.934  19.236  0.00  0.00    +0.000 HD
ENDBRANCH  25  27
ENDBRANCH  12  25
TORSDOF 3
ENDMDL
MODEL 5
REMARK VINA RESULT:      -6.6      2.211      7.934
REMARK  Name = 
REMARK  3 active torsions:
REMARK  status: ('A' for Active; 'I' for Inactive)
REMARK    1  A    between atoms: C_7  and  C_8
REMARK    2  A    between atoms: C_19  and  C_20
REMARK    3  A    between atoms: C_20  and  O_22
REMARK                            x       y       z     vdW  Elec       q    Type
REMARK                         _______ _______ _______ _____ _____    ______ ____
ROOT
ATOM      1  C   UNL     1      -2.900  12.593  23.305  0.00  0.00    +0.000 C 
ATOM      2  O   UNL     1      -4.047  12.145  23.281  0.00  0.00    +0.000 OA
ATOM      3  N   UNL     1      -2.628  13.840  23.893  0.00  0.00    +0.000 N 
ATOM      4  C   UNL     1      -3.760  14.463  24.609  0.00  0.00    +0.000 C 
ATOM      5  C   UNL     1      -3.566  15.925  24.923  0.00  0.00    +0.000 A 
ATOM      6  C   UNL     1      -4.640  16.820  24.925  0.00  0.00    +0.000 A 
ATOM      7  C   UNL     1      -4.432  18.163  25.244  0.00  0.00    +0.000 A 
ATOM      8  C   UNL     1      -3.160  18.614  25.593  0.00  0.00    +0.000 A 
ATOM      9  C   UNL     1      -2.086  17.727  25.613  0.00  0.00    +0.000 A 
ATOM     10  C   UNL     1      -2.288  16.389  25.267  0.00  0.00    +0.000 A 
ATOM     11  C   UNL     1      -1.152  15.410  25.205  0.00  0.00    +0.000 C 
ATOM     12  C   UNL     1      -1.301  14.543  23.948  0.00  0.00    +0.000 C 
ENDROOT
BRANCH   1  19
ATOM     13  O   UNL     1       1.892   8.943  18.504  0.00  0.00    +0.000 OA
ATOM     14  C   UNL     1       1.053   9.591  19.124  0.00  0.00    +0.000 C 
ATOM     15  C   UNL     1      -0.030  10.434  18.451  0.00  0.00    +0.000 C 
ATOM     16  O   UNL     1      -0.618  11.500  19.190  0.00  0.00    +0.000 OA
ATOM     17  C   UNL     1      -0.747  11.234  20.527  0.00  0.00    +0.000 A 
ATOM     18  C   UNL     1      -1.653  12.016  21.245  0.00  0.00    +0.000 A 
ATOM     19  C   UNL     1      -1.859  11.782  22.615  0.00  0.00    +0.000 A 
ATOM     20  C   UNL     1      -1.175  10.730  23.230  0.00  0.00    +0.000 A 
ATOM     21  C   UNL     1      -0.191  10.018  22.540  0.00  0.00    +0.000 A 
ATOM     22  C   UNL     1       0.008  10.262  21.186  0.00  0.00    +0.000 A 
ATOM     23  N   UNL     1       0.958   9.519  20.487  0.00  0.00    +0.000 N 
ATOM     24  H   UNL     1       1.595   8.892  20.960  0.00  0.00    +0.000 HD
ENDBRANCH   1  19
BRANCH  12  25
ATOM     25  C   UNL     1      -1.025  15.375  22.689  0.00  0.00    +0.000 C 
ATOM     26  O   UNL     1      -1.860  15.569  21.814  0.00  0.00    +0.000 OA
BRANCH  25  27
ATOM     27  O   UNL     1       0.212  15.919  22.640  0.00  0.00    +0.000 OA
ATOM     28  H   UNL     1       0.637  15.898  23.522  0.00  0.00    +0.000 HD
ENDBRANCH  25  27
ENDBRANCH  12  25
TORSDOF 3
ENDMDL
MODEL 6
REMARK VINA RESULT:      -6.6      3.732      8.645
REMARK  Name = 
REMARK  3 active torsions:
REMARK  status: ('A' for Active; 'I' for Inactive)
REMARK    1  A    between atoms: C_7  and  C_8
REMARK    2  A    between atoms: C_19  and  C_20
REMARK    3  A    between atoms: C_20  and  O_22
REMARK                            x       y       z     vdW  Elec       q    Type
REMARK                         _______ _______ _______ _____ _____    ______ ____
ROOT
ATOM      1  C   UNL     1       1.378   8.907  21.051  0.00  0.00    +0.000 C 
ATOM      2  O   UNL     1       1.413   8.708  22.266  0.00  0.00    +0.000 OA
ATOM      3  N   UNL     1       0.985  10.154  20.537  0.00  0.00    +0.000 N 
ATOM      4  C   UNL     1       0.796  11.221  21.541  0.00  0.00    +0.000 C 
ATOM      5  C   UNL     1       0.050  12.428  21.031  0.00  0.00    +0.000 A 
ATOM      6  C   UNL     1      -0.807  13.160  21.859  0.00  0.00    +0.000 A 
ATOM      7  C   UNL     1      -1.465  14.288  21.363  0.00  0.00    +0.000 A 
ATOM      8  C   UNL     1      -1.250  14.707  20.052  0.00  0.00    +0.000 A 
ATOM      9  C   UNL     1      -0.385  13.996  19.224  0.00  0.00    +0.000 A 
ATOM     10  C   UNL     1       0.253  12.853  19.710  0.00  0.00    +0.000 A 
ATOM     11  C   UNL     1       1.139  12.013  18.837  0.00  0.00    +0.000 C 
ATOM     12  C   UNL     1       0.837  10.530  19.090  0.00  0.00    +0.000 C 
ENDROOT
BRANCH   1  19
ATOM     13  O   UNL     1       2.872   2.089  17.792  0.00  0.00    +0.000 OA
ATOM     14  C   UNL     1       2.618   3.086  18.462  0.00  0.00    +0.000 C 
ATOM     15  C   UNL     1       2.386   3.052  19.972  0.00  0.00    +0.000 C 
ATOM     16  O   UNL     1       1.639   4.107  20.569  0.00  0.00    +0.000 OA
ATOM     17  C   UNL     1       1.841   5.325  19.976  0.00  0.00    +0.000 A 
ATOM     18  C   UNL     1       1.489   6.456  20.714  0.00  0.00    +0.000 A 
ATOM     19  C   UNL     1       1.694   7.740  20.182  0.00  0.00    +0.000 A 
ATOM     20  C   UNL     1       2.292   7.861  18.924  0.00  0.00    +0.000 A 
ATOM     21  C   UNL     1       2.545   6.732  18.142  0.00  0.00    +0.000 A 
ATOM     22  C   UNL     1       2.333   5.466  18.677  0.00  0.00    +0.000 A 
ATOM     23  N   UNL     1       2.629   4.339  17.912  0.00  0.00    +0.000 N 
ATOM     24  H   UNL     1       2.877   4.411  16.935  0.00  0.00    +0.000 HD
ENDBRANCH   1  19
BRANCH  12  25
ATOM     25  C   UNL     1      -0.543  10.163  18.527  0.00  0.00    +0.000 C 
ATOM     26  O   UNL     1      -1.534  10.001  19.228  0.00  0.00    +0.000 OA
BRANCH  25  27
ATOM     27  O   UNL     1      -0.589  10.073  17.178  0.00  0.00    +0.000 OA
ATOM     28  H   UNL     1      -1.288   9.450  16.894  0.00  0.00    +0.000 HD
ENDBRANCH  25  27
ENDBRANCH  12  25
TORSDOF 3
ENDMDL
MODEL 7
REMARK VINA RESULT:      -6.5      3.268      4.347
REMARK  Name = 
REMARK  3 active torsions:
REMARK  status: ('A' for Active; 'I' for Inactive)
REMARK    1  A    between atoms: C_7  and  C_8
REMARK    2  A    between atoms: C_19  and  C_20
REMARK    3  A    between atoms: C_20  and  O_22
REMARK                            x       y       z     vdW  Elec       q    Type
REMARK                         _______ _______ _______ _____ _____    ______ ____
ROOT
ATOM      1  C   UNL     1      -1.595  12.298  20.515  0.00  0.00    +0.000 C 
ATOM      2  O   UNL     1      -1.384  11.162  20.091  0.00  0.00    +0.000 OA
ATOM      3  N   UNL     1      -0.806  13.382  20.092  0.00  0.00    +0.000 N 
ATOM      4  C   UNL     1       0.145  13.084  19.002  0.00  0.00    +0.000 C 
ATOM      5  C   UNL     1       1.209  14.135  18.803  0.00  0.00    +0.000 A 
ATOM      6  C   UNL     1       2.503  13.795  18.398  0.00  0.00    +0.000 A 
ATOM      7  C   UNL     1       3.459  14.793  18.198  0.00  0.00    +0.000 A 
ATOM      8  C   UNL     1       3.122  16.135  18.372  0.00  0.00    +0.000 A 
ATOM      9  C   UNL     1       1.830  16.485  18.757  0.00  0.00    +0.000 A 
ATOM     10  C   UNL     1       0.881  15.487  18.983  0.00  0.00    +0.000 A 
ATOM     11  C   UNL     1      -0.503  15.808  19.466  0.00  0.00    +0.000 C 
ATOM     12  C   UNL     1      -0.901  14.806  20.559  0.00  0.00    +0.000 C 
ENDROOT
BRANCH   1  19
ATOM     13  O   UNL     1      -7.911  13.568  24.737  0.00  0.00    +0.000 OA
ATOM     14  C   UNL     1      -6.995  13.436  23.930  0.00  0.00    +0.000 C 
ATOM     15  C   UNL     1      -7.076  13.899  22.476  0.00  0.00    +0.000 C 
ATOM     16  O   UNL     1      -6.215  13.291  21.520  0.00  0.00    +0.000 OA
ATOM     17  C   UNL     1      -4.984  12.961  22.023  0.00  0.00    +0.000 A 
ATOM     18  C   UNL     1      -3.959  12.746  21.100  0.00  0.00    +0.000 A 
ATOM     19  C   UNL     1      -2.663  12.432  21.543  0.00  0.00    +0.000 A 
ATOM     20  C   UNL     1      -2.414  12.383  22.918  0.00  0.00    +0.000 A 
ATOM     21  C   UNL     1      -3.459  12.492  23.838  0.00  0.00    +0.000 A 
ATOM     22  C   UNL     1      -4.739  12.797  23.387  0.00  0.00    +0.000 A 
ATOM     23  N   UNL     1      -5.772  12.951  24.309  0.00  0.00    +0.000 N 
ATOM     24  H   UNL     1      -5.649  12.728  25.288  0.00  0.00    +0.000 HD
ENDBRANCH   1  19
BRANCH  12  25
ATOM     25  C   UNL     1      -0.090  15.060  21.837  0.00  0.00    +0.000 C 
ATOM     26  O   UNL     1       0.614  14.209  22.367  0.00  0.00    +0.000 OA
BRANCH  25  27
ATOM     27  O   UNL     1      -0.182  16.322  22.314  0.00  0.00    +0.000 OA
ATOM     28  H   UNL     1      -0.868  16.384  23.009  0.00  0.00    +0.000 HD
ENDBRANCH  25  27
ENDBRANCH  12  25
TORSDOF 3
ENDMDL
MODEL 8
REMARK VINA RESULT:      -6.4      2.972      8.439
REMARK  Name = 
REMARK  3 active torsions:
REMARK  status: ('A' for Active; 'I' for Inactive)
REMARK    1  A    between atoms: C_7  and  C_8
REMARK    2  A    between atoms: C_19  and  C_20
REMARK    3  A    between atoms: C_20  and  O_22
REMARK                            x       y       z     vdW  Elec       q    Type
REMARK                         _______ _______ _______ _____ _____    ______ ____
ROOT
ATOM      1  C   UNL     1       0.304   9.078  21.215  0.00  0.00    +0.000 C 
ATOM      2  O   UNL     1      -0.185   8.248  21.981  0.00  0.00    +0.000 OA
ATOM      3  N   UNL     1      -0.012  10.442  21.335  0.00  0.00    +0.000 N 
ATOM      4  C   UNL     1      -0.811  10.805  22.523  0.00  0.00    +0.000 C 
ATOM      5  C   UNL     1      -1.431  12.177  22.459  0.00  0.00    +0.000 A 
ATOM      6  C   UNL     1      -2.679  12.442  23.032  0.00  0.00    +0.000 A 
ATOM      7  C   UNL     1      -3.215  13.730  22.978  0.00  0.00    +0.000 A 
ATOM      8  C   UNL     1      -2.500  14.765  22.378  0.00  0.00    +0.000 A 
ATOM      9  C   UNL     1      -1.248  14.516  21.819  0.00  0.00    +0.000 A 
ATOM     10  C   UNL     1      -0.722  13.224  21.850  0.00  0.00    +0.000 A 
ATOM     11  C   UNL     1       0.589  12.890  21.201  0.00  0.00    +0.000 C 
ATOM     12  C   UNL     1       0.455  11.560  20.446  0.00  0.00    +0.000 C 
ENDROOT
BRANCH   1  19
ATOM     13  O   UNL     1       5.294   5.413  16.631  0.00  0.00    +0.000 OA
ATOM     14  C   UNL     1       4.558   5.893  17.490  0.00  0.00    +0.000 C 
ATOM     15  C   UNL     1       4.571   5.454  18.954  0.00  0.00    +0.000 C 
ATOM     16  O   UNL     1       3.408   5.682  19.742  0.00  0.00    +0.000 OA
ATOM     17  C   UNL     1       2.747   6.838  19.423  0.00  0.00    +0.000 A 
ATOM     18  C   UNL     1       1.861   7.346  20.374  0.00  0.00    +0.000 A 
ATOM     19  C   UNL     1       1.169   8.544  20.127  0.00  0.00    +0.000 A 
ATOM     20  C   UNL     1       1.417   9.234  18.937  0.00  0.00    +0.000 A 
ATOM     21  C   UNL     1       2.220   8.673  17.941  0.00  0.00    +0.000 A 
ATOM     22  C   UNL     1       2.896   7.484  18.194  0.00  0.00    +0.000 A 
ATOM     23  N   UNL     1       3.733   6.949  17.216  0.00  0.00    +0.000 N 
ATOM     24  H   UNL     1       3.771   7.333  16.282  0.00  0.00    +0.000 HD
ENDBRANCH   1  19
BRANCH  12  25
ATOM     25  C   UNL     1      -0.435  11.737  19.208  0.00  0.00    +0.000 C 
ATOM     26  O   UNL     1      -1.544  11.229  19.100  0.00  0.00    +0.000 OA
BRANCH  25  27
ATOM     27  O   UNL     1       0.089  12.539  18.255  0.00  0.00    +0.000 OA
ATOM     28  H   UNL     1       0.144  13.464  18.569  0.00  0.00    +0.000 HD
ENDBRANCH  25  27
ENDBRANCH  12  25
TORSDOF 3
ENDMDL
MODEL 9
REMARK VINA RESULT:      -6.4      3.663      9.083
REMARK  Name = 
REMARK  3 active torsions:
REMARK  status: ('A' for Active; 'I' for Inactive)
REMARK    1  A    between atoms: C_7  and  C_8
REMARK    2  A    between atoms: C_19  and  C_20
REMARK    3  A    between atoms: C_20  and  O_22
REMARK                            x       y       z     vdW  Elec       q    Type
REMARK                         _______ _______ _______ _____ _____    ______ ____
ROOT
ATOM      1  C   UNL     1       1.601   9.239  19.298  0.00  0.00    +0.000 C 
ATOM      2  O   UNL     1       2.099   9.789  18.316  0.00  0.00    +0.000 OA
ATOM      3  N   UNL     1       0.844   9.973  20.227  0.00  0.00    +0.000 N 
ATOM      4  C   UNL     1       0.557  11.370  19.845  0.00  0.00    +0.000 C 
ATOM      5  C   UNL     1       0.061  12.233  20.978  0.00  0.00    +0.000 A 
ATOM      6  C   UNL     1       0.386  13.591  21.057  0.00  0.00    +0.000 A 
ATOM      7  C   UNL     1      -0.109  14.370  22.106  0.00  0.00    +0.000 A 
ATOM      8  C   UNL     1      -0.952  13.807  23.062  0.00  0.00    +0.000 A 
ATOM      9  C   UNL     1      -1.297  12.460  22.982  0.00  0.00    +0.000 A 
ATOM     10  C   UNL     1      -0.782  11.674  21.950  0.00  0.00    +0.000 A 
ATOM     11  C   UNL     1      -1.066  10.203  21.860  0.00  0.00    +0.000 C 
ATOM     12  C   UNL     1       0.227   9.460  21.497  0.00  0.00    +0.000 C 
ENDROOT
BRANCH   1  19
ATOM     13  O   UNL     1       3.618   1.820  18.805  0.00  0.00    +0.000 OA
ATOM     14  C   UNL     1       3.340   3.013  18.714  0.00  0.00    +0.000 C 
ATOM     15  C   UNL     1       3.450   3.809  17.413  0.00  0.00    +0.000 C 
ATOM     16  O   UNL     1       3.589   5.223  17.492  0.00  0.00    +0.000 OA
ATOM     17  C   UNL     1       2.900   5.785  18.533  0.00  0.00    +0.000 A 
ATOM     18  C   UNL     1       2.643   7.155  18.459  0.00  0.00    +0.000 A 
ATOM     19  C   UNL     1       1.916   7.794  19.477  0.00  0.00    +0.000 A 
ATOM     20  C   UNL     1       1.422   7.028  20.537  0.00  0.00    +0.000 A 
ATOM     21  C   UNL     1       1.769   5.681  20.666  0.00  0.00    +0.000 A 
ATOM     22  C   UNL     1       2.494   5.060  19.655  0.00  0.00    +0.000 A 
ATOM     23  N   UNL     1       2.800   3.705  19.764  0.00  0.00    +0.000 N 
ATOM     24  H   UNL     1       2.619   3.185  20.612  0.00  0.00    +0.000 HD
ENDBRANCH   1  19
BRANCH  12  25
ATOM     25  C   UNL     1       1.207   9.486  22.678  0.00  0.00    +0.000 C 
ATOM     26  O   UNL     1       2.421   9.564  22.542  0.00  0.00    +0.000 OA
BRANCH  25  27
ATOM     27  O   UNL     1       0.615   9.458  23.894  0.00  0.00    +0.000 OA
ATOM     28  H   UNL     1       1.251   9.704  24.596  0.00  0.00    +0.000 HD
ENDBRANCH  25  27
ENDBRANCH  12  25
TORSDOF 3
ENDMDL
