MODEL 1
REMARK VINA RESULT:      -8.5      0.000      0.000
REMARK  Name = 
REMARK  4 active torsions:
REMARK  status: ('A' for Active; 'I' for Inactive)
REMARK    1  A    between atoms: C_1  and  C_2
REMARK    2  A    between atoms: C_4  and  C_5
REMARK    3  A    between atoms: C_5  and  N_6
REMARK    4  A    between atoms: C_7  and  C_9
REMARK                            x       y       z     vdW  Elec       q    Type
REMARK                         _______ _______ _______ _____ _____    ______ ____
ROOT
ATOM      1  C   UNL     1       3.543   5.524  18.305  0.00  0.00    +0.000 C 
ATOM      2  C   UNL     1       2.893   6.865  18.592  0.00  0.00    +0.000 A 
ATOM      3  C   UNL     1       3.130   7.997  17.796  0.00  0.00    +0.000 A 
ATOM      4  C   UNL     1       2.418   9.183  18.010  0.00  0.00    +0.000 A 
ATOM      5  C   UNL     1       1.451   9.245  19.011  0.00  0.00    +0.000 A 
ATOM      6  C   UNL     1       1.210   8.132  19.809  0.00  0.00    +0.000 A 
ATOM      7  C   UNL     1       1.929   6.952  19.604  0.00  0.00    +0.000 A 
ATOM      8  O   UNL     1       1.604   5.910  20.436  0.00  0.00    +0.000 OA
ATOM      9  C   UNL     1       2.378   4.777  20.406  0.00  0.00    +0.000 A 
ATOM     10  C   UNL     1       2.107   3.835  21.403  0.00  0.00    +0.000 A 
ATOM     11  C   UNL     1       2.825   2.643  21.453  0.00  0.00    +0.000 A 
ATOM     12  C   UNL     1       3.814   2.393  20.506  0.00  0.00    +0.000 A 
ATOM     13  C   UNL     1       4.075   3.328  19.501  0.00  0.00    +0.000 A 
ATOM     14  C   UNL     1       3.362   4.538  19.442  0.00  0.00    +0.000 A 
ENDROOT
BRANCH   1  16
ATOM     15  N   UNL     1       5.224   5.370  16.492  0.00  0.00    +0.000 N 
ATOM     16  C   UNL     1       4.996   5.629  17.823  0.00  0.00    +0.000 C 
ATOM     17  O   UNL     1       5.907   5.961  18.584  0.00  0.00    +0.000 OA
ATOM     18  H   UNL     1       4.492   4.942  15.933  0.00  0.00    +0.000 HD
BRANCH  15  19
ATOM     19  C   UNL     1       6.558   5.403  15.934  0.00  0.00    +0.000 C 
BRANCH  19  23
ATOM     20  C   UNL     1       5.670   2.676  11.711  0.00  0.00    +0.000 C 
ATOM     21  C   UNL     1       6.090   3.574  12.799  0.00  0.00    +0.000 A 
ATOM     22  C   UNL     1       5.670   3.782  14.089  0.00  0.00    +0.000 A 
ATOM     23  C   UNL     1       6.532   4.791  14.579  0.00  0.00    +0.000 A 
ATOM     24  N   UNL     1       7.411   5.174  13.641  0.00  0.00    +0.000 NA
ATOM     25  O   UNL     1       7.132   4.405  12.528  0.00  0.00    +0.000 OA
ENDBRANCH  19  23
ENDBRANCH  15  19
ENDBRANCH   1  16
TORSDOF 3
ENDMDL
MODEL 2
REMARK VINA RESULT:      -8.4      2.520      3.597
REMARK  Name = 
REMARK  4 active torsions:
REMARK  status: ('A' for Active; 'I' for Inactive)
REMARK    1  A    between atoms: C_1  and  C_2
REMARK    2  A    between atoms: C_4  and  C_5
REMARK    3  A    between atoms: C_5  and  N_6
REMARK    4  A    between atoms: C_7  and  C_9
REMARK                            x       y       z     vdW  Elec       q    Type
REMARK                         _______ _______ _______ _____ _____    ______ ____
ROOT
ATOM      1  C   UNL     1       3.186   5.336  18.292  0.00  0.00    +0.000 C 
ATOM      2  C   UNL     1       2.707   6.733  18.644  0.00  0.00    +0.000 A 
ATOM      3  C   UNL     1       2.917   7.832  17.796  0.00  0.00    +0.000 A 
ATOM      4  C   UNL     1       2.353   9.079  18.089  0.00  0.00    +0.000 A 
ATOM      5  C   UNL     1       1.560   9.237  19.223  0.00  0.00    +0.000 A 
ATOM      6  C   UNL     1       1.347   8.157  20.073  0.00  0.00    +0.000 A 
ATOM      7  C   UNL     1       1.921   6.914  19.788  0.00  0.00    +0.000 A 
ATOM      8  O   UNL     1       1.637   5.913  20.683  0.00  0.00    +0.000 OA
ATOM      9  C   UNL     1       2.295   4.716  20.562  0.00  0.00    +0.000 A 
ATOM     10  C   UNL     1       2.098   3.811  21.610  0.00  0.00    +0.000 A 
ATOM     11  C   UNL     1       2.708   2.560  21.577  0.00  0.00    +0.000 A 
ATOM     12  C   UNL     1       3.515   2.213  20.497  0.00  0.00    +0.000 A 
ATOM     13  C   UNL     1       3.701   3.112  19.442  0.00  0.00    +0.000 A 
ATOM     14  C   UNL     1       3.096   4.380  19.465  0.00  0.00    +0.000 A 
ENDROOT
BRANCH   1  16
ATOM     15  N   UNL     1       5.660   5.371  18.404  0.00  0.00    +0.000 N 
ATOM     16  C   UNL     1       4.551   5.306  17.593  0.00  0.00    +0.000 C 
ATOM     17  O   UNL     1       4.649   5.197  16.369  0.00  0.00    +0.000 OA
ATOM     18  H   UNL     1       5.551   5.626  19.381  0.00  0.00    +0.000 HD
BRANCH  15  19
ATOM     19  C   UNL     1       6.998   5.388  17.854  0.00  0.00    +0.000 C 
BRANCH  19  23
ATOM     20  C   UNL     1       9.143   9.913  18.845  0.00  0.00    +0.000 C 
ATOM     21  C   UNL     1       8.456   8.707  18.355  0.00  0.00    +0.000 A 
ATOM     22  C   UNL     1       8.300   7.430  18.831  0.00  0.00    +0.000 A 
ATOM     23  C   UNL     1       7.505   6.787  17.855  0.00  0.00    +0.000 A 
ATOM     24  N   UNL     1       7.205   7.621  16.848  0.00  0.00    +0.000 NA
ATOM     25  O   UNL     1       7.802   8.825  17.168  0.00  0.00    +0.000 OA
ENDBRANCH  19  23
ENDBRANCH  15  19
ENDBRANCH   1  16
TORSDOF 3
ENDMDL
MODEL 3
REMARK VINA RESULT:      -8.2      2.698      6.900
REMARK  Name = 
REMARK  4 active torsions:
REMARK  status: ('A' for Active; 'I' for Inactive)
REMARK    1  A    between atoms: C_1  and  C_2
REMARK    2  A    between atoms: C_4  and  C_5
REMARK    3  A    between atoms: C_5  and  N_6
REMARK    4  A    between atoms: C_7  and  C_9
REMARK                            x       y       z     vdW  Elec       q    Type
REMARK                         _______ _______ _______ _____ _____    ______ ____
ROOT
ATOM      1  C   UNL     1       3.637   5.999  18.613  0.00  0.00    +0.000 C 
ATOM      2  C   UNL     1       4.454   5.548  17.416  0.00  0.00    +0.000 A 
ATOM      3  C   UNL     1       4.735   6.403  16.338  0.00  0.00    +0.000 A 
ATOM      4  C   UNL     1       5.597   5.999  15.311  0.00  0.00    +0.000 A 
ATOM      5  C   UNL     1       6.199   4.744  15.359  0.00  0.00    +0.000 A 
ATOM      6  C   UNL     1       5.925   3.886  16.420  0.00  0.00    +0.000 A 
ATOM      7  C   UNL     1       5.055   4.284  17.438  0.00  0.00    +0.000 A 
ATOM      8  O   UNL     1       4.865   3.370  18.444  0.00  0.00    +0.000 OA
ATOM      9  C   UNL     1       3.902   3.620  19.389  0.00  0.00    +0.000 A 
ATOM     10  C   UNL     1       3.634   2.568  20.270  0.00  0.00    +0.000 A 
ATOM     11  C   UNL     1       2.685   2.724  21.277  0.00  0.00    +0.000 A 
ATOM     12  C   UNL     1       2.003   3.931  21.402  0.00  0.00    +0.000 A 
ATOM     13  C   UNL     1       2.281   4.988  20.530  0.00  0.00    +0.000 A 
ATOM     14  C   UNL     1       3.232   4.842  19.506  0.00  0.00    +0.000 A 
ENDROOT
BRANCH   1  16
ATOM     15  N   UNL     1       2.561   8.230  18.663  0.00  0.00    +0.000 N 
ATOM     16  C   UNL     1       2.465   6.921  18.252  0.00  0.00    +0.000 C 
ATOM     17  O   UNL     1       1.501   6.517  17.599  0.00  0.00    +0.000 OA
ATOM     18  H   UNL     1       3.277   8.491  19.335  0.00  0.00    +0.000 HD
BRANCH  15  19
ATOM     19  C   UNL     1       1.500   9.180  18.413  0.00  0.00    +0.000 C 
BRANCH  19  23
ATOM     20  C   UNL     1      -0.148   9.519  23.232  0.00  0.00    +0.000 C 
ATOM     21  C   UNL     1       0.174   9.596  21.798  0.00  0.00    +0.000 A 
ATOM     22  C   UNL     1       1.074   8.962  20.980  0.00  0.00    +0.000 A 
ATOM     23  C   UNL     1       0.832   9.511  19.700  0.00  0.00    +0.000 A 
ATOM     24  N   UNL     1      -0.147  10.427  19.743  0.00  0.00    +0.000 NA
ATOM     25  O   UNL     1      -0.558  10.475  21.062  0.00  0.00    +0.000 OA
ENDBRANCH  19  23
ENDBRANCH  15  19
ENDBRANCH   1  16
TORSDOF 3
ENDMDL
MODEL 4
REMARK VINA RESULT:      -8.0      3.268      7.319
REMARK  Name = 
REMARK  4 active torsions:
REMARK  status: ('A' for Active; 'I' for Inactive)
REMARK    1  A    between atoms: C_1  and  C_2
REMARK    2  A    between atoms: C_4  and  C_5
REMARK    3  A    between atoms: C_5  and  N_6
REMARK    4  A    between atoms: C_7  and  C_9
REMARK                            x       y       z     vdW  Elec       q    Type
REMARK                         _______ _______ _______ _____ _____    ______ ____
ROOT
ATOM      1  C   UNL     1       3.463   6.079  19.244  0.00  0.00    +0.000 C 
ATOM      2  C   UNL     1       4.637   5.887  18.301  0.00  0.00    +0.000 A 
ATOM      3  C   UNL     1       5.271   6.968  17.666  0.00  0.00    +0.000 A 
ATOM      4  C   UNL     1       6.428   6.770  16.905  0.00  0.00    +0.000 A 
ATOM      5  C   UNL     1       6.975   5.494  16.783  0.00  0.00    +0.000 A 
ATOM      6  C   UNL     1       6.355   4.415  17.405  0.00  0.00    +0.000 A 
ATOM      7  C   UNL     1       5.191   4.610  18.154  0.00  0.00    +0.000 A 
ATOM      8  O   UNL     1       4.668   3.482  18.737  0.00  0.00    +0.000 OA
ATOM      9  C   UNL     1       3.443   3.565  19.348  0.00  0.00    +0.000 A 
ATOM     10  C   UNL     1       2.888   2.347  19.753  0.00  0.00    +0.000 A 
ATOM     11  C   UNL     1       1.653   2.321  20.397  0.00  0.00    +0.000 A 
ATOM     12  C   UNL     1       0.973   3.512  20.634  0.00  0.00    +0.000 A 
ATOM     13  C   UNL     1       1.534   4.731  20.242  0.00  0.00    +0.000 A 
ATOM     14  C   UNL     1       2.776   4.771  19.586  0.00  0.00    +0.000 A 
ENDROOT
BRANCH   1  16
ATOM     15  N   UNL     1       2.127   8.101  19.755  0.00  0.00    +0.000 N 
ATOM     16  C   UNL     1       2.486   7.176  18.802  0.00  0.00    +0.000 C 
ATOM     17  O   UNL     1       2.070   7.244  17.644  0.00  0.00    +0.000 OA
ATOM     18  H   UNL     1       2.350   7.926  20.730  0.00  0.00    +0.000 HD
BRANCH  15  19
ATOM     19  C   UNL     1       1.184   9.158  19.463  0.00  0.00    +0.000 C 
BRANCH  19  23
ATOM     20  C   UNL     1      -1.420  11.476  23.192  0.00  0.00    +0.000 C 
ATOM     21  C   UNL     1      -0.536  10.718  22.291  0.00  0.00    +0.000 A 
ATOM     22  C   UNL     1      -0.496  10.510  20.935  0.00  0.00    +0.000 A 
ATOM     23  C   UNL     1       0.636   9.685  20.741  0.00  0.00    +0.000 A 
ATOM     24  N   UNL     1       1.237   9.405  21.907  0.00  0.00    +0.000 NA
ATOM     25  O   UNL     1       0.499  10.058  22.876  0.00  0.00    +0.000 OA
ENDBRANCH  19  23
ENDBRANCH  15  19
ENDBRANCH   1  16
TORSDOF 3
ENDMDL
MODEL 5
REMARK VINA RESULT:      -7.9      2.896      7.035
REMARK  Name = 
REMARK  4 active torsions:
REMARK  status: ('A' for Active; 'I' for Inactive)
REMARK    1  A    between atoms: C_1  and  C_2
REMARK    2  A    between atoms: C_4  and  C_5
REMARK    3  A    between atoms: C_5  and  N_6
REMARK    4  A    between atoms: C_7  and  C_9
REMARK                            x       y       z     vdW  Elec       q    Type
REMARK                         _______ _______ _______ _____ _____    ______ ____
ROOT
ATOM      1  C   UNL     1       2.581   5.836  18.074  0.00  0.00    +0.000 C 
ATOM      2  C   UNL     1       2.304   4.697  19.038  0.00  0.00    +0.000 A 
ATOM      3  C   UNL     1       1.267   4.752  19.983  0.00  0.00    +0.000 A 
ATOM      4  C   UNL     1       0.956   3.637  20.769  0.00  0.00    +0.000 A 
ATOM      5  C   UNL     1       1.667   2.450  20.608  0.00  0.00    +0.000 A 
ATOM      6  C   UNL     1       2.699   2.383  19.678  0.00  0.00    +0.000 A 
ATOM      7  C   UNL     1       3.018   3.501  18.902  0.00  0.00    +0.000 A 
ATOM      8  O   UNL     1       4.042   3.324  18.006  0.00  0.00    +0.000 OA
ATOM      9  C   UNL     1       4.520   4.417  17.328  0.00  0.00    +0.000 A 
ATOM     10  C   UNL     1       5.679   4.201  16.576  0.00  0.00    +0.000 A 
ATOM     11  C   UNL     1       6.238   5.241  15.838  0.00  0.00    +0.000 A 
ATOM     12  C   UNL     1       5.640   6.498  15.854  0.00  0.00    +0.000 A 
ATOM     13  C   UNL     1       4.473   6.711  16.595  0.00  0.00    +0.000 A 
ATOM     14  C   UNL     1       3.902   5.671  17.348  0.00  0.00    +0.000 A 
ENDROOT
BRANCH   1  16
ATOM     15  N   UNL     1       1.974   8.227  17.848  0.00  0.00    +0.000 N 
ATOM     16  C   UNL     1       2.402   7.229  18.692  0.00  0.00    +0.000 C 
ATOM     17  O   UNL     1       2.600   7.435  19.891  0.00  0.00    +0.000 OA
ATOM     18  H   UNL     1       1.980   8.070  16.845  0.00  0.00    +0.000 HD
BRANCH  15  19
ATOM     19  C   UNL     1       1.806   9.587  18.312  0.00  0.00    +0.000 C 
BRANCH  19  23
ATOM     20  C   UNL     1      -3.219  10.193  17.650  0.00  0.00    +0.000 C 
ATOM     21  C   UNL     1      -1.806  10.116  18.054  0.00  0.00    +0.000 A 
ATOM     22  C   UNL     1      -0.668   9.610  17.477  0.00  0.00    +0.000 A 
ATOM     23  C   UNL     1       0.353   9.888  18.415  0.00  0.00    +0.000 A 
ATOM     24  N   UNL     1      -0.137  10.515  19.494  0.00  0.00    +0.000 NA
ATOM     25  O   UNL     1      -1.492  10.658  19.261  0.00  0.00    +0.000 OA
ENDBRANCH  19  23
ENDBRANCH  15  19
ENDBRANCH   1  16
TORSDOF 3
ENDMDL
MODEL 6
REMARK VINA RESULT:      -7.9      2.675      7.065
REMARK  Name = 
REMARK  4 active torsions:
REMARK  status: ('A' for Active; 'I' for Inactive)
REMARK    1  A    between atoms: C_1  and  C_2
REMARK    2  A    between atoms: C_4  and  C_5
REMARK    3  A    between atoms: C_5  and  N_6
REMARK    4  A    between atoms: C_7  and  C_9
REMARK                            x       y       z     vdW  Elec       q    Type
REMARK                         _______ _______ _______ _____ _____    ______ ____
ROOT
ATOM      1  C   UNL     1       2.908   5.494  17.714  0.00  0.00    +0.000 C 
ATOM      2  C   UNL     1       2.498   4.460  18.747  0.00  0.00    +0.000 A 
ATOM      3  C   UNL     1       1.533   4.728  19.731  0.00  0.00    +0.000 A 
ATOM      4  C   UNL     1       1.085   3.715  20.586  0.00  0.00    +0.000 A 
ATOM      5  C   UNL     1       1.584   2.421  20.457  0.00  0.00    +0.000 A 
ATOM      6  C   UNL     1       2.543   2.143  19.489  0.00  0.00    +0.000 A 
ATOM      7  C   UNL     1       3.001   3.158  18.643  0.00  0.00    +0.000 A 
ATOM      8  O   UNL     1       3.936   2.775  17.714  0.00  0.00    +0.000 OA
ATOM      9  C   UNL     1       4.551   3.743  16.962  0.00  0.00    +0.000 A 
ATOM     10  C   UNL     1       5.620   3.306  16.173  0.00  0.00    +0.000 A 
ATOM     11  C   UNL     1       6.303   4.206  15.360  0.00  0.00    +0.000 A 
ATOM     12  C   UNL     1       5.918   5.543  15.335  0.00  0.00    +0.000 A 
ATOM     13  C   UNL     1       4.841   5.978  16.112  0.00  0.00    +0.000 A 
ATOM     14  C   UNL     1       4.146   5.082  16.942  0.00  0.00    +0.000 A 
ENDROOT
BRANCH   1  16
ATOM     15  N   UNL     1       2.072   7.825  17.779  0.00  0.00    +0.000 N 
ATOM     16  C   UNL     1       2.989   6.923  18.266  0.00  0.00    +0.000 C 
ATOM     17  O   UNL     1       3.814   7.239  19.125  0.00  0.00    +0.000 OA
ATOM     18  H   UNL     1       1.520   7.584  16.961  0.00  0.00    +0.000 HD
BRANCH  15  19
ATOM     19  C   UNL     1       2.077   9.209  18.199  0.00  0.00    +0.000 C 
BRANCH  19  23
ATOM     20  C   UNL     1      -0.525   9.144  22.591  0.00  0.00    +0.000 C 
ATOM     21  C   UNL     1       0.051   9.302  21.245  0.00  0.00    +0.000 A 
ATOM     22  C   UNL     1       1.207   8.879  20.639  0.00  0.00    +0.000 A 
ATOM     23  C   UNL     1       1.114   9.379  19.320  0.00  0.00    +0.000 A 
ATOM     24  N   UNL     1      -0.023  10.068  19.142  0.00  0.00    +0.000 NA
ATOM     25  O   UNL     1      -0.688  10.015  20.353  0.00  0.00    +0.000 OA
ENDBRANCH  19  23
ENDBRANCH  15  19
ENDBRANCH   1  16
TORSDOF 3
ENDMDL
MODEL 7
REMARK VINA RESULT:      -7.8      3.474      7.269
REMARK  Name = 
REMARK  4 active torsions:
REMARK  status: ('A' for Active; 'I' for Inactive)
REMARK    1  A    between atoms: C_1  and  C_2
REMARK    2  A    between atoms: C_4  and  C_5
REMARK    3  A    between atoms: C_5  and  N_6
REMARK    4  A    between atoms: C_7  and  C_9
REMARK                            x       y       z     vdW  Elec       q    Type
REMARK                         _______ _______ _______ _____ _____    ______ ____
ROOT
ATOM      1  C   UNL     1       3.810   5.983  17.770  0.00  0.00    +0.000 C 
ATOM      2  C   UNL     1       3.173   4.948  18.679  0.00  0.00    +0.000 A 
ATOM      3  C   UNL     1       1.781   4.771  18.750  0.00  0.00    +0.000 A 
ATOM      4  C   UNL     1       1.231   3.725  19.500  0.00  0.00    +0.000 A 
ATOM      5  C   UNL     1       2.066   2.834  20.172  0.00  0.00    +0.000 A 
ATOM      6  C   UNL     1       3.445   3.000  20.111  0.00  0.00    +0.000 A 
ATOM      7  C   UNL     1       3.995   4.053  19.374  0.00  0.00    +0.000 A 
ATOM      8  O   UNL     1       5.366   4.118  19.368  0.00  0.00    +0.000 OA
ATOM      9  C   UNL     1       5.970   5.214  18.806  0.00  0.00    +0.000 A 
ATOM     10  C   UNL     1       7.352   5.305  18.999  0.00  0.00    +0.000 A 
ATOM     11  C   UNL     1       8.065   6.371  18.456  0.00  0.00    +0.000 A 
ATOM     12  C   UNL     1       7.397   7.346  17.721  0.00  0.00    +0.000 A 
ATOM     13  C   UNL     1       6.017   7.247  17.515  0.00  0.00    +0.000 A 
ATOM     14  C   UNL     1       5.285   6.180  18.063  0.00  0.00    +0.000 A 
ENDROOT
BRANCH   1  16
ATOM     15  N   UNL     1       2.429   7.735  18.846  0.00  0.00    +0.000 N 
ATOM     16  C   UNL     1       3.030   7.301  17.688  0.00  0.00    +0.000 C 
ATOM     17  O   UNL     1       2.972   7.954  16.644  0.00  0.00    +0.000 OA
ATOM     18  H   UNL     1       2.353   7.102  19.637  0.00  0.00    +0.000 HD
BRANCH  15  19
ATOM     19  C   UNL     1       1.637   8.944  18.878  0.00  0.00    +0.000 C 
BRANCH  19  23
ATOM     20  C   UNL     1      -0.869  10.365  23.093  0.00  0.00    +0.000 C 
ATOM     21  C   UNL     1      -0.053   9.786  22.014  0.00  0.00    +0.000 A 
ATOM     22  C   UNL     1       0.095  10.047  20.675  0.00  0.00    +0.000 A 
ATOM     23  C   UNL     1       1.063   9.112  20.240  0.00  0.00    +0.000 A 
ATOM     24  N   UNL     1       1.468   8.329  21.251  0.00  0.00    +0.000 NA
ATOM     25  O   UNL     1       0.767   8.758  22.362  0.00  0.00    +0.000 OA
ENDBRANCH  19  23
ENDBRANCH  15  19
ENDBRANCH   1  16
TORSDOF 3
ENDMDL
MODEL 8
REMARK VINA RESULT:      -7.8      3.148      6.826
REMARK  Name = 
REMARK  4 active torsions:
REMARK  status: ('A' for Active; 'I' for Inactive)
REMARK    1  A    between atoms: C_1  and  C_2
REMARK    2  A    between atoms: C_4  and  C_5
REMARK    3  A    between atoms: C_5  and  N_6
REMARK    4  A    between atoms: C_7  and  C_9
REMARK                            x       y       z     vdW  Elec       q    Type
REMARK                         _______ _______ _______ _____ _____    ______ ____
ROOT
ATOM      1  C   UNL     1       3.608   6.069  19.069  0.00  0.00    +0.000 C 
ATOM      2  C   UNL     1       4.852   5.781  18.250  0.00  0.00    +0.000 A 
ATOM      3  C   UNL     1       5.391   6.717  17.353  0.00  0.00    +0.000 A 
ATOM      4  C   UNL     1       6.609   6.471  16.709  0.00  0.00    +0.000 A 
ATOM      5  C   UNL     1       7.310   5.295  16.967  0.00  0.00    +0.000 A 
ATOM      6  C   UNL     1       6.786   4.359  17.852  0.00  0.00    +0.000 A 
ATOM      7  C   UNL     1       5.563   4.598  18.485  0.00  0.00    +0.000 A 
ATOM      8  O   UNL     1       5.143   3.617  19.349  0.00  0.00    +0.000 OA
ATOM      9  C   UNL     1       3.881   3.703  19.879  0.00  0.00    +0.000 A 
ATOM     10  C   UNL     1       3.452   2.583  20.598  0.00  0.00    +0.000 A 
ATOM     11  C   UNL     1       2.192   2.573  21.190  0.00  0.00    +0.000 A 
ATOM     12  C   UNL     1       1.361   3.682  21.064  0.00  0.00    +0.000 A 
ATOM     13  C   UNL     1       1.795   4.808  20.357  0.00  0.00    +0.000 A 
ATOM     14  C   UNL     1       3.062   4.829  19.749  0.00  0.00    +0.000 A 
ENDROOT
BRANCH   1  16
ATOM     15  N   UNL     1       2.473   8.213  18.564  0.00  0.00    +0.000 N 
ATOM     16  C   UNL     1       2.536   6.862  18.311  0.00  0.00    +0.000 C 
ATOM     17  O   UNL     1       1.791   6.322  17.491  0.00  0.00    +0.000 OA
ATOM     18  H   UNL     1       2.980   8.596  19.357  0.00  0.00    +0.000 HD
BRANCH  15  19
ATOM     19  C   UNL     1       1.479   9.054  17.935  0.00  0.00    +0.000 C 
BRANCH  19  23
ATOM     20  C   UNL     1      -1.606  12.037  20.700  0.00  0.00    +0.000 C 
ATOM     21  C   UNL     1      -0.646  11.089  20.111  0.00  0.00    +0.000 A 
ATOM     22  C   UNL     1      -0.297  10.747  18.829  0.00  0.00    +0.000 A 
ATOM     23  C   UNL     1       0.711   9.769  18.990  0.00  0.00    +0.000 A 
ATOM     24  N   UNL     1       0.950   9.528  20.288  0.00  0.00    +0.000 NA
ATOM     25  O   UNL     1       0.098  10.361  20.987  0.00  0.00    +0.000 OA
ENDBRANCH  19  23
ENDBRANCH  15  19
ENDBRANCH   1  16
TORSDOF 3
ENDMDL
MODEL 9
REMARK VINA RESULT:      -7.7      3.079      7.064
REMARK  Name = 
REMARK  4 active torsions:
REMARK  status: ('A' for Active; 'I' for Inactive)
REMARK    1  A    between atoms: C_1  and  C_2
REMARK    2  A    between atoms: C_4  and  C_5
REMARK    3  A    between atoms: C_5  and  N_6
REMARK    4  A    between atoms: C_7  and  C_9
REMARK                            x       y       z     vdW  Elec       q    Type
REMARK                         _______ _______ _______ _____ _____    ______ ____
ROOT
ATOM      1  C   UNL     1       2.985   5.788  17.887  0.00  0.00    +0.000 C 
ATOM      2  C   UNL     1       2.502   4.393  18.238  0.00  0.00    +0.000 A 
ATOM      3  C   UNL     1       1.247   4.162  18.825  0.00  0.00    +0.000 A 
ATOM      4  C   UNL     1       0.778   2.858  19.019  0.00  0.00    +0.000 A 
ATOM      5  C   UNL     1       1.550   1.771  18.614  0.00  0.00    +0.000 A 
ATOM      6  C   UNL     1       2.796   1.986  18.035  0.00  0.00    +0.000 A 
ATOM      7  C   UNL     1       3.271   3.289  17.853  0.00  0.00    +0.000 A 
ATOM      8  O   UNL     1       4.505   3.391  17.261  0.00  0.00    +0.000 OA
ATOM      9  C   UNL     1       5.106   4.622  17.199  0.00  0.00    +0.000 A 
ATOM     10  C   UNL     1       6.432   4.624  16.755  0.00  0.00    +0.000 A 
ATOM     11  C   UNL     1       7.130   5.824  16.642  0.00  0.00    +0.000 A 
ATOM     12  C   UNL     1       6.502   7.021  16.973  0.00  0.00    +0.000 A 
ATOM     13  C   UNL     1       5.172   7.021  17.403  0.00  0.00    +0.000 A 
ATOM     14  C   UNL     1       4.458   5.817  17.528  0.00  0.00    +0.000 A 
ENDROOT
BRANCH   1  16
ATOM     15  N   UNL     1       2.042   8.016  18.420  0.00  0.00    +0.000 N 
ATOM     16  C   UNL     1       2.594   6.858  18.915  0.00  0.00    +0.000 C 
ATOM     17  O   UNL     1       2.736   6.674  20.125  0.00  0.00    +0.000 OA
ATOM     18  H   UNL     1       2.091   8.206  17.423  0.00  0.00    +0.000 HD
BRANCH  15  19
ATOM     19  C   UNL     1       1.670   9.108  19.292  0.00  0.00    +0.000 C 
BRANCH  19  23
ATOM     20  C   UNL     1      -2.535  10.510  16.759  0.00  0.00    +0.000 C 
ATOM     21  C   UNL     1      -1.401  10.248  17.661  0.00  0.00    +0.000 A 
ATOM     22  C   UNL     1      -0.299   9.433  17.608  0.00  0.00    +0.000 A 
ATOM     23  C   UNL     1       0.387   9.693  18.816  0.00  0.00    +0.000 A 
ATOM     24  N   UNL     1      -0.263  10.601  19.557  0.00  0.00    +0.000 NA
ATOM     25  O   UNL     1      -1.384  10.949  18.827  0.00  0.00    +0.000 OA
ENDBRANCH  19  23
ENDBRANCH  15  19
ENDBRANCH   1  16
TORSDOF 3
ENDMDL
