MODEL 1
REMARK VINA RESULT:      -8.5      0.000      0.000
REMARK  Name = 
REMARK  6 active torsions:
REMARK  status: ('A' for Active; 'I' for Inactive)
REMARK    1  A    between atoms: C_7  and  S_8
REMARK    2  A    between atoms: S_8  and  N_11
REMARK    3  A    between atoms: N_11  and  C_12
REMARK    4  A    between atoms: C_18  and  O_19
REMARK    5  A    between atoms: O_19  and  C_20
REMARK    6  A    between atoms: C_20  and  C_21
REMARK                            x       y       z     vdW  Elec       q    Type
REMARK                         _______ _______ _______ _____ _____    ______ ____
ROOT
ATOM      1  N   UNL     1       3.034   5.016  18.505  0.00  0.00    +0.000 N 
ATOM      2  H   UNL     1       2.765   4.771  17.554  0.00  0.00    +0.000 HD
ENDROOT
BRANCH   1   3
ATOM      3  C   UNL     1       2.510   6.228  19.050  0.00  0.00    +0.000 A 
ATOM      4  C   UNL     1       2.497   7.364  18.234  0.00  0.00    +0.000 A 
ATOM      5  C   UNL     1       1.986   8.564  18.720  0.00  0.00    +0.000 A 
ATOM      6 CL   UNL     1       2.035   9.973  17.737  0.00  0.00    +0.000 Cl
ATOM      7  C   UNL     1       1.435   8.631  19.993  0.00  0.00    +0.000 A 
ATOM      8  C   UNL     1       1.429   7.495  20.806  0.00  0.00    +0.000 A 
ATOM      9  C   UNL     1       2.010   6.296  20.366  0.00  0.00    +0.000 A 
BRANCH   9  10
ATOM     10  O   UNL     1       2.082   5.167  21.150  0.00  0.00    +0.000 OA
BRANCH  10  11
ATOM     11  C   UNL     1       1.216   4.086  20.756  0.00  0.00    +0.000 C 
BRANCH  11  12
ATOM     12  C   UNL     1       1.658   2.719  21.270  0.00  0.00    +0.000 C 
ATOM     13  F   UNL     1       2.907   2.705  21.770  0.00  0.00    +0.000 F 
ATOM     14  F   UNL     1       0.815   2.277  22.234  0.00  0.00    +0.000 F 
ATOM     15  F   UNL     1       1.612   1.807  20.266  0.00  0.00    +0.000 F 
ENDBRANCH  11  12
ENDBRANCH  10  11
ENDBRANCH   9  10
ENDBRANCH   1   3
BRANCH   1  16
ATOM     16  S   UNL     1       4.603   4.527  18.880  0.00  0.00    +0.000 S 
ATOM     17  O   UNL     1       4.535   3.102  19.137  0.00  0.00    +0.000 OA
ATOM     18  O   UNL     1       5.190   5.444  19.830  0.00  0.00    +0.000 OA
BRANCH  16  25
ATOM     19  O   UNL     1       7.728   4.849  11.495  0.00  0.00    +0.000 OA
ATOM     20  C   UNL     1       7.153   4.646  12.558  0.00  0.00    +0.000 A 
ATOM     21  C   UNL     1       6.016   3.713  12.634  0.00  0.00    +0.000 A 
ATOM     22  C   UNL     1       5.346   3.485  13.768  0.00  0.00    +0.000 A 
ATOM     23  C   UNL     1       5.735   4.181  14.987  0.00  0.00    +0.000 A 
ATOM     24  C   UNL     1       5.055   4.012  16.197  0.00  0.00    +0.000 A 
ATOM     25  C   UNL     1       5.479   4.723  17.331  0.00  0.00    +0.000 A 
ATOM     26  C   UNL     1       6.602   5.557  17.285  0.00  0.00    +0.000 A 
ATOM     27  C   UNL     1       7.275   5.726  16.073  0.00  0.00    +0.000 A 
ATOM     28  C   UNL     1       6.830   5.046  14.942  0.00  0.00    +0.000 A 
ATOM     29  O   UNL     1       7.531   5.269  13.740  0.00  0.00    +0.000 OA
ENDBRANCH  16  25
ENDBRANCH   1  16
TORSDOF 6
ENDMDL
MODEL 2
REMARK VINA RESULT:      -8.4      4.030      8.125
REMARK  Name = 
REMARK  6 active torsions:
REMARK  status: ('A' for Active; 'I' for Inactive)
REMARK    1  A    between atoms: C_7  and  S_8
REMARK    2  A    between atoms: S_8  and  N_11
REMARK    3  A    between atoms: N_11  and  C_12
REMARK    4  A    between atoms: C_18  and  O_19
REMARK    5  A    between atoms: O_19  and  C_20
REMARK    6  A    between atoms: C_20  and  C_21
REMARK                            x       y       z     vdW  Elec       q    Type
REMARK                         _______ _______ _______ _____ _____    ______ ____
ROOT
ATOM      1  N   UNL     1       2.113   5.681  17.842  0.00  0.00    +0.000 N 
ATOM      2  H   UNL     1       1.154   5.997  17.710  0.00  0.00    +0.000 HD
ENDROOT
BRANCH   1   3
ATOM      3  C   UNL     1       2.309   4.369  18.371  0.00  0.00    +0.000 A 
ATOM      4  C   UNL     1       1.729   4.064  19.607  0.00  0.00    +0.000 A 
ATOM      5  C   UNL     1       1.887   2.794  20.156  0.00  0.00    +0.000 A 
ATOM      6 CL   UNL     1       1.229   2.447  21.705  0.00  0.00    +0.000 Cl
ATOM      7  C   UNL     1       2.569   1.806  19.459  0.00  0.00    +0.000 A 
ATOM      8  C   UNL     1       3.135   2.099  18.217  0.00  0.00    +0.000 A 
ATOM      9  C   UNL     1       3.057   3.393  17.680  0.00  0.00    +0.000 A 
BRANCH   9  10
ATOM     10  O   UNL     1       3.648   3.747  16.489  0.00  0.00    +0.000 OA
BRANCH  10  11
ATOM     11  C   UNL     1       5.068   3.982  16.551  0.00  0.00    +0.000 C 
BRANCH  11  12
ATOM     12  C   UNL     1       5.650   4.597  15.282  0.00  0.00    +0.000 C 
ATOM     13  F   UNL     1       5.520   5.935  15.219  0.00  0.00    +0.000 F 
ATOM     14  F   UNL     1       6.967   4.298  15.169  0.00  0.00    +0.000 F 
ATOM     15  F   UNL     1       5.039   4.077  14.188  0.00  0.00    +0.000 F 
ENDBRANCH  11  12
ENDBRANCH  10  11
ENDBRANCH   9  10
ENDBRANCH   1   3
BRANCH   1  16
ATOM     16  S   UNL     1       3.155   6.934  18.274  0.00  0.00    +0.000 S 
ATOM     17  O   UNL     1       3.626   7.518  17.034  0.00  0.00    +0.000 OA
ATOM     18  O   UNL     1       4.069   6.482  19.298  0.00  0.00    +0.000 OA
BRANCH  16  25
ATOM     19  O   UNL     1      -1.481  11.886  22.563  0.00  0.00    +0.000 OA
ATOM     20  C   UNL     1      -0.786  11.011  22.060  0.00  0.00    +0.000 A 
ATOM     21  C   UNL     1      -0.280   9.891  22.871  0.00  0.00    +0.000 A 
ATOM     22  C   UNL     1       0.502   8.931  22.366  0.00  0.00    +0.000 A 
ATOM     23  C   UNL     1       0.885   8.979  20.962  0.00  0.00    +0.000 A 
ATOM     24  C   UNL     1       1.727   8.026  20.380  0.00  0.00    +0.000 A 
ATOM     25  C   UNL     1       2.064   8.140  19.022  0.00  0.00    +0.000 A 
ATOM     26  C   UNL     1       1.530   9.161  18.228  0.00  0.00    +0.000 A 
ATOM     27  C   UNL     1       0.694  10.113  18.813  0.00  0.00    +0.000 A 
ATOM     28  C   UNL     1       0.390  10.016  20.169  0.00  0.00    +0.000 A 
ATOM     29  O   UNL     1      -0.440  11.015  20.715  0.00  0.00    +0.000 OA
ENDBRANCH  16  25
ENDBRANCH   1  16
TORSDOF 6
ENDMDL
MODEL 3
REMARK VINA RESULT:      -8.3      4.090      8.213
REMARK  Name = 
REMARK  6 active torsions:
REMARK  status: ('A' for Active; 'I' for Inactive)
REMARK    1  A    between atoms: C_7  and  S_8
REMARK    2  A    between atoms: S_8  and  N_11
REMARK    3  A    between atoms: N_11  and  C_12
REMARK    4  A    between atoms: C_18  and  O_19
REMARK    5  A    between atoms: O_19  and  C_20
REMARK    6  A    between atoms: C_20  and  C_21
REMARK                            x       y       z     vdW  Elec       q    Type
REMARK                         _______ _______ _______ _____ _____    ______ ____
ROOT
ATOM      1  N   UNL     1       3.638   6.290  19.588  0.00  0.00    +0.000 N 
ATOM      2  H   UNL     1       4.536   6.725  19.792  0.00  0.00    +0.000 HD
ENDROOT
BRANCH   1   3
ATOM      3  C   UNL     1       3.530   4.878  19.772  0.00  0.00    +0.000 A 
ATOM      4  C   UNL     1       2.560   4.403  20.662  0.00  0.00    +0.000 A 
ATOM      5  C   UNL     1       2.413   3.034  20.866  0.00  0.00    +0.000 A 
ATOM      6 CL   UNL     1       1.267   2.460  22.010  0.00  0.00    +0.000 Cl
ATOM      7  C   UNL     1       3.185   2.129  20.149  0.00  0.00    +0.000 A 
ATOM      8  C   UNL     1       4.143   2.596  19.247  0.00  0.00    +0.000 A 
ATOM      9  C   UNL     1       4.363   3.973  19.084  0.00  0.00    +0.000 A 
BRANCH   9  10
ATOM     10  O   UNL     1       5.333   4.483  18.252  0.00  0.00    +0.000 OA
BRANCH  10  11
ATOM     11  C   UNL     1       5.121   4.256  16.846  0.00  0.00    +0.000 C 
BRANCH  11  12
ATOM     12  C   UNL     1       6.122   4.973  15.945  0.00  0.00    +0.000 C 
ATOM     13  F   UNL     1       6.267   6.282  16.228  0.00  0.00    +0.000 F 
ATOM     14  F   UNL     1       7.341   4.389  16.027  0.00  0.00    +0.000 F 
ATOM     15  F   UNL     1       5.733   4.879  14.648  0.00  0.00    +0.000 F 
ENDBRANCH  11  12
ENDBRANCH  10  11
ENDBRANCH   9  10
ENDBRANCH   1   3
BRANCH   1  16
ATOM     16  S   UNL     1       2.827   7.044  18.316  0.00  0.00    +0.000 S 
ATOM     17  O   UNL     1       1.907   6.062  17.780  0.00  0.00    +0.000 OA
ATOM     18  O   UNL     1       3.774   7.741  17.476  0.00  0.00    +0.000 OA
BRANCH  16  25
ATOM     19  O   UNL     1      -1.425  12.066  22.912  0.00  0.00    +0.000 OA
ATOM     20  C   UNL     1      -0.796  11.174  22.355  0.00  0.00    +0.000 A 
ATOM     21  C   UNL     1      -0.365   9.978  23.100  0.00  0.00    +0.000 A 
ATOM     22  C   UNL     1       0.345   8.996  22.536  0.00  0.00    +0.000 A 
ATOM     23  C   UNL     1       0.722   9.093  21.133  0.00  0.00    +0.000 A 
ATOM     24  C   UNL     1       1.492   8.117  20.493  0.00  0.00    +0.000 A 
ATOM     25  C   UNL     1       1.827   8.281  19.139  0.00  0.00    +0.000 A 
ATOM     26  C   UNL     1       1.362   9.378  18.406  0.00  0.00    +0.000 A 
ATOM     27  C   UNL     1       0.598  10.353  19.050  0.00  0.00    +0.000 A 
ATOM     28  C   UNL     1       0.297  10.204  20.402  0.00  0.00    +0.000 A 
ATOM     29  O   UNL     1      -0.458  11.227  21.009  0.00  0.00    +0.000 OA
ENDBRANCH  16  25
ENDBRANCH   1  16
TORSDOF 6
ENDMDL
MODEL 4
REMARK VINA RESULT:      -8.3      4.439      8.421
REMARK  Name = 
REMARK  6 active torsions:
REMARK  status: ('A' for Active; 'I' for Inactive)
REMARK    1  A    between atoms: C_7  and  S_8
REMARK    2  A    between atoms: S_8  and  N_11
REMARK    3  A    between atoms: N_11  and  C_12
REMARK    4  A    between atoms: C_18  and  O_19
REMARK    5  A    between atoms: O_19  and  C_20
REMARK    6  A    between atoms: C_20  and  C_21
REMARK                            x       y       z     vdW  Elec       q    Type
REMARK                         _______ _______ _______ _____ _____    ______ ____
ROOT
ATOM      1  N   UNL     1       3.359   6.603  19.707  0.00  0.00    +0.000 N 
ATOM      2  H   UNL     1       4.196   7.109  19.991  0.00  0.00    +0.000 HD
ENDROOT
BRANCH   1   3
ATOM      3  C   UNL     1       3.379   5.179  19.811  0.00  0.00    +0.000 A 
ATOM      4  C   UNL     1       2.465   4.570  20.677  0.00  0.00    +0.000 A 
ATOM      5  C   UNL     1       2.443   3.184  20.804  0.00  0.00    +0.000 A 
ATOM      6 CL   UNL     1       1.364   2.446  21.919  0.00  0.00    +0.000 Cl
ATOM      7  C   UNL     1       3.285   2.393  20.032  0.00  0.00    +0.000 A 
ATOM      8  C   UNL     1       4.187   2.994  19.153  0.00  0.00    +0.000 A 
ATOM      9  C   UNL     1       4.282   4.392  19.068  0.00  0.00    +0.000 A 
BRANCH   9  10
ATOM     10  O   UNL     1       5.195   5.033  18.261  0.00  0.00    +0.000 OA
BRANCH  10  11
ATOM     11  C   UNL     1       6.409   5.448  18.914  0.00  0.00    +0.000 C 
BRANCH  11  12
ATOM     12  C   UNL     1       7.287   6.363  18.066  0.00  0.00    +0.000 C 
ATOM     13  F   UNL     1       6.645   7.448  17.595  0.00  0.00    +0.000 F 
ATOM     14  F   UNL     1       8.361   6.786  18.776  0.00  0.00    +0.000 F 
ATOM     15  F   UNL     1       7.773   5.683  16.996  0.00  0.00    +0.000 F 
ENDBRANCH  11  12
ENDBRANCH  10  11
ENDBRANCH   9  10
ENDBRANCH   1   3
BRANCH   1  16
ATOM     16  S   UNL     1       2.556   7.349  18.426  0.00  0.00    +0.000 S 
ATOM     17  O   UNL     1       1.661   6.353  17.871  0.00  0.00    +0.000 OA
ATOM     18  O   UNL     1       3.503   8.064  17.602  0.00  0.00    +0.000 OA
BRANCH  16  25
ATOM     19  O   UNL     1      -1.838  12.290  22.975  0.00  0.00    +0.000 OA
ATOM     20  C   UNL     1      -1.186  11.410  22.426  0.00  0.00    +0.000 A 
ATOM     21  C   UNL     1      -0.733  10.227  23.178  0.00  0.00    +0.000 A 
ATOM     22  C   UNL     1       0.002   9.258  22.622  0.00  0.00    +0.000 A 
ATOM     23  C   UNL     1       0.387   9.360  21.221  0.00  0.00    +0.000 A 
ATOM     24  C   UNL     1       1.182   8.399  20.589  0.00  0.00    +0.000 A 
ATOM     25  C   UNL     1       1.523   8.565  19.237  0.00  0.00    +0.000 A 
ATOM     26  C   UNL     1       1.038   9.649  18.498  0.00  0.00    +0.000 A 
ATOM     27  C   UNL     1       0.248  10.609  19.133  0.00  0.00    +0.000 A 
ATOM     28  C   UNL     1      -0.059  10.458  20.483  0.00  0.00    +0.000 A 
ATOM     29  O   UNL     1      -0.841  11.466  21.082  0.00  0.00    +0.000 OA
ENDBRANCH  16  25
ENDBRANCH   1  16
TORSDOF 6
ENDMDL
MODEL 5
REMARK VINA RESULT:      -8.1      3.810      8.044
REMARK  Name = 
REMARK  6 active torsions:
REMARK  status: ('A' for Active; 'I' for Inactive)
REMARK    1  A    between atoms: C_7  and  S_8
REMARK    2  A    between atoms: S_8  and  N_11
REMARK    3  A    between atoms: N_11  and  C_12
REMARK    4  A    between atoms: C_18  and  O_19
REMARK    5  A    between atoms: O_19  and  C_20
REMARK    6  A    between atoms: C_20  and  C_21
REMARK                            x       y       z     vdW  Elec       q    Type
REMARK                         _______ _______ _______ _____ _____    ______ ____
ROOT
ATOM      1  N   UNL     1       2.068   5.838  17.793  0.00  0.00    +0.000 N 
ATOM      2  H   UNL     1       1.087   6.098  17.704  0.00  0.00    +0.000 HD
ENDROOT
BRANCH   1   3
ATOM      3  C   UNL     1       2.364   4.552  18.337  0.00  0.00    +0.000 A 
ATOM      4  C   UNL     1       1.753   4.191  19.543  0.00  0.00    +0.000 A 
ATOM      5  C   UNL     1       2.005   2.943  20.105  0.00  0.00    +0.000 A 
ATOM      6 CL   UNL     1       1.306   2.532  21.620  0.00  0.00    +0.000 Cl
ATOM      7  C   UNL     1       2.816   2.026  19.449  0.00  0.00    +0.000 A 
ATOM      8  C   UNL     1       3.415   2.374  18.236  0.00  0.00    +0.000 A 
ATOM      9  C   UNL     1       3.238   3.654  17.690  0.00  0.00    +0.000 A 
BRANCH   9  10
ATOM     10  O   UNL     1       3.853   4.065  16.530  0.00  0.00    +0.000 OA
BRANCH  10  11
ATOM     11  C   UNL     1       5.227   3.662  16.384  0.00  0.00    +0.000 C 
BRANCH  11  12
ATOM     12  C   UNL     1       6.224   4.607  17.047  0.00  0.00    +0.000 C 
ATOM     13  F   UNL     1       6.220   4.543  18.392  0.00  0.00    +0.000 F 
ATOM     14  F   UNL     1       7.484   4.348  16.618  0.00  0.00    +0.000 F 
ATOM     15  F   UNL     1       5.953   5.891  16.700  0.00  0.00    +0.000 F 
ENDBRANCH  11  12
ENDBRANCH  10  11
ENDBRANCH   9  10
ENDBRANCH   1   3
BRANCH   1  16
ATOM     16  S   UNL     1       3.058   7.156  18.144  0.00  0.00    +0.000 S 
ATOM     17  O   UNL     1       3.381   7.774  16.873  0.00  0.00    +0.000 OA
ATOM     18  O   UNL     1       4.085   6.763  19.081  0.00  0.00    +0.000 OA
BRANCH  16  25
ATOM     19  O   UNL     1      -1.545  11.741  22.856  0.00  0.00    +0.000 OA
ATOM     20  C   UNL     1      -0.841  10.917  22.284  0.00  0.00    +0.000 A 
ATOM     21  C   UNL     1      -0.246   9.791  23.024  0.00  0.00    +0.000 A 
ATOM     22  C   UNL     1       0.548   8.886  22.442  0.00  0.00    +0.000 A 
ATOM     23  C   UNL     1       0.852   9.002  21.023  0.00  0.00    +0.000 A 
ATOM     24  C   UNL     1       1.701   8.108  20.362  0.00  0.00    +0.000 A 
ATOM     25  C   UNL     1       1.959   8.286  18.993  0.00  0.00    +0.000 A 
ATOM     26  C   UNL     1       1.341   9.310  18.268  0.00  0.00    +0.000 A 
ATOM     27  C   UNL     1       0.498  10.203  18.932  0.00  0.00    +0.000 A 
ATOM     28  C   UNL     1       0.272  10.044  20.297  0.00  0.00    +0.000 A 
ATOM     29  O   UNL     1      -0.569  10.985  20.924  0.00  0.00    +0.000 OA
ENDBRANCH  16  25
ENDBRANCH   1  16
TORSDOF 6
ENDMDL
MODEL 6
REMARK VINA RESULT:      -8.0      4.168      8.130
REMARK  Name = 
REMARK  6 active torsions:
REMARK  status: ('A' for Active; 'I' for Inactive)
REMARK    1  A    between atoms: C_7  and  S_8
REMARK    2  A    between atoms: S_8  and  N_11
REMARK    3  A    between atoms: N_11  and  C_12
REMARK    4  A    between atoms: C_18  and  O_19
REMARK    5  A    between atoms: O_19  and  C_20
REMARK    6  A    between atoms: C_20  and  C_21
REMARK                            x       y       z     vdW  Elec       q    Type
REMARK                         _______ _______ _______ _____ _____    ______ ____
ROOT
ATOM      1  N   UNL     1       3.739   6.395  19.606  0.00  0.00    +0.000 N 
ATOM      2  H   UNL     1       4.636   6.861  19.736  0.00  0.00    +0.000 HD
ENDROOT
BRANCH   1   3
ATOM      3  C   UNL     1       3.687   4.987  19.837  0.00  0.00    +0.000 A 
ATOM      4  C   UNL     1       2.619   4.482  20.587  0.00  0.00    +0.000 A 
ATOM      5  C   UNL     1       2.523   3.115  20.828  0.00  0.00    +0.000 A 
ATOM      6 CL   UNL     1       1.247   2.509  21.807  0.00  0.00    +0.000 Cl
ATOM      7  C   UNL     1       3.450   2.237  20.282  0.00  0.00    +0.000 A 
ATOM      8  C   UNL     1       4.508   2.733  19.518  0.00  0.00    +0.000 A 
ATOM      9  C   UNL     1       4.669   4.114  19.327  0.00  0.00    +0.000 A 
BRANCH   9  10
ATOM     10  O   UNL     1       5.727   4.655  18.633  0.00  0.00    +0.000 OA
BRANCH  10  11
ATOM     11  C   UNL     1       5.661   4.515  17.202  0.00  0.00    +0.000 C 
BRANCH  11  12
ATOM     12  C   UNL     1       7.003   4.695  16.499  0.00  0.00    +0.000 C 
ATOM     13  F   UNL     1       7.071   4.094  15.296  0.00  0.00    +0.000 F 
ATOM     14  F   UNL     1       7.278   6.011  16.327  0.00  0.00    +0.000 F 
ATOM     15  F   UNL     1       8.002   4.186  17.263  0.00  0.00    +0.000 F 
ENDBRANCH  11  12
ENDBRANCH  10  11
ENDBRANCH   9  10
ENDBRANCH   1   3
BRANCH   1  16
ATOM     16  S   UNL     1       2.821   7.088  18.374  0.00  0.00    +0.000 S 
ATOM     17  O   UNL     1       1.968   6.036  17.860  0.00  0.00    +0.000 OA
ATOM     18  O   UNL     1       3.673   7.870  17.507  0.00  0.00    +0.000 OA
BRANCH  16  25
ATOM     19  O   UNL     1      -2.203  12.610  21.322  0.00  0.00    +0.000 OA
ATOM     20  C   UNL     1      -1.423  11.883  20.718  0.00  0.00    +0.000 A 
ATOM     21  C   UNL     1      -1.129  12.112  19.293  0.00  0.00    +0.000 A 
ATOM     22  C   UNL     1      -0.305  11.326  18.592  0.00  0.00    +0.000 A 
ATOM     23  C   UNL     1       0.333  10.190  19.243  0.00  0.00    +0.000 A 
ATOM     24  C   UNL     1       1.178   9.311  18.559  0.00  0.00    +0.000 A 
ATOM     25  C   UNL     1       1.752   8.229  19.247  0.00  0.00    +0.000 A 
ATOM     26  C   UNL     1       1.534   8.046  20.617  0.00  0.00    +0.000 A 
ATOM     27  C   UNL     1       0.686   8.924  21.295  0.00  0.00    +0.000 A 
ATOM     28  C   UNL     1       0.091   9.974  20.601  0.00  0.00    +0.000 A 
ATOM     29  O   UNL     1      -0.773  10.818  21.327  0.00  0.00    +0.000 OA
ENDBRANCH  16  25
ENDBRANCH   1  16
TORSDOF 6
ENDMDL
MODEL 7
REMARK VINA RESULT:      -8.0      3.966      7.256
REMARK  Name = 
REMARK  6 active torsions:
REMARK  status: ('A' for Active; 'I' for Inactive)
REMARK    1  A    between atoms: C_7  and  S_8
REMARK    2  A    between atoms: S_8  and  N_11
REMARK    3  A    between atoms: N_11  and  C_12
REMARK    4  A    between atoms: C_18  and  O_19
REMARK    5  A    between atoms: O_19  and  C_20
REMARK    6  A    between atoms: C_20  and  C_21
REMARK                            x       y       z     vdW  Elec       q    Type
REMARK                         _______ _______ _______ _____ _____    ______ ____
ROOT
ATOM      1  N   UNL     1       4.939   3.438  17.938  0.00  0.00    +0.000 N 
ATOM      2  H   UNL     1       5.380   3.605  18.841  0.00  0.00    +0.000 HD
ENDROOT
BRANCH   1   3
ATOM      3  C   UNL     1       5.517   4.066  16.793  0.00  0.00    +0.000 A 
ATOM      4  C   UNL     1       5.383   3.429  15.555  0.00  0.00    +0.000 A 
ATOM      5  C   UNL     1       5.923   4.010  14.411  0.00  0.00    +0.000 A 
ATOM      6 CL   UNL     1       5.814   3.190  12.905  0.00  0.00    +0.000 Cl
ATOM      7  C   UNL     1       6.545   5.249  14.478  0.00  0.00    +0.000 A 
ATOM      8  C   UNL     1       6.666   5.899  15.708  0.00  0.00    +0.000 A 
ATOM      9  C   UNL     1       6.200   5.296  16.886  0.00  0.00    +0.000 A 
BRANCH   9  10
ATOM     10  O   UNL     1       6.348   5.867  18.129  0.00  0.00    +0.000 OA
BRANCH  10  11
ATOM     11  C   UNL     1       7.667   6.363  18.427  0.00  0.00    +0.000 C 
BRANCH  11  12
ATOM     12  C   UNL     1       7.886   7.820  18.029  0.00  0.00    +0.000 C 
ATOM     13  F   UNL     1       6.748   8.534  17.938  0.00  0.00    +0.000 F 
ATOM     14  F   UNL     1       8.700   8.439  18.918  0.00  0.00    +0.000 F 
ATOM     15  F   UNL     1       8.505   7.887  16.824  0.00  0.00    +0.000 F 
ENDBRANCH  11  12
ENDBRANCH  10  11
ENDBRANCH   9  10
ENDBRANCH   1   3
BRANCH   1  16
ATOM     16  S   UNL     1       3.266   3.263  18.056  0.00  0.00    +0.000 S 
ATOM     17  O   UNL     1       3.032   2.265  19.081  0.00  0.00    +0.000 OA
ATOM     18  O   UNL     1       2.690   3.149  16.736  0.00  0.00    +0.000 OA
BRANCH  16  25
ATOM     19  O   UNL     1       0.890  10.647  20.117  0.00  0.00    +0.000 OA
ATOM     20  C   UNL     1       1.320   9.602  19.642  0.00  0.00    +0.000 A 
ATOM     21  C   UNL     1       1.750   9.536  18.235  0.00  0.00    +0.000 A 
ATOM     22  C   UNL     1       2.200   8.410  17.672  0.00  0.00    +0.000 A 
ATOM     23  C   UNL     1       2.271   7.188  18.462  0.00  0.00    +0.000 A 
ATOM     24  C   UNL     1       2.701   5.971  17.925  0.00  0.00    +0.000 A 
ATOM     25  C   UNL     1       2.735   4.830  18.741  0.00  0.00    +0.000 A 
ATOM     26  C   UNL     1       2.396   4.900  20.097  0.00  0.00    +0.000 A 
ATOM     27  C   UNL     1       1.963   6.117  20.629  0.00  0.00    +0.000 A 
ATOM     28  C   UNL     1       1.897   7.238  19.806  0.00  0.00    +0.000 A 
ATOM     29  O   UNL     1       1.433   8.436  20.386  0.00  0.00    +0.000 OA
ENDBRANCH  16  25
ENDBRANCH   1  16
TORSDOF 6
ENDMDL
MODEL 8
REMARK VINA RESULT:      -8.0      4.407      8.419
REMARK  Name = 
REMARK  6 active torsions:
REMARK  status: ('A' for Active; 'I' for Inactive)
REMARK    1  A    between atoms: C_7  and  S_8
REMARK    2  A    between atoms: S_8  and  N_11
REMARK    3  A    between atoms: N_11  and  C_12
REMARK    4  A    between atoms: C_18  and  O_19
REMARK    5  A    between atoms: O_19  and  C_20
REMARK    6  A    between atoms: C_20  and  C_21
REMARK                            x       y       z     vdW  Elec       q    Type
REMARK                         _______ _______ _______ _____ _____    ______ ____
ROOT
ATOM      1  N   UNL     1       2.868   6.474  19.758  0.00  0.00    +0.000 N 
ATOM      2  H   UNL     1       3.490   6.890  20.449  0.00  0.00    +0.000 HD
ENDROOT
BRANCH   1   3
ATOM      3  C   UNL     1       3.019   5.079  19.488  0.00  0.00    +0.000 A 
ATOM      4  C   UNL     1       1.862   4.322  19.275  0.00  0.00    +0.000 A 
ATOM      5  C   UNL     1       1.962   2.961  19.000  0.00  0.00    +0.000 A 
ATOM      6 CL   UNL     1       0.535   2.023  18.807  0.00  0.00    +0.000 Cl
ATOM      7  C   UNL     1       3.206   2.357  18.877  0.00  0.00    +0.000 A 
ATOM      8  C   UNL     1       4.365   3.112  19.071  0.00  0.00    +0.000 A 
ATOM      9  C   UNL     1       4.287   4.467  19.427  0.00  0.00    +0.000 A 
BRANCH   9  10
ATOM     10  O   UNL     1       5.397   5.238  19.687  0.00  0.00    +0.000 OA
BRANCH  10  11
ATOM     11  C   UNL     1       6.153   5.639  18.529  0.00  0.00    +0.000 C 
BRANCH  11  12
ATOM     12  C   UNL     1       7.661   5.684  18.758  0.00  0.00    +0.000 C 
ATOM     13  F   UNL     1       8.246   6.805  18.298  0.00  0.00    +0.000 F 
ATOM     14  F   UNL     1       7.945   5.573  20.078  0.00  0.00    +0.000 F 
ATOM     15  F   UNL     1       8.258   4.632  18.143  0.00  0.00    +0.000 F 
ENDBRANCH  11  12
ENDBRANCH  10  11
ENDBRANCH   9  10
ENDBRANCH   1   3
BRANCH   1  16
ATOM     16  S   UNL     1       2.474   7.541  18.514  0.00  0.00    +0.000 S 
ATOM     17  O   UNL     1       1.583   6.822  17.626  0.00  0.00    +0.000 OA
ATOM     18  O   UNL     1       3.670   8.193  18.030  0.00  0.00    +0.000 OA
BRANCH  16  25
ATOM     19  O   UNL     1      -1.834  12.536  23.086  0.00  0.00    +0.000 OA
ATOM     20  C   UNL     1      -1.211  11.642  22.525  0.00  0.00    +0.000 A 
ATOM     21  C   UNL     1      -0.885  10.393  23.233  0.00  0.00    +0.000 A 
ATOM     22  C   UNL     1      -0.185   9.405  22.665  0.00  0.00    +0.000 A 
ATOM     23  C   UNL     1       0.287   9.552  21.294  0.00  0.00    +0.000 A 
ATOM     24  C   UNL     1       1.050   8.572  20.655  0.00  0.00    +0.000 A 
ATOM     25  C   UNL     1       1.481   8.784  19.335  0.00  0.00    +0.000 A 
ATOM     26  C   UNL     1       1.115   9.937  18.632  0.00  0.00    +0.000 A 
ATOM     27  C   UNL     1       0.355  10.916  19.276  0.00  0.00    +0.000 A 
ATOM     28  C   UNL     1      -0.040  10.716  20.597  0.00  0.00    +0.000 A 
ATOM     29  O   UNL     1      -0.785  11.744  21.207  0.00  0.00    +0.000 OA
ENDBRANCH  16  25
ENDBRANCH   1  16
TORSDOF 6
ENDMDL
MODEL 9
REMARK VINA RESULT:      -7.9      4.054      8.019
REMARK  Name = 
REMARK  6 active torsions:
REMARK  status: ('A' for Active; 'I' for Inactive)
REMARK    1  A    between atoms: C_7  and  S_8
REMARK    2  A    between atoms: S_8  and  N_11
REMARK    3  A    between atoms: N_11  and  C_12
REMARK    4  A    between atoms: C_18  and  O_19
REMARK    5  A    between atoms: O_19  and  C_20
REMARK    6  A    between atoms: C_20  and  C_21
REMARK                            x       y       z     vdW  Elec       q    Type
REMARK                         _______ _______ _______ _____ _____    ______ ____
ROOT
ATOM      1  N   UNL     1       2.204   5.631  17.760  0.00  0.00    +0.000 N 
ATOM      2  H   UNL     1       1.242   5.916  17.584  0.00  0.00    +0.000 HD
ENDROOT
BRANCH   1   3
ATOM      3  C   UNL     1       2.419   4.336  18.321  0.00  0.00    +0.000 A 
ATOM      4  C   UNL     1       1.811   4.040  19.545  0.00  0.00    +0.000 A 
ATOM      5  C   UNL     1       1.986   2.787  20.125  0.00  0.00    +0.000 A 
ATOM      6 CL   UNL     1       1.293   2.453  21.662  0.00  0.00    +0.000 Cl
ATOM      7  C   UNL     1       2.714   1.803  19.468  0.00  0.00    +0.000 A 
ATOM      8  C   UNL     1       3.308   2.087  18.237  0.00  0.00    +0.000 A 
ATOM      9  C   UNL     1       3.212   3.367  17.672  0.00  0.00    +0.000 A 
BRANCH   9  10
ATOM     10  O   UNL     1       3.828   3.713  16.491  0.00  0.00    +0.000 OA
BRANCH  10  11
ATOM     11  C   UNL     1       5.254   3.896  16.570  0.00  0.00    +0.000 C 
BRANCH  11  12
ATOM     12  C   UNL     1       5.861   4.579  15.348  0.00  0.00    +0.000 C 
ATOM     13  F   UNL     1       5.908   3.794  14.256  0.00  0.00    +0.000 F 
ATOM     14  F   UNL     1       5.163   5.697  15.032  0.00  0.00    +0.000 F 
ATOM     15  F   UNL     1       7.130   4.977  15.618  0.00  0.00    +0.000 F 
ENDBRANCH  11  12
ENDBRANCH  10  11
ENDBRANCH   9  10
ENDBRANCH   1   3
BRANCH   1  16
ATOM     16  S   UNL     1       3.190   6.924  18.206  0.00  0.00    +0.000 S 
ATOM     17  O   UNL     1       3.500   7.641  16.986  0.00  0.00    +0.000 OA
ATOM     18  O   UNL     1       4.225   6.465  19.104  0.00  0.00    +0.000 OA
BRANCH  16  25
ATOM     19  O   UNL     1      -1.918  12.159  21.510  0.00  0.00    +0.000 OA
ATOM     20  C   UNL     1      -1.117  11.492  20.867  0.00  0.00    +0.000 A 
ATOM     21  C   UNL     1      -0.748  11.875  19.493  0.00  0.00    +0.000 A 
ATOM     22  C   UNL     1       0.102  11.160  18.749  0.00  0.00    +0.000 A 
ATOM     23  C   UNL     1       0.694   9.947  19.298  0.00  0.00    +0.000 A 
ATOM     24  C   UNL     1       1.563   9.138  18.561  0.00  0.00    +0.000 A 
ATOM     25  C   UNL     1       2.090   7.976  19.149  0.00  0.00    +0.000 A 
ATOM     26  C   UNL     1       1.801   7.644  20.477  0.00  0.00    +0.000 A 
ATOM     27  C   UNL     1       0.929   8.453  21.208  0.00  0.00    +0.000 A 
ATOM     28  C   UNL     1       0.381   9.585  20.609  0.00  0.00    +0.000 A 
ATOM     29  O   UNL     1      -0.510  10.354  21.383  0.00  0.00    +0.000 OA
ENDBRANCH  16  25
ENDBRANCH   1  16
TORSDOF 6
ENDMDL
