MODEL 1
REMARK VINA RESULT:      -9.0      0.000      0.000
REMARK  Name = 
REMARK  7 active torsions:
REMARK  status: ('A' for Active; 'I' for Inactive)
REMARK    1  A    between atoms: C_1  and  C_2
REMARK    2  A    between atoms: C_6  and  O_7
REMARK    3  A    between atoms: O_7  and  C_8
REMARK    4  A    between atoms: C_13  and  N_14
REMARK    5  A    between atoms: C_15  and  C_17
REMARK    6  A    between atoms: C_17  and  N_18
REMARK    7  A    between atoms: C_19  and  C_20
REMARK                            x       y       z     vdW  Elec       q    Type
REMARK                         _______ _______ _______ _____ _____    ______ ____
ROOT
ATOM      1  N   UNL     1       2.889   7.696  17.179  0.00  0.00    +0.000 N 
ATOM      2  C   UNL     1       4.273   7.539  17.208  0.00  0.00    +0.000 C 
ATOM      3  O   UNL     1       5.024   7.909  18.105  0.00  0.00    +0.000 OA
ATOM      4  H   UNL     1       2.403   6.970  16.671  0.00  0.00    +0.000 HD
ENDROOT
BRANCH   1  10
ATOM      5  C   UNL     1       2.164   7.530  19.545  0.00  0.00    +0.000 A 
ATOM      6  C   UNL     1       1.402   8.080  20.586  0.00  0.00    +0.000 A 
ATOM      7  C   UNL     1       0.776   9.316  20.433  0.00  0.00    +0.000 A 
ATOM      8  C   UNL     1       0.865   9.995  19.219  0.00  0.00    +0.000 A 
ATOM      9  C   UNL     1       1.569   9.433  18.161  0.00  0.00    +0.000 A 
ATOM     10  C   UNL     1       2.198   8.190  18.306  0.00  0.00    +0.000 A 
BRANCH   5  11
ATOM     11  O   UNL     1       2.920   6.385  19.712  0.00  0.00    +0.000 OA
BRANCH  11  17
ATOM     12  C   UNL     1       1.311   2.411  22.042  0.00  0.00    +0.000 C 
ATOM     13  C   UNL     1       1.499   3.175  20.765  0.00  0.00    +0.000 A 
ATOM     14  C   UNL     1       1.107   2.625  19.538  0.00  0.00    +0.000 A 
ATOM     15  C   UNL     1       1.269   3.349  18.357  0.00  0.00    +0.000 A 
ATOM     16  C   UNL     1       1.837   4.624  18.390  0.00  0.00    +0.000 A 
ATOM     17  C   UNL     1       2.294   5.158  19.600  0.00  0.00    +0.000 A 
ATOM     18  C   UNL     1       2.093   4.448  20.786  0.00  0.00    +0.000 A 
ENDBRANCH  11  17
ENDBRANCH   5  11
ENDBRANCH   1  10
BRANCH   2  19
ATOM     19  C   UNL     1       4.782   6.718  16.027  0.00  0.00    +0.000 C 
BRANCH  19  20
ATOM     20  N   UNL     1       5.646   5.609  16.394  0.00  0.00    +0.000 N 
ATOM     21  C   UNL     1       6.995   5.901  16.288  0.00  0.00    +0.000 A 
ATOM     22  C   UNL     1       7.594   6.751  17.377  0.00  0.00    +0.000 C 
ATOM     23  N   UNL     1       7.737   5.504  15.304  0.00  0.00    +0.000 NA
ATOM     24  C   UNL     1       7.091   4.789  14.285  0.00  0.00    +0.000 A 
ATOM     25  C   UNL     1       7.618   4.798  12.996  0.00  0.00    +0.000 A 
ATOM     26  C   UNL     1       6.933   4.164  11.956  0.00  0.00    +0.000 A 
ATOM     27  C   UNL     1       5.744   3.474  12.207  0.00  0.00    +0.000 A 
ATOM     28  C   UNL     1       5.209   3.451  13.497  0.00  0.00    +0.000 A 
ATOM     29  C   UNL     1       5.877   4.140  14.507  0.00  0.00    +0.000 A 
ATOM     30  C   UNL     1       5.233   4.415  15.801  0.00  0.00    +0.000 A 
ATOM     31  O   UNL     1       4.381   3.670  16.266  0.00  0.00    +0.000 OA
ENDBRANCH  19  20
ENDBRANCH   2  19
TORSDOF 5
ENDMDL
MODEL 2
REMARK VINA RESULT:      -8.8      0.859      1.151
REMARK  Name = 
REMARK  7 active torsions:
REMARK  status: ('A' for Active; 'I' for Inactive)
REMARK    1  A    between atoms: C_1  and  C_2
REMARK    2  A    between atoms: C_6  and  O_7
REMARK    3  A    between atoms: O_7  and  C_8
REMARK    4  A    between atoms: C_13  and  N_14
REMARK    5  A    between atoms: C_15  and  C_17
REMARK    6  A    between atoms: C_17  and  N_18
REMARK    7  A    between atoms: C_19  and  C_20
REMARK                            x       y       z     vdW  Elec       q    Type
REMARK                         _______ _______ _______ _____ _____    ______ ____
ROOT
ATOM      1  N   UNL     1       2.849   7.274  17.427  0.00  0.00    +0.000 N 
ATOM      2  C   UNL     1       4.194   7.538  17.180  0.00  0.00    +0.000 C 
ATOM      3  O   UNL     1       4.926   8.257  17.853  0.00  0.00    +0.000 OA
ATOM      4  H   UNL     1       2.545   6.363  17.113  0.00  0.00    +0.000 HD
ENDROOT
BRANCH   1  10
ATOM      5  C   UNL     1       2.328   7.045  19.841  0.00  0.00    +0.000 A 
ATOM      6  C   UNL     1       1.634   7.548  20.950  0.00  0.00    +0.000 A 
ATOM      7  C   UNL     1       0.951   8.761  20.871  0.00  0.00    +0.000 A 
ATOM      8  C   UNL     1       0.914   9.461  19.666  0.00  0.00    +0.000 A 
ATOM      9  C   UNL     1       1.549   8.943  18.545  0.00  0.00    +0.000 A 
ATOM     10  C   UNL     1       2.234   7.724  18.615  0.00  0.00    +0.000 A 
BRANCH   5  11
ATOM     11  O   UNL     1       3.137   5.927  19.925  0.00  0.00    +0.000 OA
BRANCH  11  17
ATOM     12  C   UNL     1       3.703   1.276  18.563  0.00  0.00    +0.000 C 
ATOM     13  C   UNL     1       2.838   2.362  19.132  0.00  0.00    +0.000 A 
ATOM     14  C   UNL     1       1.504   2.109  19.471  0.00  0.00    +0.000 A 
ATOM     15  C   UNL     1       0.711   3.119  20.016  0.00  0.00    +0.000 A 
ATOM     16  C   UNL     1       1.243   4.395  20.215  0.00  0.00    +0.000 A 
ATOM     17  C   UNL     1       2.555   4.679  19.818  0.00  0.00    +0.000 A 
ATOM     18  C   UNL     1       3.358   3.654  19.311  0.00  0.00    +0.000 A 
ENDBRANCH  11  17
ENDBRANCH   5  11
ENDBRANCH   1  10
BRANCH   2  19
ATOM     19  C   UNL     1       4.735   6.718  16.012  0.00  0.00    +0.000 C 
BRANCH  19  20
ATOM     20  N   UNL     1       5.560   5.588  16.403  0.00  0.00    +0.000 N 
ATOM     21  C   UNL     1       6.917   5.859  16.380  0.00  0.00    +0.000 A 
ATOM     22  C   UNL     1       7.466   6.675  17.520  0.00  0.00    +0.000 C 
ATOM     23  N   UNL     1       7.707   5.471  15.431  0.00  0.00    +0.000 NA
ATOM     24  C   UNL     1       7.110   4.789  14.361  0.00  0.00    +0.000 A 
ATOM     25  C   UNL     1       7.709   4.816  13.105  0.00  0.00    +0.000 A 
ATOM     26  C   UNL     1       7.075   4.216  12.014  0.00  0.00    +0.000 A 
ATOM     27  C   UNL     1       5.862   3.541  12.181  0.00  0.00    +0.000 A 
ATOM     28  C   UNL     1       5.255   3.500  13.438  0.00  0.00    +0.000 A 
ATOM     29  C   UNL     1       5.875   4.155  14.499  0.00  0.00    +0.000 A 
ATOM     30  C   UNL     1       5.162   4.414  15.761  0.00  0.00    +0.000 A 
ATOM     31  O   UNL     1       4.274   3.673  16.160  0.00  0.00    +0.000 OA
ENDBRANCH  19  20
ENDBRANCH   2  19
TORSDOF 5
ENDMDL
MODEL 3
REMARK VINA RESULT:      -8.7      3.236      6.659
REMARK  Name = 
REMARK  7 active torsions:
REMARK  status: ('A' for Active; 'I' for Inactive)
REMARK    1  A    between atoms: C_1  and  C_2
REMARK    2  A    between atoms: C_6  and  O_7
REMARK    3  A    between atoms: O_7  and  C_8
REMARK    4  A    between atoms: C_13  and  N_14
REMARK    5  A    between atoms: C_15  and  C_17
REMARK    6  A    between atoms: C_17  and  N_18
REMARK    7  A    between atoms: C_19  and  C_20
REMARK                            x       y       z     vdW  Elec       q    Type
REMARK                         _______ _______ _______ _____ _____    ______ ____
ROOT
ATOM      1  N   UNL     1       1.719   9.950  17.942  0.00  0.00    +0.000 N 
ATOM      2  C   UNL     1       1.656   8.965  18.924  0.00  0.00    +0.000 C 
ATOM      3  O   UNL     1       1.412   9.143  20.113  0.00  0.00    +0.000 OA
ATOM      4  H   UNL     1       1.456   9.630  17.020  0.00  0.00    +0.000 HD
ENDROOT
BRANCH   1  10
ATOM      5  C   UNL     1       0.025  11.665  18.528  0.00  0.00    +0.000 A 
ATOM      6  C   UNL     1      -0.253  13.022  18.749  0.00  0.00    +0.000 A 
ATOM      7  C   UNL     1       0.777  13.961  18.783  0.00  0.00    +0.000 A 
ATOM      8  C   UNL     1       2.092  13.561  18.549  0.00  0.00    +0.000 A 
ATOM      9  C   UNL     1       2.371  12.229  18.271  0.00  0.00    +0.000 A 
ATOM     10  C   UNL     1       1.342  11.280  18.232  0.00  0.00    +0.000 A 
BRANCH   5  11
ATOM     11  O   UNL     1      -0.948  10.688  18.637  0.00  0.00    +0.000 OA
BRANCH  11  17
ATOM     12  C   UNL     1      -3.193  10.083  14.348  0.00  0.00    +0.000 C 
ATOM     13  C   UNL     1      -3.233  10.540  15.777  0.00  0.00    +0.000 A 
ATOM     14  C   UNL     1      -4.385  11.134  16.305  0.00  0.00    +0.000 A 
ATOM     15  C   UNL     1      -4.420  11.540  17.639  0.00  0.00    +0.000 A 
ATOM     16  C   UNL     1      -3.298  11.367  18.453  0.00  0.00    +0.000 A 
ATOM     17  C   UNL     1      -2.118  10.837  17.919  0.00  0.00    +0.000 A 
ATOM     18  C   UNL     1      -2.100  10.394  16.594  0.00  0.00    +0.000 A 
ENDBRANCH  11  17
ENDBRANCH   5  11
ENDBRANCH   1  10
BRANCH   2  19
ATOM     19  C   UNL     1       1.805   7.563  18.340  0.00  0.00    +0.000 C 
BRANCH  19  20
ATOM     20  N   UNL     1       2.898   6.790  18.905  0.00  0.00    +0.000 N 
ATOM     21  C   UNL     1       3.683   6.164  17.952  0.00  0.00    +0.000 A 
ATOM     22  C   UNL     1       4.659   7.029  17.199  0.00  0.00    +0.000 C 
ATOM     23  N   UNL     1       3.595   4.903  17.670  0.00  0.00    +0.000 NA
ATOM     24  C   UNL     1       2.605   4.179  18.351  0.00  0.00    +0.000 A 
ATOM     25  C   UNL     1       2.068   3.033  17.772  0.00  0.00    +0.000 A 
ATOM     26  C   UNL     1       1.019   2.358  18.400  0.00  0.00    +0.000 A 
ATOM     27  C   UNL     1       0.533   2.794  19.637  0.00  0.00    +0.000 A 
ATOM     28  C   UNL     1       1.068   3.939  20.231  0.00  0.00    +0.000 A 
ATOM     29  C   UNL     1       2.074   4.630  19.559  0.00  0.00    +0.000 A 
ATOM     30  C   UNL     1       2.471   5.989  19.964  0.00  0.00    +0.000 A 
ATOM     31  O   UNL     1       2.377   6.366  21.124  0.00  0.00    +0.000 OA
ENDBRANCH  19  20
ENDBRANCH   2  19
TORSDOF 5
ENDMDL
MODEL 4
REMARK VINA RESULT:      -8.7      3.275      6.621
REMARK  Name = 
REMARK  7 active torsions:
REMARK  status: ('A' for Active; 'I' for Inactive)
REMARK    1  A    between atoms: C_1  and  C_2
REMARK    2  A    between atoms: C_6  and  O_7
REMARK    3  A    between atoms: O_7  and  C_8
REMARK    4  A    between atoms: C_13  and  N_14
REMARK    5  A    between atoms: C_15  and  C_17
REMARK    6  A    between atoms: C_17  and  N_18
REMARK    7  A    between atoms: C_19  and  C_20
REMARK                            x       y       z     vdW  Elec       q    Type
REMARK                         _______ _______ _______ _____ _____    ______ ____
ROOT
ATOM      1  N   UNL     1       0.734   9.232  18.986  0.00  0.00    +0.000 N 
ATOM      2  C   UNL     1       1.636   9.018  17.947  0.00  0.00    +0.000 C 
ATOM      3  O   UNL     1       2.214   9.886  17.301  0.00  0.00    +0.000 OA
ATOM      4  H   UNL     1       0.728   8.501  19.684  0.00  0.00    +0.000 HD
ENDROOT
BRANCH   1  10
ATOM      5  C   UNL     1      -0.754  11.115  19.613  0.00  0.00    +0.000 A 
ATOM      6  C   UNL     1      -0.855  12.434  20.080  0.00  0.00    +0.000 A 
ATOM      7  C   UNL     1       0.275  13.118  20.525  0.00  0.00    +0.000 A 
ATOM      8  C   UNL     1       1.528  12.509  20.462  0.00  0.00    +0.000 A 
ATOM      9  C   UNL     1       1.647  11.225  19.946  0.00  0.00    +0.000 A 
ATOM     10  C   UNL     1       0.517  10.532  19.495  0.00  0.00    +0.000 A 
BRANCH   5  11
ATOM     11  O   UNL     1      -1.869  10.356  19.307  0.00  0.00    +0.000 OA
BRANCH  11  17
ATOM     12  C   UNL     1      -5.702  12.336  17.029  0.00  0.00    +0.000 C 
ATOM     13  C   UNL     1      -4.422  11.556  16.969  0.00  0.00    +0.000 A 
ATOM     14  C   UNL     1      -3.957  11.039  15.754  0.00  0.00    +0.000 A 
ATOM     15  C   UNL     1      -2.757  10.330  15.703  0.00  0.00    +0.000 A 
ATOM     16  C   UNL     1      -2.018  10.120  16.870  0.00  0.00    +0.000 A 
ATOM     17  C   UNL     1      -2.506  10.573  18.101  0.00  0.00    +0.000 A 
ATOM     18  C   UNL     1      -3.687  11.318  18.142  0.00  0.00    +0.000 A 
ENDBRANCH  11  17
ENDBRANCH   5  11
ENDBRANCH   1  10
BRANCH   2  19
ATOM     19  C   UNL     1       1.950   7.537  17.756  0.00  0.00    +0.000 C 
BRANCH  19  20
ATOM     20  N   UNL     1       2.952   7.013  18.667  0.00  0.00    +0.000 N 
ATOM     21  C   UNL     1       3.944   6.282  18.037  0.00  0.00    +0.000 A 
ATOM     22  C   UNL     1       4.999   7.063  17.299  0.00  0.00    +0.000 C 
ATOM     23  N   UNL     1       3.987   4.988  18.035  0.00  0.00    +0.000 NA
ATOM     24  C   UNL     1       2.925   4.328  18.671  0.00  0.00    +0.000 A 
ATOM     25  C   UNL     1       2.580   3.038  18.277  0.00  0.00    +0.000 A 
ATOM     26  C   UNL     1       1.468   2.408  18.841  0.00  0.00    +0.000 A 
ATOM     27  C   UNL     1       0.723   3.043  19.839  0.00  0.00    +0.000 A 
ATOM     28  C   UNL     1       1.063   4.335  20.248  0.00  0.00    +0.000 A 
ATOM     29  C   UNL     1       2.140   4.967  19.630  0.00  0.00    +0.000 A 
ATOM     30  C   UNL     1       2.370   6.412  19.784  0.00  0.00    +0.000 A 
ATOM     31  O   UNL     1       2.027   7.013  20.793  0.00  0.00    +0.000 OA
ENDBRANCH  19  20
ENDBRANCH   2  19
TORSDOF 5
ENDMDL
MODEL 5
REMARK VINA RESULT:      -8.7      1.337      4.662
REMARK  Name = 
REMARK  7 active torsions:
REMARK  status: ('A' for Active; 'I' for Inactive)
REMARK    1  A    between atoms: C_1  and  C_2
REMARK    2  A    between atoms: C_6  and  O_7
REMARK    3  A    between atoms: O_7  and  C_8
REMARK    4  A    between atoms: C_13  and  N_14
REMARK    5  A    between atoms: C_15  and  C_17
REMARK    6  A    between atoms: C_17  and  N_18
REMARK    7  A    between atoms: C_19  and  C_20
REMARK                            x       y       z     vdW  Elec       q    Type
REMARK                         _______ _______ _______ _____ _____    ______ ____
ROOT
ATOM      1  N   UNL     1       2.884   4.545  17.213  0.00  0.00    +0.000 N 
ATOM      2  C   UNL     1       4.058   3.897  16.837  0.00  0.00    +0.000 C 
ATOM      3  O   UNL     1       4.748   3.177  17.552  0.00  0.00    +0.000 OA
ATOM      4  H   UNL     1       2.226   4.677  16.457  0.00  0.00    +0.000 HD
ENDROOT
BRANCH   1  10
ATOM      5  C   UNL     1       2.420   5.146  19.574  0.00  0.00    +0.000 A 
ATOM      6  C   UNL     1       1.837   4.772  20.794  0.00  0.00    +0.000 A 
ATOM      7  C   UNL     1       1.051   3.624  20.883  0.00  0.00    +0.000 A 
ATOM      8  C   UNL     1       0.878   2.810  19.766  0.00  0.00    +0.000 A 
ATOM      9  C   UNL     1       1.499   3.139  18.567  0.00  0.00    +0.000 A 
ATOM     10  C   UNL     1       2.292   4.289  18.470  0.00  0.00    +0.000 A 
BRANCH   5  11
ATOM     11  O   UNL     1       3.077   6.351  19.412  0.00  0.00    +0.000 OA
BRANCH  11  17
ATOM     12  C   UNL     1       0.246   9.686  21.574  0.00  0.00    +0.000 C 
ATOM     13  C   UNL     1       0.908   9.156  20.336  0.00  0.00    +0.000 A 
ATOM     14  C   UNL     1       0.707   9.777  19.097  0.00  0.00    +0.000 A 
ATOM     15  C   UNL     1       1.339   9.289  17.954  0.00  0.00    +0.000 A 
ATOM     16  C   UNL     1       2.168   8.168  18.037  0.00  0.00    +0.000 A 
ATOM     17  C   UNL     1       2.324   7.499  19.256  0.00  0.00    +0.000 A 
ATOM     18  C   UNL     1       1.722   8.015  20.407  0.00  0.00    +0.000 A 
ENDBRANCH  11  17
ENDBRANCH   5  11
ENDBRANCH   1  10
BRANCH   2  19
ATOM     19  C   UNL     1       4.360   4.073  15.351  0.00  0.00    +0.000 C 
BRANCH  19  20
ATOM     20  N   UNL     1       5.340   5.103  15.055  0.00  0.00    +0.000 N 
ATOM     21  C   UNL     1       6.578   4.600  14.694  0.00  0.00    +0.000 A 
ATOM     22  C   UNL     1       6.709   4.049  13.299  0.00  0.00    +0.000 C 
ATOM     23  N   UNL     1       7.595   4.562  15.496  0.00  0.00    +0.000 NA
ATOM     24  C   UNL     1       7.374   5.014  16.805  0.00  0.00    +0.000 A 
ATOM     25  C   UNL     1       8.167   4.532  17.843  0.00  0.00    +0.000 A 
ATOM     26  C   UNL     1       7.895   4.907  19.162  0.00  0.00    +0.000 A 
ATOM     27  C   UNL     1       6.863   5.806  19.446  0.00  0.00    +0.000 A 
ATOM     28  C   UNL     1       6.066   6.302  18.412  0.00  0.00    +0.000 A 
ATOM     29  C   UNL     1       6.317   5.869  17.112  0.00  0.00    +0.000 A 
ATOM     30  C   UNL     1       5.349   6.103  16.028  0.00  0.00    +0.000 A 
ATOM     31  O   UNL     1       4.599   7.070  16.033  0.00  0.00    +0.000 OA
ENDBRANCH  19  20
ENDBRANCH   2  19
TORSDOF 5
ENDMDL
MODEL 6
REMARK VINA RESULT:      -8.7      3.183      6.605
REMARK  Name = 
REMARK  7 active torsions:
REMARK  status: ('A' for Active; 'I' for Inactive)
REMARK    1  A    between atoms: C_1  and  C_2
REMARK    2  A    between atoms: C_6  and  O_7
REMARK    3  A    between atoms: O_7  and  C_8
REMARK    4  A    between atoms: C_13  and  N_14
REMARK    5  A    between atoms: C_15  and  C_17
REMARK    6  A    between atoms: C_17  and  N_18
REMARK    7  A    between atoms: C_19  and  C_20
REMARK                            x       y       z     vdW  Elec       q    Type
REMARK                         _______ _______ _______ _____ _____    ______ ____
ROOT
ATOM      1  N   UNL     1       0.431   8.938  19.162  0.00  0.00    +0.000 N 
ATOM      2  C   UNL     1       1.562   9.083  18.362  0.00  0.00    +0.000 C 
ATOM      3  O   UNL     1       2.229  10.105  18.232  0.00  0.00    +0.000 OA
ATOM      4  H   UNL     1       0.300   8.003  19.523  0.00  0.00    +0.000 HD
ENDROOT
BRANCH   1  10
ATOM      5  C   UNL     1      -0.491  11.197  19.605  0.00  0.00    +0.000 A 
ATOM      6  C   UNL     1      -0.804  12.177  20.558  0.00  0.00    +0.000 A 
ATOM      7  C   UNL     1      -0.703  11.900  21.921  0.00  0.00    +0.000 A 
ATOM      8  C   UNL     1      -0.240  10.656  22.346  0.00  0.00    +0.000 A 
ATOM      9  C   UNL     1       0.129   9.699  21.410  0.00  0.00    +0.000 A 
ATOM     10  C   UNL     1       0.033   9.969  20.040  0.00  0.00    +0.000 A 
BRANCH   5  11
ATOM     11  O   UNL     1      -0.722  11.384  18.255  0.00  0.00    +0.000 OA
BRANCH  11  17
ATOM     12  C   UNL     1      -3.622  10.144  14.532  0.00  0.00    +0.000 C 
ATOM     13  C   UNL     1      -3.461  10.674  15.926  0.00  0.00    +0.000 A 
ATOM     14  C   UNL     1      -4.574  11.094  16.664  0.00  0.00    +0.000 A 
ATOM     15  C   UNL     1      -4.418  11.569  17.966  0.00  0.00    +0.000 A 
ATOM     16  C   UNL     1      -3.146  11.641  18.537  0.00  0.00    +0.000 A 
ATOM     17  C   UNL     1      -2.019  11.287  17.787  0.00  0.00    +0.000 A 
ATOM     18  C   UNL     1      -2.182  10.773  16.498  0.00  0.00    +0.000 A 
ENDBRANCH  11  17
ENDBRANCH   5  11
ENDBRANCH   1  10
BRANCH   2  19
ATOM     19  C   UNL     1       1.990   7.763  17.727  0.00  0.00    +0.000 C 
BRANCH  19  20
ATOM     20  N   UNL     1       3.055   7.074  18.433  0.00  0.00    +0.000 N 
ATOM     21  C   UNL     1       3.856   6.302  17.610  0.00  0.00    +0.000 A 
ATOM     22  C   UNL     1       4.866   7.031  16.764  0.00  0.00    +0.000 C 
ATOM     23  N   UNL     1       3.757   5.014  17.521  0.00  0.00    +0.000 NA
ATOM     24  C   UNL     1       2.738   4.412  18.274  0.00  0.00    +0.000 A 
ATOM     25  C   UNL     1       2.200   3.197  17.860  0.00  0.00    +0.000 A 
ATOM     26  C   UNL     1       1.124   2.636  18.553  0.00  0.00    +0.000 A 
ATOM     27  C   UNL     1       0.611   3.261  19.693  0.00  0.00    +0.000 A 
ATOM     28  C   UNL     1       1.147   4.477  20.123  0.00  0.00    +0.000 A 
ATOM     29  C   UNL     1       2.181   5.047  19.383  0.00  0.00    +0.000 A 
ATOM     30  C   UNL     1       2.587   6.447  19.589  0.00  0.00    +0.000 A 
ATOM     31  O   UNL     1       2.467   6.998  20.675  0.00  0.00    +0.000 OA
ENDBRANCH  19  20
ENDBRANCH   2  19
TORSDOF 5
ENDMDL
MODEL 7
REMARK VINA RESULT:      -8.6      1.123      1.305
REMARK  Name = 
REMARK  7 active torsions:
REMARK  status: ('A' for Active; 'I' for Inactive)
REMARK    1  A    between atoms: C_1  and  C_2
REMARK    2  A    between atoms: C_6  and  O_7
REMARK    3  A    between atoms: O_7  and  C_8
REMARK    4  A    between atoms: C_13  and  N_14
REMARK    5  A    between atoms: C_15  and  C_17
REMARK    6  A    between atoms: C_17  and  N_18
REMARK    7  A    between atoms: C_19  and  C_20
REMARK                            x       y       z     vdW  Elec       q    Type
REMARK                         _______ _______ _______ _____ _____    ______ ____
ROOT
ATOM      1  N   UNL     1       3.387   7.775  18.238  0.00  0.00    +0.000 N 
ATOM      2  C   UNL     1       3.312   6.639  17.435  0.00  0.00    +0.000 C 
ATOM      3  O   UNL     1       2.383   5.839  17.400  0.00  0.00    +0.000 OA
ATOM      4  H   UNL     1       3.924   8.530  17.833  0.00  0.00    +0.000 HD
ENDROOT
BRANCH   1  10
ATOM      5  C   UNL     1       1.901   7.581  20.214  0.00  0.00    +0.000 A 
ATOM      6  C   UNL     1       0.747   8.034  20.871  0.00  0.00    +0.000 A 
ATOM      7  C   UNL     1       0.044   9.139  20.393  0.00  0.00    +0.000 A 
ATOM      8  C   UNL     1       0.458   9.774  19.224  0.00  0.00    +0.000 A 
ATOM      9  C   UNL     1       1.565   9.299  18.533  0.00  0.00    +0.000 A 
ATOM     10  C   UNL     1       2.276   8.188  19.005  0.00  0.00    +0.000 A 
BRANCH   5  11
ATOM     11  O   UNL     1       2.706   6.589  20.741  0.00  0.00    +0.000 OA
BRANCH  11  17
ATOM     12  C   UNL     1       4.318   2.076  19.823  0.00  0.00    +0.000 C 
ATOM     13  C   UNL     1       3.175   3.022  20.044  0.00  0.00    +0.000 A 
ATOM     14  C   UNL     1       1.851   2.576  19.954  0.00  0.00    +0.000 A 
ATOM     15  C   UNL     1       0.793   3.458  20.179  0.00  0.00    +0.000 A 
ATOM     16  C   UNL     1       1.051   4.797  20.482  0.00  0.00    +0.000 A 
ATOM     17  C   UNL     1       2.368   5.270  20.508  0.00  0.00    +0.000 A 
ATOM     18  C   UNL     1       3.425   4.375  20.324  0.00  0.00    +0.000 A 
ENDBRANCH  11  17
ENDBRANCH   5  11
ENDBRANCH   1  10
BRANCH   2  19
ATOM     19  C   UNL     1       4.489   6.541  16.468  0.00  0.00    +0.000 C 
BRANCH  19  20
ATOM     20  N   UNL     1       5.475   5.535  16.823  0.00  0.00    +0.000 N 
ATOM     21  C   UNL     1       6.780   5.991  16.751  0.00  0.00    +0.000 A 
ATOM     22  C   UNL     1       7.254   6.877  17.873  0.00  0.00    +0.000 C 
ATOM     23  N   UNL     1       7.581   5.715  15.772  0.00  0.00    +0.000 NA
ATOM     24  C   UNL     1       7.043   4.956  14.722  0.00  0.00    +0.000 A 
ATOM     25  C   UNL     1       7.585   5.065  13.444  0.00  0.00    +0.000 A 
ATOM     26  C   UNL     1       6.999   4.382  12.375  0.00  0.00    +0.000 A 
ATOM     27  C   UNL     1       5.899   3.546  12.585  0.00  0.00    +0.000 A 
ATOM     28  C   UNL     1       5.350   3.423  13.863  0.00  0.00    +0.000 A 
ATOM     29  C   UNL     1       5.914   4.158  14.904  0.00  0.00    +0.000 A 
ATOM     30  C   UNL     1       5.220   4.317  16.192  0.00  0.00    +0.000 A 
ATOM     31  O   UNL     1       4.457   3.462  16.621  0.00  0.00    +0.000 OA
ENDBRANCH  19  20
ENDBRANCH   2  19
TORSDOF 5
ENDMDL
MODEL 8
REMARK VINA RESULT:      -8.6      2.641      5.659
REMARK  Name = 
REMARK  7 active torsions:
REMARK  status: ('A' for Active; 'I' for Inactive)
REMARK    1  A    between atoms: C_1  and  C_2
REMARK    2  A    between atoms: C_6  and  O_7
REMARK    3  A    between atoms: O_7  and  C_8
REMARK    4  A    between atoms: C_13  and  N_14
REMARK    5  A    between atoms: C_15  and  C_17
REMARK    6  A    between atoms: C_17  and  N_18
REMARK    7  A    between atoms: C_19  and  C_20
REMARK                            x       y       z     vdW  Elec       q    Type
REMARK                         _______ _______ _______ _____ _____    ______ ____
ROOT
ATOM      1  N   UNL     1       2.148   7.922  20.945  0.00  0.00    +0.000 N 
ATOM      2  C   UNL     1       1.833   6.609  20.605  0.00  0.00    +0.000 C 
ATOM      3  O   UNL     1       0.770   6.039  20.830  0.00  0.00    +0.000 OA
ATOM      4  H   UNL     1       2.801   8.366  20.314  0.00  0.00    +0.000 HD
ENDROOT
BRANCH   1  10
ATOM      5  C   UNL     1       0.354   9.615  20.680  0.00  0.00    +0.000 A 
ATOM      6  C   UNL     1      -0.558  10.475  21.309  0.00  0.00    +0.000 A 
ATOM      7  C   UNL     1      -0.741  10.430  22.690  0.00  0.00    +0.000 A 
ATOM      8  C   UNL     1       0.023   9.559  23.465  0.00  0.00    +0.000 A 
ATOM      9  C   UNL     1       0.971   8.745  22.860  0.00  0.00    +0.000 A 
ATOM     10  C   UNL     1       1.163   8.785  21.473  0.00  0.00    +0.000 A 
BRANCH   5  11
ATOM     11  O   UNL     1       0.451   9.525  19.304  0.00  0.00    +0.000 OA
BRANCH  11  17
ATOM     12  C   UNL     1      -2.950   9.575  15.806  0.00  0.00    +0.000 C 
ATOM     13  C   UNL     1      -2.084  10.318  16.780  0.00  0.00    +0.000 A 
ATOM     14  C   UNL     1      -2.110  11.717  16.837  0.00  0.00    +0.000 A 
ATOM     15  C   UNL     1      -1.315  12.400  17.758  0.00  0.00    +0.000 A 
ATOM     16  C   UNL     1      -0.478  11.690  18.621  0.00  0.00    +0.000 A 
ATOM     17  C   UNL     1      -0.393  10.297  18.529  0.00  0.00    +0.000 A 
ATOM     18  C   UNL     1      -1.221   9.614  17.635  0.00  0.00    +0.000 A 
ENDBRANCH  11  17
ENDBRANCH   5  11
ENDBRANCH   1  10
BRANCH   2  19
ATOM     19  C   UNL     1       2.934   5.950  19.779  0.00  0.00    +0.000 C 
BRANCH  19  20
ATOM     20  N   UNL     1       2.704   5.970  18.345  0.00  0.00    +0.000 N 
ATOM     21  C   UNL     1       2.638   4.710  17.778  0.00  0.00    +0.000 A 
ATOM     22  C   UNL     1       1.365   3.934  17.989  0.00  0.00    +0.000 C 
ATOM     23  N   UNL     1       3.611   4.174  17.112  0.00  0.00    +0.000 NA
ATOM     24  C   UNL     1       4.796   4.920  17.030  0.00  0.00    +0.000 A 
ATOM     25  C   UNL     1       6.011   4.267  16.845  0.00  0.00    +0.000 A 
ATOM     26  C   UNL     1       7.205   4.993  16.852  0.00  0.00    +0.000 A 
ATOM     27  C   UNL     1       7.188   6.384  16.993  0.00  0.00    +0.000 A 
ATOM     28  C   UNL     1       5.974   7.052  17.172  0.00  0.00    +0.000 A 
ATOM     29  C   UNL     1       4.802   6.301  17.221  0.00  0.00    +0.000 A 
ATOM     30  C   UNL     1       3.539   6.885  17.701  0.00  0.00    +0.000 A 
ATOM     31  O   UNL     1       3.293   8.077  17.576  0.00  0.00    +0.000 OA
ENDBRANCH  19  20
ENDBRANCH   2  19
TORSDOF 5
ENDMDL
MODEL 9
REMARK VINA RESULT:      -8.6      3.244      6.568
REMARK  Name = 
REMARK  7 active torsions:
REMARK  status: ('A' for Active; 'I' for Inactive)
REMARK    1  A    between atoms: C_1  and  C_2
REMARK    2  A    between atoms: C_6  and  O_7
REMARK    3  A    between atoms: O_7  and  C_8
REMARK    4  A    between atoms: C_13  and  N_14
REMARK    5  A    between atoms: C_15  and  C_17
REMARK    6  A    between atoms: C_17  and  N_18
REMARK    7  A    between atoms: C_19  and  C_20
REMARK                            x       y       z     vdW  Elec       q    Type
REMARK                         _______ _______ _______ _____ _____    ______ ____
ROOT
ATOM      1  N   UNL     1       0.757   9.032  18.802  0.00  0.00    +0.000 N 
ATOM      2  C   UNL     1       1.755   8.862  17.846  0.00  0.00    +0.000 C 
ATOM      3  O   UNL     1       2.357   9.758  17.262  0.00  0.00    +0.000 OA
ATOM      4  H   UNL     1       0.715   8.292  19.489  0.00  0.00    +0.000 HD
ENDROOT
BRANCH   1  10
ATOM      5  C   UNL     1      -0.854  10.838  19.343  0.00  0.00    +0.000 A 
ATOM      6  C   UNL     1      -1.045  12.148  19.807  0.00  0.00    +0.000 A 
ATOM      7  C   UNL     1       0.022  12.882  20.322  0.00  0.00    +0.000 A 
ATOM      8  C   UNL     1       1.303  12.334  20.333  0.00  0.00    +0.000 A 
ATOM      9  C   UNL     1       1.514  11.060  19.822  0.00  0.00    +0.000 A 
ATOM     10  C   UNL     1       0.449  10.316  19.300  0.00  0.00    +0.000 A 
BRANCH   5  11
ATOM     11  O   UNL     1      -1.911  10.030  18.968  0.00  0.00    +0.000 OA
BRANCH  11  17
ATOM     12  C   UNL     1      -2.917   9.995  14.194  0.00  0.00    +0.000 C 
ATOM     13  C   UNL     1      -3.250  10.452  15.584  0.00  0.00    +0.000 A 
ATOM     14  C   UNL     1      -4.325  11.320  15.812  0.00  0.00    +0.000 A 
ATOM     15  C   UNL     1      -4.639  11.726  17.109  0.00  0.00    +0.000 A 
ATOM     16  C   UNL     1      -3.872  11.279  18.187  0.00  0.00    +0.000 A 
ATOM     17  C   UNL     1      -2.755  10.466  17.965  0.00  0.00    +0.000 A 
ATOM     18  C   UNL     1      -2.468  10.028  16.670  0.00  0.00    +0.000 A 
ENDBRANCH  11  17
ENDBRANCH   5  11
ENDBRANCH   1  10
BRANCH   2  19
ATOM     19  C   UNL     1       2.139   7.396  17.671  0.00  0.00    +0.000 C 
BRANCH  19  20
ATOM     20  N   UNL     1       3.085   6.900  18.656  0.00  0.00    +0.000 N 
ATOM     21  C   UNL     1       4.112   6.151  18.109  0.00  0.00    +0.000 A 
ATOM     22  C   UNL     1       5.210   6.909  17.411  0.00  0.00    +0.000 C 
ATOM     23  N   UNL     1       4.153   4.857  18.149  0.00  0.00    +0.000 NA
ATOM     24  C   UNL     1       3.054   4.216  18.739  0.00  0.00    +0.000 A 
ATOM     25  C   UNL     1       2.732   2.915  18.366  0.00  0.00    +0.000 A 
ATOM     26  C   UNL     1       1.587   2.302  18.881  0.00  0.00    +0.000 A 
ATOM     27  C   UNL     1       0.785   2.966  19.813  0.00  0.00    +0.000 A 
ATOM     28  C   UNL     1       1.101   4.270  20.202  0.00  0.00    +0.000 A 
ATOM     29  C   UNL     1       2.214   4.884  19.631  0.00  0.00    +0.000 A 
ATOM     30  C   UNL     1       2.436   6.333  19.754  0.00  0.00    +0.000 A 
ATOM     31  O   UNL     1       2.034   6.965  20.722  0.00  0.00    +0.000 OA
ENDBRANCH  19  20
ENDBRANCH   2  19
TORSDOF 5
ENDMDL
