MODEL 1
REMARK VINA RESULT:      -8.5      0.000      0.000
REMARK  Name = 
REMARK  9 active torsions:
REMARK  status: ('A' for Active; 'I' for Inactive)
REMARK    1  A    between atoms: C_1  and  C_2
REMARK    2  A    between atoms: C_5  and  C_6
REMARK    3  A    between atoms: C_7  and  N_8
REMARK    4  A    between atoms: C_9  and  C_11
REMARK    5  A    between atoms: C_11  and  S_12
REMARK    6  A    between atoms: C_11  and  C_24
REMARK    7  A    between atoms: S_12  and  C_13
REMARK    8  A    between atoms: C_16  and  C_17
REMARK    9  A    between atoms: N_22  and  C_23
REMARK                            x       y       z     vdW  Elec       q    Type
REMARK                         _______ _______ _______ _____ _____    ______ ____
ROOT
ATOM      1  C   UNL     1       3.277   5.906  19.455  0.00  0.00    +0.000 C 
ENDROOT
BRANCH   1   2
ATOM      2  C   UNL     1       2.314   4.738  19.691  0.00  0.00    +0.000 A 
ATOM      3  C   UNL     1       1.647   4.123  18.623  0.00  0.00    +0.000 A 
ATOM      4  C   UNL     1       0.832   3.001  18.840  0.00  0.00    +0.000 A 
ATOM      5  C   UNL     1       0.673   2.486  20.126  0.00  0.00    +0.000 A 
ATOM      6  C   UNL     1       1.308   3.100  21.198  0.00  0.00    +0.000 A 
ATOM      7  C   UNL     1       2.113   4.218  20.985  0.00  0.00    +0.000 A 
ENDBRANCH   1   2
BRANCH   1   9
ATOM      8  N   UNL     1       4.507   6.128  17.305  0.00  0.00    +0.000 N 
ATOM      9  C   UNL     1       4.478   5.506  18.557  0.00  0.00    +0.000 C 
ATOM     10  O   UNL     1       5.282   4.652  18.908  0.00  0.00    +0.000 OA
ATOM     11  H   UNL     1       3.581   6.329  16.931  0.00  0.00    +0.000 HD
BRANCH   8  18
ATOM     12  C   UNL     1       5.431   3.506  13.242  0.00  0.00    +0.000 C 
ATOM     13  C   UNL     1       5.909   4.462  14.297  0.00  0.00    +0.000 A 
ATOM     14  C   UNL     1       7.267   4.757  14.408  0.00  0.00    +0.000 A 
ATOM     15  C   UNL     1       7.723   5.579  15.436  0.00  0.00    +0.000 A 
ATOM     16  C   UNL     1       6.839   6.102  16.398  0.00  0.00    +0.000 A 
ATOM     17  C   UNL     1       7.429   6.995  17.455  0.00  0.00    +0.000 C 
ATOM     18  C   UNL     1       5.474   5.760  16.324  0.00  0.00    +0.000 A 
ATOM     19  C   UNL     1       5.015   4.987  15.244  0.00  0.00    +0.000 A 
ENDBRANCH   8  18
ENDBRANCH   1   9
BRANCH   1  20
ATOM     20  S   UNL     1       2.342   7.294  18.636  0.00  0.00    +0.000 S 
BRANCH  20  21
ATOM     21  C   UNL     1       1.702   8.132  19.995  0.00  0.00    +0.000 A 
ATOM     22  N   UNL     1       1.718   7.695  21.231  0.00  0.00    +0.000 NA
ATOM     23  N   UNL     1       1.135   8.660  22.014  0.00  0.00    +0.000 NA
ATOM     24  C   UNL     1       0.758   9.656  21.231  0.00  0.00    +0.000 A 
ATOM     25  N   UNL     1       1.104   9.363  19.934  0.00  0.00    +0.000 N 
ATOM     26  C   UNL     1       0.949  10.215  18.780  0.00  0.00    +0.000 C 
BRANCH  24  27
ATOM     27  C   UNL     1       0.140  10.853  21.711  0.00  0.00    +0.000 A 
ATOM     28  C   UNL     1      -0.966  10.952  22.537  0.00  0.00    +0.000 A 
ATOM     29  C   UNL     1      -1.211  12.327  22.756  0.00  0.00    +0.000 A 
ATOM     30  C   UNL     1      -0.252  12.998  22.037  0.00  0.00    +0.000 A 
ATOM     31  O   UNL     1       0.574  12.121  21.411  0.00  0.00    +0.000 OA
ENDBRANCH  24  27
ENDBRANCH  20  21
ENDBRANCH   1  20
TORSDOF 6
ENDMDL
MODEL 2
REMARK VINA RESULT:      -8.2      1.173      1.183
REMARK  Name = 
REMARK  9 active torsions:
REMARK  status: ('A' for Active; 'I' for Inactive)
REMARK    1  A    between atoms: C_1  and  C_2
REMARK    2  A    between atoms: C_5  and  C_6
REMARK    3  A    between atoms: C_7  and  N_8
REMARK    4  A    between atoms: C_9  and  C_11
REMARK    5  A    between atoms: C_11  and  S_12
REMARK    6  A    between atoms: C_11  and  C_24
REMARK    7  A    between atoms: S_12  and  C_13
REMARK    8  A    between atoms: C_16  and  C_17
REMARK    9  A    between atoms: N_22  and  C_23
REMARK                            x       y       z     vdW  Elec       q    Type
REMARK                         _______ _______ _______ _____ _____    ______ ____
ROOT
ATOM      1  C   UNL     1       2.685   6.696  19.387  0.00  0.00    +0.000 C 
ENDROOT
BRANCH   1   2
ATOM      2  C   UNL     1       2.104   5.337  19.794  0.00  0.00    +0.000 A 
ATOM      3  C   UNL     1       1.430   4.532  18.867  0.00  0.00    +0.000 A 
ATOM      4  C   UNL     1       0.976   3.253  19.228  0.00  0.00    +0.000 A 
ATOM      5  C   UNL     1       1.188   2.770  20.518  0.00  0.00    +0.000 A 
ATOM      6  C   UNL     1       1.834   3.567  21.456  0.00  0.00    +0.000 A 
ATOM      7  C   UNL     1       2.279   4.839  21.101  0.00  0.00    +0.000 A 
ENDBRANCH   1   2
BRANCH   1   9
ATOM      8  N   UNL     1       4.280   5.306  18.080  0.00  0.00    +0.000 N 
ATOM      9  C   UNL     1       3.708   6.574  18.226  0.00  0.00    +0.000 C 
ATOM     10  O   UNL     1       4.031   7.545  17.554  0.00  0.00    +0.000 OA
ATOM     11  H   UNL     1       4.380   4.804  18.960  0.00  0.00    +0.000 HD
BRANCH   8  18
ATOM     12  C   UNL     1       5.474   3.872  13.525  0.00  0.00    +0.000 C 
ATOM     13  C   UNL     1       5.903   4.378  14.871  0.00  0.00    +0.000 A 
ATOM     14  C   UNL     1       7.254   4.388  15.216  0.00  0.00    +0.000 A 
ATOM     15  C   UNL     1       7.648   4.780  16.493  0.00  0.00    +0.000 A 
ATOM     16  C   UNL     1       6.701   5.143  17.469  0.00  0.00    +0.000 A 
ATOM     17  C   UNL     1       7.231   5.571  18.810  0.00  0.00    +0.000 C 
ATOM     18  C   UNL     1       5.331   5.079  17.145  0.00  0.00    +0.000 A 
ATOM     19  C   UNL     1       4.949   4.750  15.833  0.00  0.00    +0.000 A 
ENDBRANCH   8  18
ENDBRANCH   1   9
BRANCH   1  20
ATOM     20  S   UNL     1       1.287   7.804  18.851  0.00  0.00    +0.000 S 
BRANCH  20  21
ATOM     21  C   UNL     1       1.029   8.749  20.265  0.00  0.00    +0.000 A 
ATOM     22  N   UNL     1       1.612   8.554  21.423  0.00  0.00    +0.000 NA
ATOM     23  N   UNL     1       1.159   9.527  22.279  0.00  0.00    +0.000 NA
ATOM     24  C   UNL     1       0.291  10.280  21.626  0.00  0.00    +0.000 A 
ATOM     25  N   UNL     1       0.181   9.823  20.335  0.00  0.00    +0.000 N 
ATOM     26  C   UNL     1      -0.594  10.409  19.269  0.00  0.00    +0.000 C 
BRANCH  24  27
ATOM     27  C   UNL     1      -0.363  11.416  22.198  0.00  0.00    +0.000 A 
ATOM     28  C   UNL     1      -1.510  11.421  22.973  0.00  0.00    +0.000 A 
ATOM     29  C   UNL     1      -1.780  12.763  23.324  0.00  0.00    +0.000 A 
ATOM     30  C   UNL     1      -0.794  13.512  22.730  0.00  0.00    +0.000 A 
ATOM     31  O   UNL     1       0.072  12.712  22.058  0.00  0.00    +0.000 OA
ENDBRANCH  24  27
ENDBRANCH  20  21
ENDBRANCH   1  20
TORSDOF 6
ENDMDL
MODEL 3
REMARK VINA RESULT:      -7.9      2.465      8.278
REMARK  Name = 
REMARK  9 active torsions:
REMARK  status: ('A' for Active; 'I' for Inactive)
REMARK    1  A    between atoms: C_1  and  C_2
REMARK    2  A    between atoms: C_5  and  C_6
REMARK    3  A    between atoms: C_7  and  N_8
REMARK    4  A    between atoms: C_9  and  C_11
REMARK    5  A    between atoms: C_11  and  S_12
REMARK    6  A    between atoms: C_11  and  C_24
REMARK    7  A    between atoms: S_12  and  C_13
REMARK    8  A    between atoms: C_16  and  C_17
REMARK    9  A    between atoms: N_22  and  C_23
REMARK                            x       y       z     vdW  Elec       q    Type
REMARK                         _______ _______ _______ _____ _____    ______ ____
ROOT
ATOM      1  C   UNL     1       2.646   6.536  18.139  0.00  0.00    +0.000 C 
ENDROOT
BRANCH   1   2
ATOM      2  C   UNL     1       1.995   5.307  18.783  0.00  0.00    +0.000 A 
ATOM      3  C   UNL     1       1.550   4.232  18.003  0.00  0.00    +0.000 A 
ATOM      4  C   UNL     1       1.032   3.075  18.607  0.00  0.00    +0.000 A 
ATOM      5  C   UNL     1       0.951   2.985  19.996  0.00  0.00    +0.000 A 
ATOM      6  C   UNL     1       1.365   4.053  20.783  0.00  0.00    +0.000 A 
ATOM      7  C   UNL     1       1.874   5.203  20.184  0.00  0.00    +0.000 A 
ENDBRANCH   1   2
BRANCH   1   9
ATOM      8  N   UNL     1       1.676   8.786  17.714  0.00  0.00    +0.000 N 
ATOM      9  C   UNL     1       2.065   7.865  18.692  0.00  0.00    +0.000 C 
ATOM     10  O   UNL     1       2.032   8.097  19.894  0.00  0.00    +0.000 OA
ATOM     11  H   UNL     1       2.240   8.739  16.867  0.00  0.00    +0.000 HD
BRANCH   8  18
ATOM     12  C   UNL     1       3.044  13.408  18.717  0.00  0.00    +0.000 C 
ATOM     13  C   UNL     1       1.949  12.394  18.551  0.00  0.00    +0.000 A 
ATOM     14  C   UNL     1       0.649  12.697  18.954  0.00  0.00    +0.000 A 
ATOM     15  C   UNL     1      -0.351  11.731  18.878  0.00  0.00    +0.000 A 
ATOM     16  C   UNL     1      -0.073  10.428  18.425  0.00  0.00    +0.000 A 
ATOM     17  C   UNL     1      -1.228   9.466  18.360  0.00  0.00    +0.000 C 
ATOM     18  C   UNL     1       1.250  10.099  18.071  0.00  0.00    +0.000 A 
ATOM     19  C   UNL     1       2.236  11.100  18.087  0.00  0.00    +0.000 A 
ENDBRANCH   8  18
ENDBRANCH   1   9
BRANCH   1  20
ATOM     20  S   UNL     1       4.477   6.484  18.476  0.00  0.00    +0.000 S 
BRANCH  20  21
ATOM     21  C   UNL     1       5.012   5.328  17.320  0.00  0.00    +0.000 A 
ATOM     22  N   UNL     1       5.217   4.056  17.562  0.00  0.00    +0.000 NA
ATOM     23  N   UNL     1       5.613   3.475  16.383  0.00  0.00    +0.000 NA
ATOM     24  C   UNL     1       5.660   4.413  15.454  0.00  0.00    +0.000 A 
ATOM     25  N   UNL     1       5.280   5.613  16.007  0.00  0.00    +0.000 N 
ATOM     26  C   UNL     1       5.114   6.871  15.323  0.00  0.00    +0.000 C 
BRANCH  24  27
ATOM     27  C   UNL     1       6.005   4.163  14.088  0.00  0.00    +0.000 A 
ATOM     28  C   UNL     1       5.273   3.450  13.156  0.00  0.00    +0.000 A 
ATOM     29  C   UNL     1       5.994   3.474  11.941  0.00  0.00    +0.000 A 
ATOM     30  C   UNL     1       7.140   4.186  12.198  0.00  0.00    +0.000 A 
ATOM     31  O   UNL     1       7.154   4.616  13.486  0.00  0.00    +0.000 OA
ENDBRANCH  24  27
ENDBRANCH  20  21
ENDBRANCH   1  20
TORSDOF 6
ENDMDL
MODEL 4
REMARK VINA RESULT:      -7.7      4.520      7.816
REMARK  Name = 
REMARK  9 active torsions:
REMARK  status: ('A' for Active; 'I' for Inactive)
REMARK    1  A    between atoms: C_1  and  C_2
REMARK    2  A    between atoms: C_5  and  C_6
REMARK    3  A    between atoms: C_7  and  N_8
REMARK    4  A    between atoms: C_9  and  C_11
REMARK    5  A    between atoms: C_11  and  S_12
REMARK    6  A    between atoms: C_11  and  C_24
REMARK    7  A    between atoms: S_12  and  C_13
REMARK    8  A    between atoms: C_16  and  C_17
REMARK    9  A    between atoms: N_22  and  C_23
REMARK                            x       y       z     vdW  Elec       q    Type
REMARK                         _______ _______ _______ _____ _____    ______ ____
ROOT
ATOM      1  C   UNL     1       0.699  10.910  19.921  0.00  0.00    +0.000 C 
ENDROOT
BRANCH   1   2
ATOM      2  C   UNL     1       1.383   9.623  19.448  0.00  0.00    +0.000 A 
ATOM      3  C   UNL     1       1.536   8.527  20.307  0.00  0.00    +0.000 A 
ATOM      4  C   UNL     1       2.087   7.323  19.840  0.00  0.00    +0.000 A 
ATOM      5  C   UNL     1       2.495   7.206  18.512  0.00  0.00    +0.000 A 
ATOM      6  C   UNL     1       2.372   8.292  17.654  0.00  0.00    +0.000 A 
ATOM      7  C   UNL     1       1.830   9.489  18.118  0.00  0.00    +0.000 A 
ENDBRANCH   1   2
BRANCH   1   9
ATOM      8  N   UNL     1      -1.498  10.483  18.837  0.00  0.00    +0.000 N 
ATOM      9  C   UNL     1      -0.423  11.370  18.952  0.00  0.00    +0.000 C 
ATOM     10  O   UNL     1      -0.317  12.396  18.294  0.00  0.00    +0.000 OA
ATOM     11  H   UNL     1      -1.230   9.506  18.948  0.00  0.00    +0.000 HD
BRANCH   8  18
ATOM     12  C   UNL     1      -2.979   9.925  14.175  0.00  0.00    +0.000 C 
ATOM     13  C   UNL     1      -3.260  10.407  15.569  0.00  0.00    +0.000 A 
ATOM     14  C   UNL     1      -4.366  11.219  15.818  0.00  0.00    +0.000 A 
ATOM     15  C   UNL     1      -4.584  11.734  17.093  0.00  0.00    +0.000 A 
ATOM     16  C   UNL     1      -3.686  11.479  18.146  0.00  0.00    +0.000 A 
ATOM     17  C   UNL     1      -4.024  12.065  19.490  0.00  0.00    +0.000 C 
ATOM     18  C   UNL     1      -2.536  10.708  17.886  0.00  0.00    +0.000 A 
ATOM     19  C   UNL     1      -2.363  10.136  16.615  0.00  0.00    +0.000 A 
ENDBRANCH   8  18
ENDBRANCH   1   9
BRANCH   1  20
ATOM     20  S   UNL     1      -0.037  10.608  21.605  0.00  0.00    +0.000 S 
BRANCH  20  21
ATOM     21  C   UNL     1      -0.279  12.213  22.173  0.00  0.00    +0.000 A 
ATOM     22  N   UNL     1       0.518  13.227  21.939  0.00  0.00    +0.000 NA
ATOM     23  N   UNL     1      -0.034  14.330  22.543  0.00  0.00    +0.000 NA
ATOM     24  C   UNL     1      -1.147  13.956  23.149  0.00  0.00    +0.000 A 
ATOM     25  N   UNL     1      -1.345  12.613  22.936  0.00  0.00    +0.000 N 
ATOM     26  C   UNL     1      -2.479  11.825  23.352  0.00  0.00    +0.000 C 
BRANCH  24  27
ATOM     27  C   UNL     1      -2.007  14.854  23.857  0.00  0.00    +0.000 A 
ATOM     28  C   UNL     1      -3.109  15.526  23.360  0.00  0.00    +0.000 A 
ATOM     29  C   UNL     1      -3.655  16.288  24.418  0.00  0.00    +0.000 A 
ATOM     30  C   UNL     1      -2.847  16.056  25.503  0.00  0.00    +0.000 A 
ATOM     31  O   UNL     1      -1.856  15.185  25.181  0.00  0.00    +0.000 OA
ENDBRANCH  24  27
ENDBRANCH  20  21
ENDBRANCH   1  20
TORSDOF 6
ENDMDL
MODEL 5
REMARK VINA RESULT:      -7.7      1.992      8.334
REMARK  Name = 
REMARK  9 active torsions:
REMARK  status: ('A' for Active; 'I' for Inactive)
REMARK    1  A    between atoms: C_1  and  C_2
REMARK    2  A    between atoms: C_5  and  C_6
REMARK    3  A    between atoms: C_7  and  N_8
REMARK    4  A    between atoms: C_9  and  C_11
REMARK    5  A    between atoms: C_11  and  S_12
REMARK    6  A    between atoms: C_11  and  C_24
REMARK    7  A    between atoms: S_12  and  C_13
REMARK    8  A    between atoms: C_16  and  C_17
REMARK    9  A    between atoms: N_22  and  C_23
REMARK                            x       y       z     vdW  Elec       q    Type
REMARK                         _______ _______ _______ _____ _____    ______ ____
ROOT
ATOM      1  C   UNL     1       3.409   5.526  18.562  0.00  0.00    +0.000 C 
ENDROOT
BRANCH   1   2
ATOM      2  C   UNL     1       2.523   4.461  19.216  0.00  0.00    +0.000 A 
ATOM      3  C   UNL     1       1.596   3.729  18.463  0.00  0.00    +0.000 A 
ATOM      4  C   UNL     1       0.849   2.698  19.054  0.00  0.00    +0.000 A 
ATOM      5  C   UNL     1       1.018   2.392  20.404  0.00  0.00    +0.000 A 
ATOM      6  C   UNL     1       1.916   3.126  21.170  0.00  0.00    +0.000 A 
ATOM      7  C   UNL     1       2.654   4.153  20.586  0.00  0.00    +0.000 A 
ENDBRANCH   1   2
BRANCH   1   9
ATOM      8  N   UNL     1       1.851   7.041  19.771  0.00  0.00    +0.000 N 
ATOM      9  C   UNL     1       2.987   6.966  18.959  0.00  0.00    +0.000 C 
ATOM     10  O   UNL     1       3.574   7.948  18.521  0.00  0.00    +0.000 OA
ATOM     11  H   UNL     1       1.178   6.297  19.595  0.00  0.00    +0.000 HD
BRANCH   8  18
ATOM     12  C   UNL     1      -0.119   9.834  23.314  0.00  0.00    +0.000 C 
ATOM     13  C   UNL     1       0.308   9.677  21.883  0.00  0.00    +0.000 A 
ATOM     14  C   UNL     1      -0.067  10.627  20.934  0.00  0.00    +0.000 A 
ATOM     15  C   UNL     1       0.258  10.442  19.592  0.00  0.00    +0.000 A 
ATOM     16  C   UNL     1       0.939   9.289  19.159  0.00  0.00    +0.000 A 
ATOM     17  C   UNL     1       1.262   9.196  17.693  0.00  0.00    +0.000 C 
ATOM     18  C   UNL     1       1.270   8.299  20.105  0.00  0.00    +0.000 A 
ATOM     19  C   UNL     1       0.999   8.529  21.465  0.00  0.00    +0.000 A 
ENDBRANCH   8  18
ENDBRANCH   1   9
BRANCH   1  20
ATOM     20  S   UNL     1       5.172   5.241  19.092  0.00  0.00    +0.000 S 
BRANCH  20  21
ATOM     21  C   UNL     1       6.019   5.446  17.610  0.00  0.00    +0.000 A 
ATOM     22  N   UNL     1       7.027   6.264  17.420  0.00  0.00    +0.000 NA
ATOM     23  N   UNL     1       7.435   6.116  16.118  0.00  0.00    +0.000 NA
ATOM     24  C   UNL     1       6.651   5.224  15.538  0.00  0.00    +0.000 A 
ATOM     25  N   UNL     1       5.736   4.766  16.454  0.00  0.00    +0.000 N 
ATOM     26  C   UNL     1       4.753   3.730  16.257  0.00  0.00    +0.000 C 
BRANCH  24  27
ATOM     27  C   UNL     1       6.805   4.794  14.182  0.00  0.00    +0.000 A 
ATOM     28  C   UNL     1       6.155   3.744  13.557  0.00  0.00    +0.000 A 
ATOM     29  C   UNL     1       6.610   3.699  12.220  0.00  0.00    +0.000 A 
ATOM     30  C   UNL     1       7.530   4.712  12.101  0.00  0.00    +0.000 A 
ATOM     31  O   UNL     1       7.648   5.386  13.274  0.00  0.00    +0.000 OA
ENDBRANCH  24  27
ENDBRANCH  20  21
ENDBRANCH   1  20
TORSDOF 6
ENDMDL
MODEL 6
REMARK VINA RESULT:      -7.7      1.883      8.350
REMARK  Name = 
REMARK  9 active torsions:
REMARK  status: ('A' for Active; 'I' for Inactive)
REMARK    1  A    between atoms: C_1  and  C_2
REMARK    2  A    between atoms: C_5  and  C_6
REMARK    3  A    between atoms: C_7  and  N_8
REMARK    4  A    between atoms: C_9  and  C_11
REMARK    5  A    between atoms: C_11  and  S_12
REMARK    6  A    between atoms: C_11  and  C_24
REMARK    7  A    between atoms: S_12  and  C_13
REMARK    8  A    between atoms: C_16  and  C_17
REMARK    9  A    between atoms: N_22  and  C_23
REMARK                            x       y       z     vdW  Elec       q    Type
REMARK                         _______ _______ _______ _____ _____    ______ ____
ROOT
ATOM      1  C   UNL     1       2.549   6.125  18.749  0.00  0.00    +0.000 C 
ENDROOT
BRANCH   1   2
ATOM      2  C   UNL     1       1.876   4.791  19.093  0.00  0.00    +0.000 A 
ATOM      3  C   UNL     1       1.554   3.864  18.094  0.00  0.00    +0.000 A 
ATOM      4  C   UNL     1       1.015   2.612  18.427  0.00  0.00    +0.000 A 
ATOM      5  C   UNL     1       0.789   2.276  19.762  0.00  0.00    +0.000 A 
ATOM      6  C   UNL     1       1.080   3.195  20.763  0.00  0.00    +0.000 A 
ATOM      7  C   UNL     1       1.610   4.441  20.433  0.00  0.00    +0.000 A 
ENDBRANCH   1   2
BRANCH   1   9
ATOM      8  N   UNL     1       1.456   8.336  19.062  0.00  0.00    +0.000 N 
ATOM      9  C   UNL     1       2.102   7.270  19.697  0.00  0.00    +0.000 C 
ATOM     10  O   UNL     1       2.373   7.254  20.890  0.00  0.00    +0.000 OA
ATOM     11  H   UNL     1       1.785   8.501  18.113  0.00  0.00    +0.000 HD
BRANCH   8  18
ATOM     12  C   UNL     1      -0.805  10.208  23.014  0.00  0.00    +0.000 C 
ATOM     13  C   UNL     1      -0.007  10.425  21.761  0.00  0.00    +0.000 A 
ATOM     14  C   UNL     1       0.158  11.713  21.253  0.00  0.00    +0.000 A 
ATOM     15  C   UNL     1       0.828  11.910  20.048  0.00  0.00    +0.000 A 
ATOM     16  C   UNL     1       1.323  10.823  19.304  0.00  0.00    +0.000 A 
ATOM     17  C   UNL     1       2.050  11.144  18.026  0.00  0.00    +0.000 C 
ATOM     18  C   UNL     1       1.108   9.516  19.783  0.00  0.00    +0.000 A 
ATOM     19  C   UNL     1       0.493   9.334  21.033  0.00  0.00    +0.000 A 
ENDBRANCH   8  18
ENDBRANCH   1   9
BRANCH   1  20
ATOM     20  S   UNL     1       4.394   5.911  18.881  0.00  0.00    +0.000 S 
BRANCH  20  21
ATOM     21  C   UNL     1       4.872   5.977  17.230  0.00  0.00    +0.000 A 
ATOM     22  N   UNL     1       5.072   7.076  16.543  0.00  0.00    +0.000 NA
ATOM     23  N   UNL     1       5.461   6.704  15.280  0.00  0.00    +0.000 NA
ATOM     24  C   UNL     1       5.469   5.384  15.222  0.00  0.00    +0.000 A 
ATOM     25  N   UNL     1       5.103   4.877  16.446  0.00  0.00    +0.000 N 
ATOM     26  C   UNL     1       5.064   3.490  16.836  0.00  0.00    +0.000 C 
BRANCH  24  27
ATOM     27  C   UNL     1       5.857   4.642  14.062  0.00  0.00    +0.000 A 
ATOM     28  C   UNL     1       5.081   3.754  13.337  0.00  0.00    +0.000 A 
ATOM     29  C   UNL     1       5.873   3.270  12.271  0.00  0.00    +0.000 A 
ATOM     30  C   UNL     1       7.099   3.874  12.410  0.00  0.00    +0.000 A 
ATOM     31  O   UNL     1       7.098   4.711  13.479  0.00  0.00    +0.000 OA
ENDBRANCH  24  27
ENDBRANCH  20  21
ENDBRANCH   1  20
TORSDOF 6
ENDMDL
MODEL 7
REMARK VINA RESULT:      -7.7      2.055      8.324
REMARK  Name = 
REMARK  9 active torsions:
REMARK  status: ('A' for Active; 'I' for Inactive)
REMARK    1  A    between atoms: C_1  and  C_2
REMARK    2  A    between atoms: C_5  and  C_6
REMARK    3  A    between atoms: C_7  and  N_8
REMARK    4  A    between atoms: C_9  and  C_11
REMARK    5  A    between atoms: C_11  and  S_12
REMARK    6  A    between atoms: C_11  and  C_24
REMARK    7  A    between atoms: S_12  and  C_13
REMARK    8  A    between atoms: C_16  and  C_17
REMARK    9  A    between atoms: N_22  and  C_23
REMARK                            x       y       z     vdW  Elec       q    Type
REMARK                         _______ _______ _______ _____ _____    ______ ____
ROOT
ATOM      1  C   UNL     1       2.664   6.131  18.456  0.00  0.00    +0.000 C 
ENDROOT
BRANCH   1   2
ATOM      2  C   UNL     1       1.941   4.891  18.993  0.00  0.00    +0.000 A 
ATOM      3  C   UNL     1       1.495   3.883  18.128  0.00  0.00    +0.000 A 
ATOM      4  C   UNL     1       0.910   2.712  18.635  0.00  0.00    +0.000 A 
ATOM      5  C   UNL     1       0.762   2.540  20.011  0.00  0.00    +0.000 A 
ATOM      6  C   UNL     1       1.177   3.541  20.880  0.00  0.00    +0.000 A 
ATOM      7  C   UNL     1       1.753   4.706  20.377  0.00  0.00    +0.000 A 
ENDBRANCH   1   2
BRANCH   1   9
ATOM      8  N   UNL     1       1.537   8.347  18.517  0.00  0.00    +0.000 N 
ATOM      9  C   UNL     1       2.288   7.416  19.242  0.00  0.00    +0.000 C 
ATOM     10  O   UNL     1       2.693   7.610  20.381  0.00  0.00    +0.000 OA
ATOM     11  H   UNL     1       1.750   8.352  17.521  0.00  0.00    +0.000 HD
BRANCH   8  18
ATOM     12  C   UNL     1       2.353  13.197  18.296  0.00  0.00    +0.000 C 
ATOM     13  C   UNL     1       1.640  12.037  18.928  0.00  0.00    +0.000 A 
ATOM     14  C   UNL     1       0.922  12.217  20.110  0.00  0.00    +0.000 A 
ATOM     15  C   UNL     1       0.329  11.127  20.742  0.00  0.00    +0.000 A 
ATOM     16  C   UNL     1       0.461   9.825  20.226  0.00  0.00    +0.000 A 
ATOM     17  C   UNL     1      -0.237   8.720  20.972  0.00  0.00    +0.000 C 
ATOM     18  C   UNL     1       1.233   9.628  19.064  0.00  0.00    +0.000 A 
ATOM     19  C   UNL     1       1.769  10.743  18.397  0.00  0.00    +0.000 A 
ENDBRANCH   8  18
ENDBRANCH   1   9
BRANCH   1  20
ATOM     20  S   UNL     1       4.501   5.854  18.588  0.00  0.00    +0.000 S 
BRANCH  20  21
ATOM     21  C   UNL     1       4.971   5.839  16.934  0.00  0.00    +0.000 A 
ATOM     22  N   UNL     1       5.329   6.891  16.239  0.00  0.00    +0.000 NA
ATOM     23  N   UNL     1       5.648   6.459  14.976  0.00  0.00    +0.000 NA
ATOM     24  C   UNL     1       5.457   5.152  14.925  0.00  0.00    +0.000 A 
ATOM     25  N   UNL     1       5.028   4.713  16.155  0.00  0.00    +0.000 N 
ATOM     26  C   UNL     1       4.783   3.349  16.553  0.00  0.00    +0.000 C 
BRANCH  24  27
ATOM     27  C   UNL     1       5.720   4.355  13.767  0.00  0.00    +0.000 A 
ATOM     28  C   UNL     1       6.952   4.092  13.193  0.00  0.00    +0.000 A 
ATOM     29  C   UNL     1       6.730   3.252  12.078  0.00  0.00    +0.000 A 
ATOM     30  C   UNL     1       5.371   3.059  12.017  0.00  0.00    +0.000 A 
ATOM     31  O   UNL     1       4.752   3.710  13.036  0.00  0.00    +0.000 OA
ENDBRANCH  24  27
ENDBRANCH  20  21
ENDBRANCH   1  20
TORSDOF 6
ENDMDL
MODEL 8
REMARK VINA RESULT:      -7.7      1.165      1.550
REMARK  Name = 
REMARK  9 active torsions:
REMARK  status: ('A' for Active; 'I' for Inactive)
REMARK    1  A    between atoms: C_1  and  C_2
REMARK    2  A    between atoms: C_5  and  C_6
REMARK    3  A    between atoms: C_7  and  N_8
REMARK    4  A    between atoms: C_9  and  C_11
REMARK    5  A    between atoms: C_11  and  S_12
REMARK    6  A    between atoms: C_11  and  C_24
REMARK    7  A    between atoms: S_12  and  C_13
REMARK    8  A    between atoms: C_16  and  C_17
REMARK    9  A    between atoms: N_22  and  C_23
REMARK                            x       y       z     vdW  Elec       q    Type
REMARK                         _______ _______ _______ _____ _____    ______ ____
ROOT
ATOM      1  C   UNL     1       2.748   6.716  19.207  0.00  0.00    +0.000 C 
ENDROOT
BRANCH   1   2
ATOM      2  C   UNL     1       2.218   5.346  19.643  0.00  0.00    +0.000 A 
ATOM      3  C   UNL     1       2.358   4.904  20.965  0.00  0.00    +0.000 A 
ATOM      4  C   UNL     1       1.795   3.685  21.375  0.00  0.00    +0.000 A 
ATOM      5  C   UNL     1       1.092   2.894  20.467  0.00  0.00    +0.000 A 
ATOM      6  C   UNL     1       0.966   3.308  19.146  0.00  0.00    +0.000 A 
ATOM      7  C   UNL     1       1.529   4.515  18.737  0.00  0.00    +0.000 A 
ENDBRANCH   1   2
BRANCH   1   9
ATOM      8  N   UNL     1       4.304   5.343  17.836  0.00  0.00    +0.000 N 
ATOM      9  C   UNL     1       3.740   6.610  18.017  0.00  0.00    +0.000 C 
ATOM     10  O   UNL     1       4.048   7.591  17.353  0.00  0.00    +0.000 OA
ATOM     11  H   UNL     1       4.426   4.826  18.704  0.00  0.00    +0.000 HD
BRANCH   8  18
ATOM     12  C   UNL     1       5.389   3.827  13.279  0.00  0.00    +0.000 C 
ATOM     13  C   UNL     1       5.846   4.386  14.596  0.00  0.00    +0.000 A 
ATOM     14  C   UNL     1       7.207   4.455  14.891  0.00  0.00    +0.000 A 
ATOM     15  C   UNL     1       7.631   4.896  16.142  0.00  0.00    +0.000 A 
ATOM     16  C   UNL     1       6.706   5.251  17.141  0.00  0.00    +0.000 A 
ATOM     17  C   UNL     1       7.267   5.736  18.450  0.00  0.00    +0.000 C 
ATOM     18  C   UNL     1       5.329   5.129  16.868  0.00  0.00    +0.000 A 
ATOM     19  C   UNL     1       4.914   4.749  15.581  0.00  0.00    +0.000 A 
ENDBRANCH   8  18
ENDBRANCH   1   9
BRANCH   1  20
ATOM     20  S   UNL     1       1.305   7.779  18.702  0.00  0.00    +0.000 S 
BRANCH  20  21
ATOM     21  C   UNL     1       1.084   8.754  20.102  0.00  0.00    +0.000 A 
ATOM     22  N   UNL     1       1.641   8.540  21.269  0.00  0.00    +0.000 NA
ATOM     23  N   UNL     1       1.233   9.547  22.108  0.00  0.00    +0.000 NA
ATOM     24  C   UNL     1       0.418  10.341  21.436  0.00  0.00    +0.000 A 
ATOM     25  N   UNL     1       0.298   9.875  20.148  0.00  0.00    +0.000 N 
ATOM     26  C   UNL     1      -0.428  10.492  19.066  0.00  0.00    +0.000 C 
BRANCH  24  27
ATOM     27  C   UNL     1      -0.177  11.519  21.987  0.00  0.00    +0.000 A 
ATOM     28  C   UNL     1       0.081  12.832  21.634  0.00  0.00    +0.000 A 
ATOM     29  C   UNL     1      -0.745  13.657  22.431  0.00  0.00    +0.000 A 
ATOM     30  C   UNL     1      -1.452  12.806  23.244  0.00  0.00    +0.000 A 
ATOM     31  O   UNL     1      -1.127  11.514  22.978  0.00  0.00    +0.000 OA
ENDBRANCH  24  27
ENDBRANCH  20  21
ENDBRANCH   1  20
TORSDOF 6
ENDMDL
MODEL 9
REMARK VINA RESULT:      -7.6      3.535      8.821
REMARK  Name = 
REMARK  9 active torsions:
REMARK  status: ('A' for Active; 'I' for Inactive)
REMARK    1  A    between atoms: C_1  and  C_2
REMARK    2  A    between atoms: C_5  and  C_6
REMARK    3  A    between atoms: C_7  and  N_8
REMARK    4  A    between atoms: C_9  and  C_11
REMARK    5  A    between atoms: C_11  and  S_12
REMARK    6  A    between atoms: C_11  and  C_24
REMARK    7  A    between atoms: S_12  and  C_13
REMARK    8  A    between atoms: C_16  and  C_17
REMARK    9  A    between atoms: N_22  and  C_23
REMARK                            x       y       z     vdW  Elec       q    Type
REMARK                         _______ _______ _______ _____ _____    ______ ____
ROOT
ATOM      1  C   UNL     1       0.541  10.722  18.637  0.00  0.00    +0.000 C 
ENDROOT
BRANCH   1   2
ATOM      2  C   UNL     1      -0.970  10.777  18.384  0.00  0.00    +0.000 A 
ATOM      3  C   UNL     1      -1.786  11.684  19.071  0.00  0.00    +0.000 A 
ATOM      4  C   UNL     1      -3.154  11.784  18.773  0.00  0.00    +0.000 A 
ATOM      5  C   UNL     1      -3.719  10.975  17.788  0.00  0.00    +0.000 A 
ATOM      6  C   UNL     1      -2.927  10.052  17.114  0.00  0.00    +0.000 A 
ATOM      7  C   UNL     1      -1.571   9.949  17.414  0.00  0.00    +0.000 A 
ENDBRANCH   1   2
BRANCH   1   9
ATOM      8  N   UNL     1       1.359  13.004  18.082  0.00  0.00    +0.000 N 
ATOM      9  C   UNL     1       1.107  12.088  19.108  0.00  0.00    +0.000 C 
ATOM     10  O   UNL     1       1.376  12.297  20.284  0.00  0.00    +0.000 OA
ATOM     11  H   UNL     1       1.635  12.564  17.206  0.00  0.00    +0.000 HD
BRANCH   8  18
ATOM     12  C   UNL     1       5.642  15.380  18.575  0.00  0.00    +0.000 C 
ATOM     13  C   UNL     1       4.141  15.413  18.575  0.00  0.00    +0.000 A 
ATOM     14  C   UNL     1       3.468  16.543  19.039  0.00  0.00    +0.000 A 
ATOM     15  C   UNL     1       2.077  16.546  19.117  0.00  0.00    +0.000 A 
ATOM     16  C   UNL     1       1.324  15.411  18.764  0.00  0.00    +0.000 A 
ATOM     17  C   UNL     1      -0.173  15.525  18.864  0.00  0.00    +0.000 C 
ATOM     18  C   UNL     1       2.002  14.248  18.350  0.00  0.00    +0.000 A 
ATOM     19  C   UNL     1       3.400  14.279  18.209  0.00  0.00    +0.000 A 
ENDBRANCH   8  18
ENDBRANCH   1   9
BRANCH   1  20
ATOM     20  S   UNL     1       0.880   9.439  19.943  0.00  0.00    +0.000 S 
BRANCH  20  21
ATOM     21  C   UNL     1       1.910   8.349  19.103  0.00  0.00    +0.000 A 
ATOM     22  N   UNL     1       2.570   8.625  18.004  0.00  0.00    +0.000 NA
ATOM     23  N   UNL     1       3.288   7.506  17.666  0.00  0.00    +0.000 NA
ATOM     24  C   UNL     1       3.033   6.564  18.558  0.00  0.00    +0.000 A 
ATOM     25  N   UNL     1       2.161   7.060  19.497  0.00  0.00    +0.000 N 
ATOM     26  C   UNL     1       1.690   6.391  20.684  0.00  0.00    +0.000 C 
BRANCH  24  27
ATOM     27  C   UNL     1       3.635   5.267  18.539  0.00  0.00    +0.000 A 
ATOM     28  C   UNL     1       4.769   4.859  19.220  0.00  0.00    +0.000 A 
ATOM     29  C   UNL     1       4.983   3.497  18.912  0.00  0.00    +0.000 A 
ATOM     30  C   UNL     1       3.979   3.147  18.042  0.00  0.00    +0.000 A 
ATOM     31  O   UNL     1       3.154   4.202  17.818  0.00  0.00    +0.000 OA
ENDBRANCH  24  27
ENDBRANCH  20  21
ENDBRANCH   1  20
TORSDOF 6
ENDMDL
