MODEL 1
REMARK VINA RESULT:      -8.6      0.000      0.000
REMARK  Name = 
REMARK  4 active torsions:
REMARK  status: ('A' for Active; 'I' for Inactive)
REMARK    1  A    between atoms: C_1  and  N_2
REMARK    2  A    between atoms: C_7  and  N_8
REMARK    3  A    between atoms: C_9  and  C_11
REMARK    4  A    between atoms: C_11  and  C_12
REMARK                            x       y       z     vdW  Elec       q    Type
REMARK                         _______ _______ _______ _____ _____    ______ ____
ROOT
ATOM      1  N   UNL     1       2.577   6.663  20.356  0.00  0.00    +0.000 N 
ATOM      2  C   UNL     1       2.095   5.363  20.398  0.00  0.00    +0.000 C 
ATOM      3  O   UNL     1       0.919   5.030  20.545  0.00  0.00    +0.000 OA
ATOM      4  H   UNL     1       3.579   6.787  20.430  0.00  0.00    +0.000 HD
ENDROOT
BRANCH   1  11
ATOM      5  C   UNL     1      -1.904  13.056  21.669  0.00  0.00    +0.000 C 
ATOM      6  N   UNL     1      -1.053  11.884  21.675  0.00  0.00    +0.000 N 
ATOM      7  C   UNL     1      -1.301  10.851  22.671  0.00  0.00    +0.000 C 
ATOM      8  C   UNL     1      -0.043  10.034  22.937  0.00  0.00    +0.000 C 
ATOM      9  C   UNL     1       0.507   9.514  21.637  0.00  0.00    +0.000 A 
ATOM     10  C   UNL     1       1.253   8.328  21.613  0.00  0.00    +0.000 A 
ATOM     11  C   UNL     1       1.794   7.838  20.419  0.00  0.00    +0.000 A 
ATOM     12  C   UNL     1       1.548   8.542  19.233  0.00  0.00    +0.000 A 
ATOM     13  C   UNL     1       0.834   9.748  19.252  0.00  0.00    +0.000 A 
ATOM     14  C   UNL     1       0.323  10.243  20.457  0.00  0.00    +0.000 A 
ATOM     15  C   UNL     1      -0.400  11.551  20.483  0.00  0.00    +0.000 C 
ATOM     16  O   UNL     1      -0.401  12.270  19.489  0.00  0.00    +0.000 OA
ENDBRANCH   1  11
BRANCH   2  17
ATOM     17  C   UNL     1       3.177   4.297  20.296  0.00  0.00    +0.000 C 
BRANCH  17  18
ATOM     18  C   UNL     1       3.789   4.216  18.915  0.00  0.00    +0.000 A 
ATOM     19  C   UNL     1       3.056   3.647  17.848  0.00  0.00    +0.000 A 
ATOM     20  C   UNL     1       3.573   3.612  16.547  0.00  0.00    +0.000 A 
ATOM     21  C   UNL     1       4.825   4.152  16.332  0.00  0.00    +0.000 A 
ATOM     22  C   UNL     1       5.563   4.677  17.389  0.00  0.00    +0.000 A 
ATOM     23  C   UNL     1       5.087   4.707  18.683  0.00  0.00    +0.000 A 
ATOM     24  N   UNL     1       6.771   5.166  16.919  0.00  0.00    +0.000 N 
ATOM     25  C   UNL     1       6.875   5.014  15.542  0.00  0.00    +0.000 C 
ATOM     26  O   UNL     1       7.811   5.378  14.851  0.00  0.00    +0.000 OA
ATOM     27  C   UNL     1       5.598   4.316  15.058  0.00  0.00    +0.000 C 
ATOM     28  H   UNL     1       7.481   5.617  17.477  0.00  0.00    +0.000 HD
ENDBRANCH  17  18
ENDBRANCH   2  17
TORSDOF 3
ENDMDL
MODEL 2
REMARK VINA RESULT:      -8.3      1.104      1.566
REMARK  Name = 
REMARK  4 active torsions:
REMARK  status: ('A' for Active; 'I' for Inactive)
REMARK    1  A    between atoms: C_1  and  N_2
REMARK    2  A    between atoms: C_7  and  N_8
REMARK    3  A    between atoms: C_9  and  C_11
REMARK    4  A    between atoms: C_11  and  C_12
REMARK                            x       y       z     vdW  Elec       q    Type
REMARK                         _______ _______ _______ _____ _____    ______ ____
ROOT
ATOM      1  N   UNL     1       2.959   6.227  19.667  0.00  0.00    +0.000 N 
ATOM      2  C   UNL     1       2.443   4.944  19.772  0.00  0.00    +0.000 C 
ATOM      3  O   UNL     1       1.270   4.652  20.007  0.00  0.00    +0.000 OA
ATOM      4  H   UNL     1       3.968   6.321  19.669  0.00  0.00    +0.000 HD
ENDROOT
BRANCH   1  11
ATOM      5  C   UNL     1      -1.313  12.732  21.120  0.00  0.00    +0.000 C 
ATOM      6  N   UNL     1      -0.506  11.530  21.100  0.00  0.00    +0.000 N 
ATOM      7  C   UNL     1      -0.812  10.472  22.054  0.00  0.00    +0.000 C 
ATOM      8  C   UNL     1       0.410   9.601  22.315  0.00  0.00    +0.000 C 
ATOM      9  C   UNL     1       0.968   9.107  21.008  0.00  0.00    +0.000 A 
ATOM     10  C   UNL     1       1.671   7.895  20.957  0.00  0.00    +0.000 A 
ATOM     11  C   UNL     1       2.218   7.427  19.756  0.00  0.00    +0.000 A 
ATOM     12  C   UNL     1       2.023   8.181  18.591  0.00  0.00    +0.000 A 
ATOM     13  C   UNL     1       1.352   9.411  18.640  0.00  0.00    +0.000 A 
ATOM     14  C   UNL     1       0.835   9.882  19.851  0.00  0.00    +0.000 A 
ATOM     15  C   UNL     1       0.159  11.214  19.909  0.00  0.00    +0.000 C 
ATOM     16  O   UNL     1       0.205  11.967  18.942  0.00  0.00    +0.000 OA
ENDBRANCH   1  11
BRANCH   2  17
ATOM     17  C   UNL     1       3.482   3.842  19.620  0.00  0.00    +0.000 C 
BRANCH  17  18
ATOM     18  C   UNL     1       4.512   4.153  18.557  0.00  0.00    +0.000 A 
ATOM     19  C   UNL     1       5.794   4.624  18.928  0.00  0.00    +0.000 A 
ATOM     20  C   UNL     1       6.786   4.864  17.971  0.00  0.00    +0.000 A 
ATOM     21  C   UNL     1       6.479   4.628  16.645  0.00  0.00    +0.000 A 
ATOM     22  C   UNL     1       5.206   4.202  16.276  0.00  0.00    +0.000 A 
ATOM     23  C   UNL     1       4.205   3.976  17.196  0.00  0.00    +0.000 A 
ATOM     24  N   UNL     1       5.153   4.023  14.903  0.00  0.00    +0.000 N 
ATOM     25  C   UNL     1       6.381   4.294  14.311  0.00  0.00    +0.000 C 
ATOM     26  O   UNL     1       6.639   4.193  13.124  0.00  0.00    +0.000 OA
ATOM     27  C   UNL     1       7.342   4.729  15.424  0.00  0.00    +0.000 C 
ATOM     28  H   UNL     1       4.351   3.700  14.383  0.00  0.00    +0.000 HD
ENDBRANCH  17  18
ENDBRANCH   2  17
TORSDOF 3
ENDMDL
MODEL 3
REMARK VINA RESULT:      -8.3      0.905      1.745
REMARK  Name = 
REMARK  4 active torsions:
REMARK  status: ('A' for Active; 'I' for Inactive)
REMARK    1  A    between atoms: C_1  and  N_2
REMARK    2  A    between atoms: C_7  and  N_8
REMARK    3  A    between atoms: C_9  and  C_11
REMARK    4  A    between atoms: C_11  and  C_12
REMARK                            x       y       z     vdW  Elec       q    Type
REMARK                         _______ _______ _______ _____ _____    ______ ____
ROOT
ATOM      1  N   UNL     1       2.467   6.682  20.491  0.00  0.00    +0.000 N 
ATOM      2  C   UNL     1       1.976   5.385  20.476  0.00  0.00    +0.000 C 
ATOM      3  O   UNL     1       0.794   5.056  20.579  0.00  0.00    +0.000 OA
ATOM      4  H   UNL     1       3.468   6.796  20.597  0.00  0.00    +0.000 HD
ENDROOT
BRANCH   1  11
ATOM      5  C   UNL     1      -1.739  13.368  19.960  0.00  0.00    +0.000 C 
ATOM      6  N   UNL     1      -0.995  12.135  19.811  0.00  0.00    +0.000 N 
ATOM      7  C   UNL     1      -0.012  12.042  18.740  0.00  0.00    +0.000 C 
ATOM      8  C   UNL     1       0.230  10.590  18.344  0.00  0.00    +0.000 C 
ATOM      9  C   UNL     1       0.575   9.784  19.566  0.00  0.00    +0.000 A 
ATOM     10  C   UNL     1       1.375   8.638  19.449  0.00  0.00    +0.000 A 
ATOM     11  C   UNL     1       1.690   7.860  20.569  0.00  0.00    +0.000 A 
ATOM     12  C   UNL     1       1.214   8.265  21.823  0.00  0.00    +0.000 A 
ATOM     13  C   UNL     1       0.384   9.388  21.944  0.00  0.00    +0.000 A 
ATOM     14  C   UNL     1       0.053  10.142  20.813  0.00  0.00    +0.000 A 
ATOM     15  C   UNL     1      -0.868  11.314  20.937  0.00  0.00    +0.000 C 
ATOM     16  O   UNL     1      -1.465  11.514  21.989  0.00  0.00    +0.000 OA
ENDBRANCH   1  11
BRANCH   2  17
ATOM     17  C   UNL     1       3.053   4.314  20.369  0.00  0.00    +0.000 C 
BRANCH  17  18
ATOM     18  C   UNL     1       3.673   4.245  18.992  0.00  0.00    +0.000 A 
ATOM     19  C   UNL     1       2.929   3.728  17.905  0.00  0.00    +0.000 A 
ATOM     20  C   UNL     1       3.455   3.706  16.608  0.00  0.00    +0.000 A 
ATOM     21  C   UNL     1       4.728   4.206  16.416  0.00  0.00    +0.000 A 
ATOM     22  C   UNL     1       5.475   4.678  17.491  0.00  0.00    +0.000 A 
ATOM     23  C   UNL     1       4.989   4.694  18.781  0.00  0.00    +0.000 A 
ATOM     24  N   UNL     1       6.704   5.135  17.043  0.00  0.00    +0.000 N 
ATOM     25  C   UNL     1       6.814   5.012  15.663  0.00  0.00    +0.000 C 
ATOM     26  O   UNL     1       7.768   5.359  14.988  0.00  0.00    +0.000 OA
ATOM     27  C   UNL     1       5.517   4.372  15.152  0.00  0.00    +0.000 C 
ATOM     28  H   UNL     1       7.425   5.546  17.616  0.00  0.00    +0.000 HD
ENDBRANCH  17  18
ENDBRANCH   2  17
TORSDOF 3
ENDMDL
MODEL 4
REMARK VINA RESULT:      -8.3      3.144      4.110
REMARK  Name = 
REMARK  4 active torsions:
REMARK  status: ('A' for Active; 'I' for Inactive)
REMARK    1  A    between atoms: C_1  and  N_2
REMARK    2  A    between atoms: C_7  and  N_8
REMARK    3  A    between atoms: C_9  and  C_11
REMARK    4  A    between atoms: C_11  and  C_12
REMARK                            x       y       z     vdW  Elec       q    Type
REMARK                         _______ _______ _______ _____ _____    ______ ____
ROOT
ATOM      1  N   UNL     1       1.098   9.278  17.820  0.00  0.00    +0.000 N 
ATOM      2  C   UNL     1       1.846   8.471  18.665  0.00  0.00    +0.000 C 
ATOM      3  O   UNL     1       1.690   8.353  19.881  0.00  0.00    +0.000 OA
ATOM      4  H   UNL     1       1.460   9.430  16.887  0.00  0.00    +0.000 HD
ENDROOT
BRANCH   1  11
ATOM      5  C   UNL     1      -5.652  13.134  19.314  0.00  0.00    +0.000 C 
ATOM      6  N   UNL     1      -4.563  12.254  18.944  0.00  0.00    +0.000 N 
ATOM      7  C   UNL     1      -4.589  11.634  17.626  0.00  0.00    +0.000 C 
ATOM      8  C   UNL     1      -3.769  10.350  17.609  0.00  0.00    +0.000 C 
ATOM      9  C   UNL     1      -2.385  10.627  18.132  0.00  0.00    +0.000 A 
ATOM     10  C   UNL     1      -1.304   9.841  17.708  0.00  0.00    +0.000 A 
ATOM     11  C   UNL     1      -0.012  10.066  18.198  0.00  0.00    +0.000 A 
ATOM     12  C   UNL     1       0.189  11.117  19.102  0.00  0.00    +0.000 A 
ATOM     13  C   UNL     1      -0.893  11.884  19.558  0.00  0.00    +0.000 A 
ATOM     14  C   UNL     1      -2.184  11.632  19.083  0.00  0.00    +0.000 A 
ATOM     15  C   UNL     1      -3.341  12.422  19.604  0.00  0.00    +0.000 C 
ATOM     16  O   UNL     1      -3.190  13.170  20.564  0.00  0.00    +0.000 OA
ENDBRANCH   1  11
BRANCH   2  17
ATOM     17  C   UNL     1       2.978   7.727  17.971  0.00  0.00    +0.000 C 
BRANCH  17  18
ATOM     18  C   UNL     1       2.968   6.243  18.265  0.00  0.00    +0.000 A 
ATOM     19  C   UNL     1       1.932   5.427  17.752  0.00  0.00    +0.000 A 
ATOM     20  C   UNL     1       1.927   4.042  17.958  0.00  0.00    +0.000 A 
ATOM     21  C   UNL     1       2.967   3.490  18.679  0.00  0.00    +0.000 A 
ATOM     22  C   UNL     1       3.965   4.297  19.217  0.00  0.00    +0.000 A 
ATOM     23  C   UNL     1       3.984   5.665  19.046  0.00  0.00    +0.000 A 
ATOM     24  N   UNL     1       4.895   3.513  19.880  0.00  0.00    +0.000 N 
ATOM     25  C   UNL     1       4.572   2.164  19.789  0.00  0.00    +0.000 C 
ATOM     26  O   UNL     1       5.223   1.241  20.249  0.00  0.00    +0.000 OA
ATOM     27  C   UNL     1       3.262   2.056  18.999  0.00  0.00    +0.000 C 
ATOM     28  H   UNL     1       5.728   3.848  20.340  0.00  0.00    +0.000 HD
ENDBRANCH  17  18
ENDBRANCH   2  17
TORSDOF 3
ENDMDL
MODEL 5
REMARK VINA RESULT:      -8.2      6.260      7.728
REMARK  Name = 
REMARK  4 active torsions:
REMARK  status: ('A' for Active; 'I' for Inactive)
REMARK    1  A    between atoms: C_1  and  N_2
REMARK    2  A    between atoms: C_7  and  N_8
REMARK    3  A    between atoms: C_9  and  C_11
REMARK    4  A    between atoms: C_11  and  C_12
REMARK                            x       y       z     vdW  Elec       q    Type
REMARK                         _______ _______ _______ _____ _____    ______ ____
ROOT
ATOM      1  N   UNL     1       8.686   8.295  18.946  0.00  0.00    +0.000 N 
ATOM      2  C   UNL     1       7.848   7.643  18.053  0.00  0.00    +0.000 C 
ATOM      3  O   UNL     1       7.157   8.177  17.185  0.00  0.00    +0.000 OA
ATOM      4  H   UNL     1       9.036   7.755  19.728  0.00  0.00    +0.000 HD
ENDROOT
BRANCH   1  11
ATOM      5  C   UNL     1      10.283  15.963  20.095  0.00  0.00    +0.000 C 
ATOM      6  N   UNL     1      10.103  14.526  20.103  0.00  0.00    +0.000 N 
ATOM      7  C   UNL     1       9.654  13.889  21.333  0.00  0.00    +0.000 C 
ATOM      8  C   UNL     1      10.073  12.425  21.376  0.00  0.00    +0.000 C 
ATOM      9  C   UNL     1       9.614  11.731  20.122  0.00  0.00    +0.000 A 
ATOM     10  C   UNL     1       9.344  10.355  20.139  0.00  0.00    +0.000 A 
ATOM     11  C   UNL     1       8.938   9.685  18.979  0.00  0.00    +0.000 A 
ATOM     12  C   UNL     1       8.774  10.423  17.800  0.00  0.00    +0.000 A 
ATOM     13  C   UNL     1       9.077  11.792  17.766  0.00  0.00    +0.000 A 
ATOM     14  C   UNL     1       9.509  12.445  18.925  0.00  0.00    +0.000 A 
ATOM     15  C   UNL     1       9.873  13.894  18.876  0.00  0.00    +0.000 C 
ATOM     16  O   UNL     1       9.956  14.469  17.795  0.00  0.00    +0.000 OA
ENDBRANCH   1  11
BRANCH   2  17
ATOM     17  C   UNL     1       7.785   6.134  18.249  0.00  0.00    +0.000 C 
BRANCH  17  18
ATOM     18  C   UNL     1       6.406   5.569  17.988  0.00  0.00    +0.000 A 
ATOM     19  C   UNL     1       6.095   5.018  16.723  0.00  0.00    +0.000 A 
ATOM     20  C   UNL     1       4.847   4.435  16.471  0.00  0.00    +0.000 A 
ATOM     21  C   UNL     1       3.923   4.412  17.496  0.00  0.00    +0.000 A 
ATOM     22  C   UNL     1       4.215   4.989  18.729  0.00  0.00    +0.000 A 
ATOM     23  C   UNL     1       5.428   5.587  18.998  0.00  0.00    +0.000 A 
ATOM     24  N   UNL     1       3.141   4.826  19.588  0.00  0.00    +0.000 N 
ATOM     25  C   UNL     1       2.111   4.118  18.980  0.00  0.00    +0.000 C 
ATOM     26  O   UNL     1       1.057   3.800  19.502  0.00  0.00    +0.000 OA
ATOM     27  C   UNL     1       2.552   3.808  17.544  0.00  0.00    +0.000 C 
ATOM     28  H   UNL     1       3.103   5.135  20.548  0.00  0.00    +0.000 HD
ENDBRANCH  17  18
ENDBRANCH   2  17
TORSDOF 3
ENDMDL
MODEL 6
REMARK VINA RESULT:      -8.1      3.203      9.352
REMARK  Name = 
REMARK  4 active torsions:
REMARK  status: ('A' for Active; 'I' for Inactive)
REMARK    1  A    between atoms: C_1  and  N_2
REMARK    2  A    between atoms: C_7  and  N_8
REMARK    3  A    between atoms: C_9  and  C_11
REMARK    4  A    between atoms: C_11  and  C_12
REMARK                            x       y       z     vdW  Elec       q    Type
REMARK                         _______ _______ _______ _____ _____    ______ ____
ROOT
ATOM      1  N   UNL     1       1.347   8.399  19.491  0.00  0.00    +0.000 N 
ATOM      2  C   UNL     1       1.173   9.722  19.112  0.00  0.00    +0.000 C 
ATOM      3  O   UNL     1       1.911  10.365  18.364  0.00  0.00    +0.000 OA
ATOM      4  H   UNL     1       0.782   8.061  20.261  0.00  0.00    +0.000 HD
ENDROOT
BRANCH   1  11
ATOM      5  C   UNL     1       7.133   4.146  16.159  0.00  0.00    +0.000 C 
ATOM      6  N   UNL     1       6.138   5.098  16.604  0.00  0.00    +0.000 N 
ATOM      7  C   UNL     1       5.359   5.810  15.600  0.00  0.00    +0.000 C 
ATOM      8  C   UNL     1       4.828   7.127  16.151  0.00  0.00    +0.000 C 
ATOM      9  C   UNL     1       4.089   6.877  17.438  0.00  0.00    +0.000 A 
ATOM     10  C   UNL     1       3.057   7.739  17.835  0.00  0.00    +0.000 A 
ATOM     11  C   UNL     1       2.372   7.538  19.039  0.00  0.00    +0.000 A 
ATOM     12  C   UNL     1       2.716   6.434  19.831  0.00  0.00    +0.000 A 
ATOM     13  C   UNL     1       3.771   5.589  19.459  0.00  0.00    +0.000 A 
ATOM     14  C   UNL     1       4.467   5.816  18.267  0.00  0.00    +0.000 A 
ATOM     15  C   UNL     1       5.619   4.939  17.894  0.00  0.00    +0.000 C 
ATOM     16  O   UNL     1       6.062   4.132  18.705  0.00  0.00    +0.000 OA
ENDBRANCH   1  11
BRANCH   2  17
ATOM     17  C   UNL     1      -0.030  10.399  19.754  0.00  0.00    +0.000 C 
BRANCH  17  18
ATOM     18  C   UNL     1      -1.174  10.597  18.784  0.00  0.00    +0.000 A 
ATOM     19  C   UNL     1      -1.206   9.873  17.569  0.00  0.00    +0.000 A 
ATOM     20  C   UNL     1      -2.280   9.991  16.679  0.00  0.00    +0.000 A 
ATOM     21  C   UNL     1      -3.315  10.840  17.021  0.00  0.00    +0.000 A 
ATOM     22  C   UNL     1      -3.265  11.582  18.198  0.00  0.00    +0.000 A 
ATOM     23  C   UNL     1      -2.211  11.499  19.082  0.00  0.00    +0.000 A 
ATOM     24  N   UNL     1      -4.418  12.340  18.321  0.00  0.00    +0.000 N 
ATOM     25  C   UNL     1      -5.285  12.117  17.258  0.00  0.00    +0.000 C 
ATOM     26  O   UNL     1      -6.385  12.622  17.115  0.00  0.00    +0.000 OA
ATOM     27  C   UNL     1      -4.607  11.118  16.313  0.00  0.00    +0.000 C 
ATOM     28  H   UNL     1      -4.641  12.951  19.093  0.00  0.00    +0.000 HD
ENDBRANCH  17  18
ENDBRANCH   2  17
TORSDOF 3
ENDMDL
MODEL 7
REMARK VINA RESULT:      -8.1      1.165      1.286
REMARK  Name = 
REMARK  4 active torsions:
REMARK  status: ('A' for Active; 'I' for Inactive)
REMARK    1  A    between atoms: C_1  and  N_2
REMARK    2  A    between atoms: C_7  and  N_8
REMARK    3  A    between atoms: C_9  and  C_11
REMARK    4  A    between atoms: C_11  and  C_12
REMARK                            x       y       z     vdW  Elec       q    Type
REMARK                         _______ _______ _______ _____ _____    ______ ____
ROOT
ATOM      1  N   UNL     1       1.888   7.608  20.644  0.00  0.00    +0.000 N 
ATOM      2  C   UNL     1       2.396   7.004  19.503  0.00  0.00    +0.000 C 
ATOM      3  O   UNL     1       2.210   7.373  18.343  0.00  0.00    +0.000 OA
ATOM      4  H   UNL     1       1.955   7.087  21.510  0.00  0.00    +0.000 HD
ENDROOT
BRANCH   1  11
ATOM      5  C   UNL     1      -2.634  14.004  21.789  0.00  0.00    +0.000 C 
ATOM      6  N   UNL     1      -1.798  12.822  21.826  0.00  0.00    +0.000 N 
ATOM      7  C   UNL     1      -2.141  11.758  22.760  0.00  0.00    +0.000 C 
ATOM      8  C   UNL     1      -0.918  10.918  23.105  0.00  0.00    +0.000 C 
ATOM      9  C   UNL     1      -0.261  10.437  21.840  0.00  0.00    +0.000 A 
ATOM     10  C   UNL     1       0.474   9.243  21.839  0.00  0.00    +0.000 A 
ATOM     11  C   UNL     1       1.112   8.788  20.680  0.00  0.00    +0.000 A 
ATOM     12  C   UNL     1       0.977   9.536  19.502  0.00  0.00    +0.000 A 
ATOM     13  C   UNL     1       0.275  10.749  19.503  0.00  0.00    +0.000 A 
ATOM     14  C   UNL     1      -0.335  11.208  20.675  0.00  0.00    +0.000 A 
ATOM     15  C   UNL     1      -1.047  12.523  20.684  0.00  0.00    +0.000 C 
ATOM     16  O   UNL     1      -0.954  13.276  19.721  0.00  0.00    +0.000 OA
ENDBRANCH   1  11
BRANCH   2  17
ATOM     17  C   UNL     1       3.209   5.746  19.776  0.00  0.00    +0.000 C 
BRANCH  17  18
ATOM     18  C   UNL     1       3.911   5.225  18.541  0.00  0.00    +0.000 A 
ATOM     19  C   UNL     1       3.401   4.094  17.861  0.00  0.00    +0.000 A 
ATOM     20  C   UNL     1       3.994   3.625  16.683  0.00  0.00    +0.000 A 
ATOM     21  C   UNL     1       5.097   4.300  16.199  0.00  0.00    +0.000 A 
ATOM     22  C   UNL     1       5.622   5.389  16.889  0.00  0.00    +0.000 A 
ATOM     23  C   UNL     1       5.070   5.860  18.061  0.00  0.00    +0.000 A 
ATOM     24  N   UNL     1       6.710   5.899  16.199  0.00  0.00    +0.000 N 
ATOM     25  C   UNL     1       6.935   5.196  15.021  0.00  0.00    +0.000 C 
ATOM     26  O   UNL     1       7.802   5.438  14.200  0.00  0.00    +0.000 OA
ATOM     27  C   UNL     1       5.890   4.076  14.947  0.00  0.00    +0.000 C 
ATOM     28  H   UNL     1       7.257   6.701  16.473  0.00  0.00    +0.000 HD
ENDBRANCH  17  18
ENDBRANCH   2  17
TORSDOF 3
ENDMDL
MODEL 8
REMARK VINA RESULT:      -8.1      1.356      2.022
REMARK  Name = 
REMARK  4 active torsions:
REMARK  status: ('A' for Active; 'I' for Inactive)
REMARK    1  A    between atoms: C_1  and  N_2
REMARK    2  A    between atoms: C_7  and  N_8
REMARK    3  A    between atoms: C_9  and  C_11
REMARK    4  A    between atoms: C_11  and  C_12
REMARK                            x       y       z     vdW  Elec       q    Type
REMARK                         _______ _______ _______ _____ _____    ______ ____
ROOT
ATOM      1  N   UNL     1       1.923   7.356  20.877  0.00  0.00    +0.000 N 
ATOM      2  C   UNL     1       2.430   6.834  19.697  0.00  0.00    +0.000 C 
ATOM      3  O   UNL     1       2.255   7.292  18.567  0.00  0.00    +0.000 OA
ATOM      4  H   UNL     1       1.978   6.771  21.702  0.00  0.00    +0.000 HD
ENDROOT
BRANCH   1  11
ATOM      5  C   UNL     1      -2.188  14.116  20.588  0.00  0.00    +0.000 C 
ATOM      6  N   UNL     1      -1.459  12.879  20.395  0.00  0.00    +0.000 N 
ATOM      7  C   UNL     1      -0.469  12.816  19.328  0.00  0.00    +0.000 C 
ATOM      8  C   UNL     1      -0.243  11.379  18.875  0.00  0.00    +0.000 C 
ATOM      9  C   UNL     1       0.081  10.519  20.066  0.00  0.00    +0.000 A 
ATOM     10  C   UNL     1       0.866   9.368  19.908  0.00  0.00    +0.000 A 
ATOM     11  C   UNL     1       1.161   8.540  20.998  0.00  0.00    +0.000 A 
ATOM     12  C   UNL     1       0.680   8.901  22.264  0.00  0.00    +0.000 A 
ATOM     13  C   UNL     1      -0.136  10.029  22.424  0.00  0.00    +0.000 A 
ATOM     14  C   UNL     1      -0.447  10.833  21.322  0.00  0.00    +0.000 A 
ATOM     15  C   UNL     1      -1.353  12.011  21.487  0.00  0.00    +0.000 C 
ATOM     16  O   UNL     1      -1.957  12.177  22.542  0.00  0.00    +0.000 OA
ENDBRANCH   1  11
BRANCH   2  17
ATOM     17  C   UNL     1       3.227   5.549  19.878  0.00  0.00    +0.000 C 
BRANCH  17  18
ATOM     18  C   UNL     1       3.903   5.097  18.603  0.00  0.00    +0.000 A 
ATOM     19  C   UNL     1       3.346   4.043  17.842  0.00  0.00    +0.000 A 
ATOM     20  C   UNL     1       3.917   3.642  16.628  0.00  0.00    +0.000 A 
ATOM     21  C   UNL     1       5.044   4.307  16.190  0.00  0.00    +0.000 A 
ATOM     22  C   UNL     1       5.615   5.318  16.958  0.00  0.00    +0.000 A 
ATOM     23  C   UNL     1       5.086   5.720  18.166  0.00  0.00    +0.000 A 
ATOM     24  N   UNL     1       6.720   5.836  16.303  0.00  0.00    +0.000 N 
ATOM     25  C   UNL     1       6.914   5.217  15.074  0.00  0.00    +0.000 C 
ATOM     26  O   UNL     1       7.788   5.486  14.268  0.00  0.00    +0.000 OA
ATOM     27  C   UNL     1       5.825   4.149  14.920  0.00  0.00    +0.000 C 
ATOM     28  H   UNL     1       7.301   6.592  16.634  0.00  0.00    +0.000 HD
ENDBRANCH  17  18
ENDBRANCH   2  17
TORSDOF 3
ENDMDL
MODEL 9
REMARK VINA RESULT:      -8.1      3.414      8.885
REMARK  Name = 
REMARK  4 active torsions:
REMARK  status: ('A' for Active; 'I' for Inactive)
REMARK    1  A    between atoms: C_1  and  N_2
REMARK    2  A    between atoms: C_7  and  N_8
REMARK    3  A    between atoms: C_9  and  C_11
REMARK    4  A    between atoms: C_11  and  C_12
REMARK                            x       y       z     vdW  Elec       q    Type
REMARK                         _______ _______ _______ _____ _____    ______ ____
ROOT
ATOM      1  N   UNL     1       1.392   8.415  19.513  0.00  0.00    +0.000 N 
ATOM      2  C   UNL     1       1.188   9.723  19.099  0.00  0.00    +0.000 C 
ATOM      3  O   UNL     1       1.887  10.347  18.299  0.00  0.00    +0.000 OA
ATOM      4  H   UNL     1       0.864   8.098  20.318  0.00  0.00    +0.000 HD
ENDROOT
BRANCH   1  11
ATOM      5  C   UNL     1       7.105   4.131  16.098  0.00  0.00    +0.000 C 
ATOM      6  N   UNL     1       6.123   5.089  16.559  0.00  0.00    +0.000 N 
ATOM      7  C   UNL     1       5.339   5.812  15.567  0.00  0.00    +0.000 C 
ATOM      8  C   UNL     1       4.825   7.131  16.130  0.00  0.00    +0.000 C 
ATOM      9  C   UNL     1       4.098   6.880  17.423  0.00  0.00    +0.000 A 
ATOM     10  C   UNL     1       3.078   7.749  17.836  0.00  0.00    +0.000 A 
ATOM     11  C   UNL     1       2.404   7.547  19.046  0.00  0.00    +0.000 A 
ATOM     12  C   UNL     1       2.747   6.437  19.829  0.00  0.00    +0.000 A 
ATOM     13  C   UNL     1       3.791   5.585  19.441  0.00  0.00    +0.000 A 
ATOM     14  C   UNL     1       4.477   5.812  18.243  0.00  0.00    +0.000 A 
ATOM     15  C   UNL     1       5.617   4.928  17.854  0.00  0.00    +0.000 C 
ATOM     16  O   UNL     1       6.062   4.113  18.655  0.00  0.00    +0.000 OA
ENDBRANCH   1  11
BRANCH   2  17
ATOM     17  C   UNL     1       0.007  10.411  19.770  0.00  0.00    +0.000 C 
BRANCH  17  18
ATOM     18  C   UNL     1      -1.162  10.611  18.831  0.00  0.00    +0.000 A 
ATOM     19  C   UNL     1      -2.207  11.497  19.181  0.00  0.00    +0.000 A 
ATOM     20  C   UNL     1      -3.272  11.747  18.307  0.00  0.00    +0.000 A 
ATOM     21  C   UNL     1      -3.274  11.103  17.086  0.00  0.00    +0.000 A 
ATOM     22  C   UNL     1      -2.266  10.201  16.757  0.00  0.00    +0.000 A 
ATOM     23  C   UNL     1      -1.216   9.921  17.606  0.00  0.00    +0.000 A 
ATOM     24  N   UNL     1      -2.482   9.701  15.484  0.00  0.00    +0.000 N 
ATOM     25  C   UNL     1      -3.616  10.262  14.907  0.00  0.00    +0.000 C 
ATOM     26  O   UNL     1      -4.034  10.034  13.785  0.00  0.00    +0.000 OA
ATOM     27  C   UNL     1      -4.229  11.219  15.936  0.00  0.00    +0.000 C 
ATOM     28  H   UNL     1      -1.887   9.046  14.999  0.00  0.00    +0.000 HD
ENDBRANCH  17  18
ENDBRANCH   2  17
TORSDOF 3
ENDMDL
