MODEL 1
REMARK VINA RESULT:      -9.0      0.000      0.000
REMARK  Name = 
REMARK  5 active torsions:
REMARK  status: ('A' for Active; 'I' for Inactive)
REMARK    1  A    between atoms: C_2  and  C_17
REMARK    2  A    between atoms: N_3  and  C_4
REMARK    3  A    between atoms: C_4  and  C_5
REMARK    4  A    between atoms: C_5  and  C_6
REMARK    5  A    between atoms: N_9  and  C_10
REMARK                            x       y       z     vdW  Elec       q    Type
REMARK                         _______ _______ _______ _____ _____    ______ ____
ROOT
ATOM      1  O   UNL     1       3.116   6.636  17.924  0.00  0.00    +0.000 OA
ATOM      2  C   UNL     1       2.909   6.673  19.135  0.00  0.00    +0.000 C 
ATOM      3  N   UNL     1       3.492   5.757  19.982  0.00  0.00    +0.000 N 
ATOM      4  H   UNL     1       3.341   5.771  20.980  0.00  0.00    +0.000 HD
ENDROOT
BRANCH   2   5
ATOM      5  C   UNL     1       1.998   7.728  19.672  0.00  0.00    +0.000 A 
ATOM      6  C   UNL     1       1.679   8.747  18.773  0.00  0.00    +0.000 A 
ATOM      7  C   UNL     1       0.911   9.838  19.163  0.00  0.00    +0.000 A 
ATOM      8  F   UNL     1       0.667  10.787  18.245  0.00  0.00    +0.000 F 
ATOM      9  C   UNL     1       0.414   9.973  20.446  0.00  0.00    +0.000 A 
ATOM     10  N   UNL     1      -0.295  11.074  20.772  0.00  0.00    +0.000 NA
ATOM     11  C   UNL     1      -0.769  11.191  22.024  0.00  0.00    +0.000 A 
ATOM     12  C   UNL     1      -0.592  10.225  22.992  0.00  0.00    +0.000 A 
ATOM     13  C   UNL     1       0.140   9.082  22.660  0.00  0.00    +0.000 A 
ATOM     14  C   UNL     1       0.684   8.929  21.369  0.00  0.00    +0.000 A 
ATOM     15  C   UNL     1       1.479   7.810  20.975  0.00  0.00    +0.000 A 
ENDBRANCH   2   5
BRANCH   3  16
ATOM     16  C   UNL     1       4.322   4.695  19.413  0.00  0.00    +0.000 C 
BRANCH  16  17
ATOM     17  C   UNL     1       5.821   5.031  19.362  0.00  0.00    +0.000 C 
BRANCH  17  18
ATOM     18  C   UNL     1       6.286   5.303  17.974  0.00  0.00    +0.000 A 
ATOM     19  C   UNL     1       7.157   6.318  17.538  0.00  0.00    +0.000 A 
ATOM     20  N   UNL     1       7.428   6.237  16.236  0.00  0.00    +0.000 NA
ATOM     21  N   UNL     1       6.695   5.182  15.792  0.00  0.00    +0.000 N 
ATOM     22  C   UNL     1       5.982   4.609  16.824  0.00  0.00    +0.000 A 
BRANCH  21  23
ATOM     23  C   UNL     1       6.742   4.772  14.431  0.00  0.00    +0.000 A 
ATOM     24  C   UNL     1       7.679   5.356  13.566  0.00  0.00    +0.000 A 
ATOM     25  C   UNL     1       7.752   4.953  12.231  0.00  0.00    +0.000 A 
ATOM     26  C   UNL     1       6.889   3.968  11.751  0.00  0.00    +0.000 A 
ATOM     27  C   UNL     1       5.951   3.386  12.603  0.00  0.00    +0.000 A 
ATOM     28  C   UNL     1       5.876   3.782  13.941  0.00  0.00    +0.000 A 
ENDBRANCH  21  23
ENDBRANCH  17  18
ENDBRANCH  16  17
ENDBRANCH   3  16
TORSDOF 5
ENDMDL
MODEL 2
REMARK VINA RESULT:      -8.5      6.212      8.533
REMARK  Name = 
REMARK  5 active torsions:
REMARK  status: ('A' for Active; 'I' for Inactive)
REMARK    1  A    between atoms: C_2  and  C_17
REMARK    2  A    between atoms: N_3  and  C_4
REMARK    3  A    between atoms: C_4  and  C_5
REMARK    4  A    between atoms: C_5  and  C_6
REMARK    5  A    between atoms: N_9  and  C_10
REMARK                            x       y       z     vdW  Elec       q    Type
REMARK                         _______ _______ _______ _____ _____    ______ ____
ROOT
ATOM      1  O   UNL     1       9.065  10.152  19.933  0.00  0.00    +0.000 OA
ATOM      2  C   UNL     1       9.018  10.414  18.734  0.00  0.00    +0.000 C 
ATOM      3  N   UNL     1       8.590   9.478  17.820  0.00  0.00    +0.000 N 
ATOM      4  H   UNL     1       8.537   9.673  16.830  0.00  0.00    +0.000 HD
ENDROOT
BRANCH   2   5
ATOM      5  C   UNL     1       9.449  11.771  18.283  0.00  0.00    +0.000 A 
ATOM      6  C   UNL     1      10.625  11.798  17.531  0.00  0.00    +0.000 A 
ATOM      7  C   UNL     1      11.189  12.998  17.117  0.00  0.00    +0.000 A 
ATOM      8  F   UNL     1      12.333  12.940  16.416  0.00  0.00    +0.000 F 
ATOM      9  C   UNL     1      10.623  14.225  17.414  0.00  0.00    +0.000 A 
ATOM     10  N   UNL     1      11.239  15.356  17.016  0.00  0.00    +0.000 NA
ATOM     11  C   UNL     1      10.676  16.540  17.314  0.00  0.00    +0.000 A 
ATOM     12  C   UNL     1       9.478  16.658  17.986  0.00  0.00    +0.000 A 
ATOM     13  C   UNL     1       8.835  15.489  18.402  0.00  0.00    +0.000 A 
ATOM     14  C   UNL     1       9.402  14.226  18.139  0.00  0.00    +0.000 A 
ATOM     15  C   UNL     1       8.822  12.995  18.572  0.00  0.00    +0.000 A 
ENDBRANCH   2   5
BRANCH   3  16
ATOM     16  C   UNL     1       8.242   8.136  18.289  0.00  0.00    +0.000 C 
BRANCH  16  17
ATOM     17  C   UNL     1       7.269   7.384  17.368  0.00  0.00    +0.000 C 
BRANCH  17  18
ATOM     18  C   UNL     1       6.586   6.264  18.071  0.00  0.00    +0.000 A 
ATOM     19  C   UNL     1       7.007   5.586  19.230  0.00  0.00    +0.000 A 
ATOM     20  N   UNL     1       6.124   4.678  19.644  0.00  0.00    +0.000 NA
ATOM     21  N   UNL     1       5.122   4.722  18.725  0.00  0.00    +0.000 N 
ATOM     22  C   UNL     1       5.387   5.665  17.754  0.00  0.00    +0.000 A 
BRANCH  21  23
ATOM     23  C   UNL     1       3.974   3.893  18.845  0.00  0.00    +0.000 A 
ATOM     24  C   UNL     1       3.676   2.974  17.829  0.00  0.00    +0.000 A 
ATOM     25  C   UNL     1       2.562   2.139  17.939  0.00  0.00    +0.000 A 
ATOM     26  C   UNL     1       1.738   2.218  19.060  0.00  0.00    +0.000 A 
ATOM     27  C   UNL     1       2.023   3.133  20.073  0.00  0.00    +0.000 A 
ATOM     28  C   UNL     1       3.139   3.969  19.971  0.00  0.00    +0.000 A 
ENDBRANCH  21  23
ENDBRANCH  17  18
ENDBRANCH  16  17
ENDBRANCH   3  16
TORSDOF 5
ENDMDL
MODEL 3
REMARK VINA RESULT:      -8.4      1.168      2.045
REMARK  Name = 
REMARK  5 active torsions:
REMARK  status: ('A' for Active; 'I' for Inactive)
REMARK    1  A    between atoms: C_2  and  C_17
REMARK    2  A    between atoms: N_3  and  C_4
REMARK    3  A    between atoms: C_4  and  C_5
REMARK    4  A    between atoms: C_5  and  C_6
REMARK    5  A    between atoms: N_9  and  C_10
REMARK                            x       y       z     vdW  Elec       q    Type
REMARK                         _______ _______ _______ _____ _____    ______ ____
ROOT
ATOM      1  O   UNL     1       2.725   6.294  17.844  0.00  0.00    +0.000 OA
ATOM      2  C   UNL     1       2.814   6.652  19.015  0.00  0.00    +0.000 C 
ATOM      3  N   UNL     1       3.626   5.980  19.902  0.00  0.00    +0.000 N 
ATOM      4  H   UNL     1       3.720   6.259  20.868  0.00  0.00    +0.000 HD
ENDROOT
BRANCH   2   5
ATOM      5  C   UNL     1       2.009   7.826  19.467  0.00  0.00    +0.000 A 
ATOM      6  C   UNL     1       1.677   7.829  20.823  0.00  0.00    +0.000 A 
ATOM      7  C   UNL     1       0.861   8.815  21.363  0.00  0.00    +0.000 A 
ATOM      8  F   UNL     1       0.571   8.735  22.672  0.00  0.00    +0.000 F 
ATOM      9  C   UNL     1       0.340   9.846  20.602  0.00  0.00    +0.000 A 
ATOM     10  N   UNL     1      -0.476  10.752  21.178  0.00  0.00    +0.000 NA
ATOM     11  C   UNL     1      -0.975  11.747  20.424  0.00  0.00    +0.000 A 
ATOM     12  C   UNL     1      -0.670  11.906  19.089  0.00  0.00    +0.000 A 
ATOM     13  C   UNL     1       0.175  10.971  18.486  0.00  0.00    +0.000 A 
ATOM     14  C   UNL     1       0.698   9.894  19.230  0.00  0.00    +0.000 A 
ATOM     15  C   UNL     1       1.531   8.879  18.668  0.00  0.00    +0.000 A 
ENDBRANCH   2   5
BRANCH   3  16
ATOM     16  C   UNL     1       4.345   4.792  19.443  0.00  0.00    +0.000 C 
BRANCH  16  17
ATOM     17  C   UNL     1       5.867   4.979  19.348  0.00  0.00    +0.000 C 
BRANCH  17  18
ATOM     18  C   UNL     1       6.307   5.292  17.961  0.00  0.00    +0.000 A 
ATOM     19  C   UNL     1       7.097   6.373  17.528  0.00  0.00    +0.000 A 
ATOM     20  N   UNL     1       7.370   6.320  16.225  0.00  0.00    +0.000 NA
ATOM     21  N   UNL     1       6.720   5.213  15.777  0.00  0.00    +0.000 N 
ATOM     22  C   UNL     1       6.056   4.582  16.807  0.00  0.00    +0.000 A 
BRANCH  21  23
ATOM     23  C   UNL     1       6.796   4.815  14.414  0.00  0.00    +0.000 A 
ATOM     24  C   UNL     1       5.897   3.855  13.925  0.00  0.00    +0.000 A 
ATOM     25  C   UNL     1       5.946   3.464  12.584  0.00  0.00    +0.000 A 
ATOM     26  C   UNL     1       6.892   4.025  11.727  0.00  0.00    +0.000 A 
ATOM     27  C   UNL     1       7.792   4.976  12.207  0.00  0.00    +0.000 A 
ATOM     28  C   UNL     1       7.746   5.374  13.546  0.00  0.00    +0.000 A 
ENDBRANCH  21  23
ENDBRANCH  17  18
ENDBRANCH  16  17
ENDBRANCH   3  16
TORSDOF 5
ENDMDL
MODEL 4
REMARK VINA RESULT:      -8.4      6.614      8.824
REMARK  Name = 
REMARK  5 active torsions:
REMARK  status: ('A' for Active; 'I' for Inactive)
REMARK    1  A    between atoms: C_2  and  C_17
REMARK    2  A    between atoms: N_3  and  C_4
REMARK    3  A    between atoms: C_4  and  C_5
REMARK    4  A    between atoms: C_5  and  C_6
REMARK    5  A    between atoms: N_9  and  C_10
REMARK                            x       y       z     vdW  Elec       q    Type
REMARK                         _______ _______ _______ _____ _____    ______ ____
ROOT
ATOM      1  O   UNL     1       9.399  10.445  20.363  0.00  0.00    +0.000 OA
ATOM      2  C   UNL     1       9.481  10.802  19.191  0.00  0.00    +0.000 C 
ATOM      3  N   UNL     1       9.045   9.987  18.170  0.00  0.00    +0.000 N 
ATOM      4  H   UNL     1       9.097  10.261  17.199  0.00  0.00    +0.000 HD
ENDROOT
BRANCH   2   5
ATOM      5  C   UNL     1      10.078  12.138  18.890  0.00  0.00    +0.000 A 
ATOM      6  C   UNL     1      10.475  12.323  17.565  0.00  0.00    +0.000 A 
ATOM      7  C   UNL     1      11.123  13.485  17.163  0.00  0.00    +0.000 A 
ATOM      8  F   UNL     1      11.492  13.577  15.875  0.00  0.00    +0.000 F 
ATOM      9  C   UNL     1      11.402  14.519  18.038  0.00  0.00    +0.000 A 
ATOM     10  N   UNL     1      12.066  15.606  17.594  0.00  0.00    +0.000 NA
ATOM     11  C   UNL     1      12.331  16.601  18.457  0.00  0.00    +0.000 A 
ATOM     12  C   UNL     1      11.931  16.581  19.776  0.00  0.00    +0.000 A 
ATOM     13  C   UNL     1      11.242  15.459  20.243  0.00  0.00    +0.000 A 
ATOM     14  C   UNL     1      10.969  14.377  19.382  0.00  0.00    +0.000 A 
ATOM     15  C   UNL     1      10.308  13.182  19.801  0.00  0.00    +0.000 A 
ENDBRANCH   2   5
BRANCH   3  16
ATOM     16  C   UNL     1       8.532   8.656  18.496  0.00  0.00    +0.000 C 
BRANCH  16  17
ATOM     17  C   UNL     1       7.563   8.085  17.448  0.00  0.00    +0.000 C 
BRANCH  17  18
ATOM     18  C   UNL     1       7.038   6.749  17.841  0.00  0.00    +0.000 A 
ATOM     19  C   UNL     1       7.680   5.759  18.606  0.00  0.00    +0.000 A 
ATOM     20  N   UNL     1       6.901   4.703  18.839  0.00  0.00    +0.000 NA
ATOM     21  N   UNL     1       5.740   4.976  18.185  0.00  0.00    +0.000 N 
ATOM     22  C   UNL     1       5.804   6.204  17.560  0.00  0.00    +0.000 A 
BRANCH  21  23
ATOM     23  C   UNL     1       4.644   4.072  18.222  0.00  0.00    +0.000 A 
ATOM     24  C   UNL     1       4.511   3.191  19.305  0.00  0.00    +0.000 A 
ATOM     25  C   UNL     1       3.430   2.308  19.366  0.00  0.00    +0.000 A 
ATOM     26  C   UNL     1       2.479   2.297  18.347  0.00  0.00    +0.000 A 
ATOM     27  C   UNL     1       2.606   3.166  17.264  0.00  0.00    +0.000 A 
ATOM     28  C   UNL     1       3.683   4.054  17.199  0.00  0.00    +0.000 A 
ENDBRANCH  21  23
ENDBRANCH  17  18
ENDBRANCH  16  17
ENDBRANCH   3  16
TORSDOF 5
ENDMDL
MODEL 5
REMARK VINA RESULT:      -8.4      2.999      4.150
REMARK  Name = 
REMARK  5 active torsions:
REMARK  status: ('A' for Active; 'I' for Inactive)
REMARK    1  A    between atoms: C_2  and  C_17
REMARK    2  A    between atoms: N_3  and  C_4
REMARK    3  A    between atoms: C_4  and  C_5
REMARK    4  A    between atoms: C_5  and  C_6
REMARK    5  A    between atoms: N_9  and  C_10
REMARK                            x       y       z     vdW  Elec       q    Type
REMARK                         _______ _______ _______ _____ _____    ______ ____
ROOT
ATOM      1  O   UNL     1       2.364   4.457  21.547  0.00  0.00    +0.000 OA
ATOM      2  C   UNL     1       1.786   4.851  20.538  0.00  0.00    +0.000 C 
ATOM      3  N   UNL     1       1.260   3.960  19.629  0.00  0.00    +0.000 N 
ATOM      4  H   UNL     1       0.776   4.261  18.795  0.00  0.00    +0.000 HD
ENDROOT
BRANCH   2   5
ATOM      5  C   UNL     1       1.675   6.323  20.306  0.00  0.00    +0.000 A 
ATOM      6  C   UNL     1       1.015   7.032  21.311  0.00  0.00    +0.000 A 
ATOM      7  C   UNL     1       0.765   8.393  21.188  0.00  0.00    +0.000 A 
ATOM      8  F   UNL     1       0.104   8.997  22.189  0.00  0.00    +0.000 F 
ATOM      9  C   UNL     1       1.157   9.122  20.080  0.00  0.00    +0.000 A 
ATOM     10  N   UNL     1       0.852  10.433  20.004  0.00  0.00    +0.000 NA
ATOM     11  C   UNL     1       1.240  11.126  18.920  0.00  0.00    +0.000 A 
ATOM     12  C   UNL     1       1.963  10.569  17.887  0.00  0.00    +0.000 A 
ATOM     13  C   UNL     1       2.284   9.211  17.960  0.00  0.00    +0.000 A 
ATOM     14  C   UNL     1       1.871   8.436  19.063  0.00  0.00    +0.000 A 
ATOM     15  C   UNL     1       2.125   7.035  19.182  0.00  0.00    +0.000 A 
ENDBRANCH   2   5
BRANCH   3  16
ATOM     16  C   UNL     1       1.449   2.527  19.851  0.00  0.00    +0.000 C 
BRANCH  16  17
ATOM     17  C   UNL     1       2.618   1.919  19.061  0.00  0.00    +0.000 C 
BRANCH  17  18
ATOM     18  C   UNL     1       3.441   2.961  18.389  0.00  0.00    +0.000 A 
ATOM     19  C   UNL     1       3.270   3.502  17.102  0.00  0.00    +0.000 A 
ATOM     20  N   UNL     1       4.140   4.475  16.833  0.00  0.00    +0.000 NA
ATOM     21  N   UNL     1       4.927   4.554  17.938  0.00  0.00    +0.000 N 
ATOM     22  C   UNL     1       4.533   3.636  18.889  0.00  0.00    +0.000 A 
BRANCH  21  23
ATOM     23  C   UNL     1       5.976   5.509  18.030  0.00  0.00    +0.000 A 
ATOM     24  C   UNL     1       6.984   5.337  18.990  0.00  0.00    +0.000 A 
ATOM     25  C   UNL     1       8.032   6.257  19.082  0.00  0.00    +0.000 A 
ATOM     26  C   UNL     1       8.078   7.352  18.221  0.00  0.00    +0.000 A 
ATOM     27  C   UNL     1       7.078   7.532  17.267  0.00  0.00    +0.000 A 
ATOM     28  C   UNL     1       6.029   6.614  17.167  0.00  0.00    +0.000 A 
ENDBRANCH  21  23
ENDBRANCH  17  18
ENDBRANCH  16  17
ENDBRANCH   3  16
TORSDOF 5
ENDMDL
MODEL 6
REMARK VINA RESULT:      -8.3      2.860      3.751
REMARK  Name = 
REMARK  5 active torsions:
REMARK  status: ('A' for Active; 'I' for Inactive)
REMARK    1  A    between atoms: C_2  and  C_17
REMARK    2  A    between atoms: N_3  and  C_4
REMARK    3  A    between atoms: C_4  and  C_5
REMARK    4  A    between atoms: C_5  and  C_6
REMARK    5  A    between atoms: N_9  and  C_10
REMARK                            x       y       z     vdW  Elec       q    Type
REMARK                         _______ _______ _______ _____ _____    ______ ____
ROOT
ATOM      1  O   UNL     1       2.463   4.644  21.534  0.00  0.00    +0.000 OA
ATOM      2  C   UNL     1       1.874   4.940  20.498  0.00  0.00    +0.000 C 
ATOM      3  N   UNL     1       1.420   3.966  19.637  0.00  0.00    +0.000 N 
ATOM      4  H   UNL     1       0.928   4.185  18.783  0.00  0.00    +0.000 HD
ENDROOT
BRANCH   2   5
ATOM      5  C   UNL     1       1.668   6.385  20.181  0.00  0.00    +0.000 A 
ATOM      6  C   UNL     1       2.136   6.788  18.929  0.00  0.00    +0.000 A 
ATOM      7  C   UNL     1       2.089   8.120  18.537  0.00  0.00    +0.000 A 
ATOM      8  F   UNL     1       2.579   8.430  17.326  0.00  0.00    +0.000 F 
ATOM      9  C   UNL     1       1.573   9.115  19.349  0.00  0.00    +0.000 A 
ATOM     10  N   UNL     1       1.589  10.395  18.925  0.00  0.00    +0.000 NA
ATOM     11  C   UNL     1       1.085  11.349  19.727  0.00  0.00    +0.000 A 
ATOM     12  C   UNL     1       0.524  11.082  20.957  0.00  0.00    +0.000 A 
ATOM     13  C   UNL     1       0.504   9.757  21.402  0.00  0.00    +0.000 A 
ATOM     14  C   UNL     1       1.048   8.727  20.609  0.00  0.00    +0.000 A 
ATOM     15  C   UNL     1       1.101   7.359  21.020  0.00  0.00    +0.000 A 
ENDBRANCH   2   5
BRANCH   3  16
ATOM     16  C   UNL     1       1.701   2.563  19.943  0.00  0.00    +0.000 C 
BRANCH  16  17
ATOM     17  C   UNL     1       2.832   1.953  19.100  0.00  0.00    +0.000 C 
BRANCH  17  18
ATOM     18  C   UNL     1       3.637   2.994  18.406  0.00  0.00    +0.000 A 
ATOM     19  C   UNL     1       3.484   3.473  17.092  0.00  0.00    +0.000 A 
ATOM     20  N   UNL     1       4.327   4.464  16.804  0.00  0.00    +0.000 NA
ATOM     21  N   UNL     1       5.079   4.618  17.926  0.00  0.00    +0.000 N 
ATOM     22  C   UNL     1       4.691   3.729  18.905  0.00  0.00    +0.000 A 
BRANCH  21  23
ATOM     23  C   UNL     1       6.091   5.614  18.003  0.00  0.00    +0.000 A 
ATOM     24  C   UNL     1       7.121   5.480  18.946  0.00  0.00    +0.000 A 
ATOM     25  C   UNL     1       8.133   6.439  19.024  0.00  0.00    +0.000 A 
ATOM     26  C   UNL     1       8.122   7.538  18.166  0.00  0.00    +0.000 A 
ATOM     27  C   UNL     1       7.099   7.681  17.229  0.00  0.00    +0.000 A 
ATOM     28  C   UNL     1       6.085   6.723  17.143  0.00  0.00    +0.000 A 
ENDBRANCH  21  23
ENDBRANCH  17  18
ENDBRANCH  16  17
ENDBRANCH   3  16
TORSDOF 5
ENDMDL
MODEL 7
REMARK VINA RESULT:      -8.3      0.583      1.097
REMARK  Name = 
REMARK  5 active torsions:
REMARK  status: ('A' for Active; 'I' for Inactive)
REMARK    1  A    between atoms: C_2  and  C_17
REMARK    2  A    between atoms: N_3  and  C_4
REMARK    3  A    between atoms: C_4  and  C_5
REMARK    4  A    between atoms: C_5  and  C_6
REMARK    5  A    between atoms: N_9  and  C_10
REMARK                            x       y       z     vdW  Elec       q    Type
REMARK                         _______ _______ _______ _____ _____    ______ ____
ROOT
ATOM      1  O   UNL     1       3.370   6.493  17.841  0.00  0.00    +0.000 OA
ATOM      2  C   UNL     1       2.829   6.380  18.938  0.00  0.00    +0.000 C 
ATOM      3  N   UNL     1       2.919   5.209  19.656  0.00  0.00    +0.000 N 
ATOM      4  H   UNL     1       2.487   5.095  20.562  0.00  0.00    +0.000 HD
ENDROOT
BRANCH   2   5
ATOM      5  C   UNL     1       2.055   7.540  19.475  0.00  0.00    +0.000 A 
ATOM      6  C   UNL     1       1.965   8.638  18.618  0.00  0.00    +0.000 A 
ATOM      7  C   UNL     1       1.349   9.817  19.020  0.00  0.00    +0.000 A 
ATOM      8  F   UNL     1       1.323  10.835  18.145  0.00  0.00    +0.000 F 
ATOM      9  C   UNL     1       0.787   9.969  20.275  0.00  0.00    +0.000 A 
ATOM     10  N   UNL     1       0.235  11.152  20.618  0.00  0.00    +0.000 NA
ATOM     11  C   UNL     1      -0.306  11.283  21.841  0.00  0.00    +0.000 A 
ATOM     12  C   UNL     1      -0.352  10.257  22.760  0.00  0.00    +0.000 A 
ATOM     13  C   UNL     1       0.217   9.029  22.411  0.00  0.00    +0.000 A 
ATOM     14  C   UNL     1       0.823   8.853  21.150  0.00  0.00    +0.000 A 
ATOM     15  C   UNL     1       1.461   7.642  20.744  0.00  0.00    +0.000 A 
ENDBRANCH   2   5
BRANCH   3  16
ATOM     16  C   UNL     1       3.624   4.070  19.068  0.00  0.00    +0.000 C 
BRANCH  16  17
ATOM     17  C   UNL     1       5.146   4.097  19.283  0.00  0.00    +0.000 C 
BRANCH  17  18
ATOM     18  C   UNL     1       5.880   4.480  18.047  0.00  0.00    +0.000 A 
ATOM     19  C   UNL     1       7.045   5.261  17.940  0.00  0.00    +0.000 A 
ATOM     20  N   UNL     1       7.488   5.354  16.686  0.00  0.00    +0.000 NA
ATOM     21  N   UNL     1       6.583   4.661  15.944  0.00  0.00    +0.000 N 
ATOM     22  C   UNL     1       5.591   4.135  16.745  0.00  0.00    +0.000 A 
BRANCH  21  23
ATOM     23  C   UNL     1       6.736   4.521  14.538  0.00  0.00    +0.000 A 
ATOM     24  C   UNL     1       5.972   3.565  13.853  0.00  0.00    +0.000 A 
ATOM     25  C   UNL     1       6.097   3.425  12.468  0.00  0.00    +0.000 A 
ATOM     26  C   UNL     1       6.984   4.235  11.762  0.00  0.00    +0.000 A 
ATOM     27  C   UNL     1       7.750   5.185  12.436  0.00  0.00    +0.000 A 
ATOM     28  C   UNL     1       7.628   5.332  13.820  0.00  0.00    +0.000 A 
ENDBRANCH  21  23
ENDBRANCH  17  18
ENDBRANCH  16  17
ENDBRANCH   3  16
TORSDOF 5
ENDMDL
MODEL 8
REMARK VINA RESULT:      -8.2      4.463      8.123
REMARK  Name = 
REMARK  5 active torsions:
REMARK  status: ('A' for Active; 'I' for Inactive)
REMARK    1  A    between atoms: C_2  and  C_17
REMARK    2  A    between atoms: N_3  and  C_4
REMARK    3  A    between atoms: C_4  and  C_5
REMARK    4  A    between atoms: C_5  and  C_6
REMARK    5  A    between atoms: N_9  and  C_10
REMARK                            x       y       z     vdW  Elec       q    Type
REMARK                         _______ _______ _______ _____ _____    ______ ____
ROOT
ATOM      1  O   UNL     1       8.541   7.234  18.924  0.00  0.00    +0.000 OA
ATOM      2  C   UNL     1       8.132   8.100  18.154  0.00  0.00    +0.000 C 
ATOM      3  N   UNL     1       7.339   7.774  17.077  0.00  0.00    +0.000 N 
ATOM      4  H   UNL     1       6.986   8.469  16.435  0.00  0.00    +0.000 HD
ENDROOT
BRANCH   2   5
ATOM      5  C   UNL     1       8.525   9.519  18.403  0.00  0.00    +0.000 A 
ATOM      6  C   UNL     1       7.933  10.454  17.552  0.00  0.00    +0.000 A 
ATOM      7  C   UNL     1       8.271  11.800  17.613  0.00  0.00    +0.000 A 
ATOM      8  F   UNL     1       7.673  12.633  16.746  0.00  0.00    +0.000 F 
ATOM      9  C   UNL     1       9.197  12.292  18.516  0.00  0.00    +0.000 A 
ATOM     10  N   UNL     1       9.510  13.604  18.501  0.00  0.00    +0.000 NA
ATOM     11  C   UNL     1      10.413  14.065  19.383  0.00  0.00    +0.000 A 
ATOM     12  C   UNL     1      11.020  13.266  20.328  0.00  0.00    +0.000 A 
ATOM     13  C   UNL     1      10.700  11.906  20.350  0.00  0.00    +0.000 A 
ATOM     14  C   UNL     1       9.781  11.371  19.424  0.00  0.00    +0.000 A 
ATOM     15  C   UNL     1       9.442   9.985  19.360  0.00  0.00    +0.000 A 
ENDBRANCH   2   5
BRANCH   3  16
ATOM     16  C   UNL     1       7.032   6.366  16.823  0.00  0.00    +0.000 C 
BRANCH  16  17
ATOM     17  C   UNL     1       5.679   6.135  16.133  0.00  0.00    +0.000 C 
BRANCH  17  18
ATOM     18  C   UNL     1       4.538   6.272  17.078  0.00  0.00    +0.000 A 
ATOM     19  C   UNL     1       3.882   5.254  17.794  0.00  0.00    +0.000 A 
ATOM     20  N   UNL     1       2.943   5.726  18.614  0.00  0.00    +0.000 NA
ATOM     21  N   UNL     1       2.945   7.070  18.409  0.00  0.00    +0.000 N 
ATOM     22  C   UNL     1       3.892   7.423  17.471  0.00  0.00    +0.000 A 
BRANCH  21  23
ATOM     23  C   UNL     1       2.073   7.928  19.135  0.00  0.00    +0.000 A 
ATOM     24  C   UNL     1       1.535   9.058  18.503  0.00  0.00    +0.000 A 
ATOM     25  C   UNL     1       0.662   9.902  19.195  0.00  0.00    +0.000 A 
ATOM     26  C   UNL     1       0.327   9.625  20.520  0.00  0.00    +0.000 A 
ATOM     27  C   UNL     1       0.862   8.506  21.156  0.00  0.00    +0.000 A 
ATOM     28  C   UNL     1       1.732   7.656  20.468  0.00  0.00    +0.000 A 
ENDBRANCH  21  23
ENDBRANCH  17  18
ENDBRANCH  16  17
ENDBRANCH   3  16
TORSDOF 5
ENDMDL
MODEL 9
REMARK VINA RESULT:      -8.2      1.031      1.092
REMARK  Name = 
REMARK  5 active torsions:
REMARK  status: ('A' for Active; 'I' for Inactive)
REMARK    1  A    between atoms: C_2  and  C_17
REMARK    2  A    between atoms: N_3  and  C_4
REMARK    3  A    between atoms: C_4  and  C_5
REMARK    4  A    between atoms: C_5  and  C_6
REMARK    5  A    between atoms: N_9  and  C_10
REMARK                            x       y       z     vdW  Elec       q    Type
REMARK                         _______ _______ _______ _____ _____    ______ ____
ROOT
ATOM      1  O   UNL     1       1.724   5.301  20.743  0.00  0.00    +0.000 OA
ATOM      2  C   UNL     1       2.202   6.187  20.039  0.00  0.00    +0.000 C 
ATOM      3  N   UNL     1       3.246   5.925  19.181  0.00  0.00    +0.000 N 
ATOM      4  H   UNL     1       3.651   6.636  18.589  0.00  0.00    +0.000 HD
ENDROOT
BRANCH   2   5
ATOM      5  C   UNL     1       1.634   7.565  20.142  0.00  0.00    +0.000 A 
ATOM      6  C   UNL     1       1.802   8.360  19.007  0.00  0.00    +0.000 A 
ATOM      7  C   UNL     1       1.400   9.690  18.992  0.00  0.00    +0.000 A 
ATOM      8  F   UNL     1       1.616  10.393  17.869  0.00  0.00    +0.000 F 
ATOM      9  C   UNL     1       0.808  10.298  20.085  0.00  0.00    +0.000 A 
ATOM     10  N   UNL     1       0.474  11.603  20.020  0.00  0.00    +0.000 NA
ATOM     11  C   UNL     1      -0.099  12.178  21.091  0.00  0.00    +0.000 A 
ATOM     12  C   UNL     1      -0.390  11.492  22.251  0.00  0.00    +0.000 A 
ATOM     13  C   UNL     1      -0.046  10.140  22.324  0.00  0.00    +0.000 A 
ATOM     14  C   UNL     1       0.584   9.501  21.238  0.00  0.00    +0.000 A 
ATOM     15  C   UNL     1       1.002   8.135  21.260  0.00  0.00    +0.000 A 
ENDBRANCH   2   5
BRANCH   3  16
ATOM     16  C   UNL     1       3.824   4.581  19.158  0.00  0.00    +0.000 C 
BRANCH  16  17
ATOM     17  C   UNL     1       5.344   4.550  19.377  0.00  0.00    +0.000 C 
BRANCH  17  18
ATOM     18  C   UNL     1       6.096   4.603  18.094  0.00  0.00    +0.000 A 
ATOM     19  C   UNL     1       7.480   4.774  17.909  0.00  0.00    +0.000 A 
ATOM     20  N   UNL     1       7.841   4.702  16.628  0.00  0.00    +0.000 NA
ATOM     21  N   UNL     1       6.677   4.523  15.948  0.00  0.00    +0.000 N 
ATOM     22  C   UNL     1       5.604   4.476  16.813  0.00  0.00    +0.000 A 
BRANCH  21  23
ATOM     23  C   UNL     1       6.664   4.381  14.534  0.00  0.00    +0.000 A 
ATOM     24  C   UNL     1       7.628   5.049  13.764  0.00  0.00    +0.000 A 
ATOM     25  C   UNL     1       7.641   4.907  12.374  0.00  0.00    +0.000 A 
ATOM     26  C   UNL     1       6.693   4.102  11.746  0.00  0.00    +0.000 A 
ATOM     27  C   UNL     1       5.728   3.438  12.503  0.00  0.00    +0.000 A 
ATOM     28  C   UNL     1       5.712   3.573  13.894  0.00  0.00    +0.000 A 
ENDBRANCH  21  23
ENDBRANCH  17  18
ENDBRANCH  16  17
ENDBRANCH   3  16
TORSDOF 5
ENDMDL
