MODEL 1
REMARK VINA RESULT:      -7.5      0.000      0.000
REMARK  Name = 
REMARK  4 active torsions:
REMARK  status: ('A' for Active; 'I' for Inactive)
REMARK    1  A    between atoms: C_1  and  N_2
REMARK    2  A    between atoms: C_4  and  C_5
REMARK    3  A    between atoms: C_5  and  C_6
REMARK    4  A    between atoms: C_14  and  C_15
REMARK                            x       y       z     vdW  Elec       q    Type
REMARK                         _______ _______ _______ _____ _____    ______ ____
ROOT
ATOM      1  C   UNL     1       2.258   5.327  17.881  0.00  0.00    +0.000 C 
ATOM      2  O   UNL     1       1.101   5.468  17.477  0.00  0.00    +0.000 OA
ATOM      3  N   UNL     1       2.691   4.086  18.315  0.00  0.00    +0.000 N 
ATOM      4  C   UNL     1       1.714   3.040  18.596  0.00  0.00    +0.000 C 
ATOM      5  C   UNL     1       2.408   1.744  18.228  0.00  0.00    +0.000 C 
ATOM      6  C   UNL     1       3.898   1.990  18.456  0.00  0.00    +0.000 C 
ATOM      7  C   UNL     1       4.470   1.921  19.879  0.00  0.00    +0.000 C 
ATOM      8  C   UNL     1       4.516   3.451  19.953  0.00  0.00    +0.000 C 
ATOM      9  C   UNL     1       4.095   3.558  18.449  0.00  0.00    +0.000 C 
ENDROOT
BRANCH   9  10
ATOM     10  C   UNL     1       5.153   4.068  17.355  0.00  0.00    +0.000 A 
ATOM     11  C   UNL     1       4.938   4.025  15.967  0.00  0.00    +0.000 A 
ATOM     12  C   UNL     1       5.904   4.468  15.064  0.00  0.00    +0.000 A 
ATOM     13  C   UNL     1       7.093   4.954  15.569  0.00  0.00    +0.000 A 
ATOM     14  N   UNL     1       7.368   5.018  16.884  0.00  0.00    +0.000 NA
ATOM     15  C   UNL     1       6.401   4.583  17.729  0.00  0.00    +0.000 A 
ENDBRANCH   9  10
BRANCH   1  16
ATOM     16  C   UNL     1       3.246   6.483  17.889  0.00  0.00    +0.000 C 
BRANCH  16  20
ATOM     17  C   UNL     1       1.817  11.082  17.701  0.00  0.00    +0.000 C 
ATOM     18  N   UNL     1       1.990   9.769  18.270  0.00  0.00    +0.000 N 
ATOM     19  N   UNL     1       2.678   8.841  17.580  0.00  0.00    +0.000 NA
ATOM     20  C   UNL     1       2.614   7.748  18.356  0.00  0.00    +0.000 A 
ATOM     21  C   UNL     1       1.871   7.988  19.547  0.00  0.00    +0.000 A 
ATOM     22  C   UNL     1       1.487   7.238  20.674  0.00  0.00    +0.000 A 
ATOM     23  C   UNL     1       0.753   7.854  21.692  0.00  0.00    +0.000 A 
ATOM     24  C   UNL     1       0.388   9.194  21.587  0.00  0.00    +0.000 A 
ATOM     25  C   UNL     1       0.743   9.958  20.471  0.00  0.00    +0.000 A 
ATOM     26  C   UNL     1       1.489   9.324  19.467  0.00  0.00    +0.000 A 
ENDBRANCH  16  20
ENDBRANCH   1  16
TORSDOF 3
ENDMDL
MODEL 2
REMARK VINA RESULT:      -7.4      1.539      1.745
REMARK  Name = 
REMARK  4 active torsions:
REMARK  status: ('A' for Active; 'I' for Inactive)
REMARK    1  A    between atoms: C_1  and  N_2
REMARK    2  A    between atoms: C_4  and  C_5
REMARK    3  A    between atoms: C_5  and  C_6
REMARK    4  A    between atoms: C_14  and  C_15
REMARK                            x       y       z     vdW  Elec       q    Type
REMARK                         _______ _______ _______ _____ _____    ______ ____
ROOT
ATOM      1  C   UNL     1       1.647   4.751  20.136  0.00  0.00    +0.000 C 
ATOM      2  O   UNL     1       0.422   4.880  20.097  0.00  0.00    +0.000 OA
ATOM      3  N   UNL     1       2.233   3.579  19.690  0.00  0.00    +0.000 N 
ATOM      4  C   UNL     1       1.406   2.396  19.478  0.00  0.00    +0.000 C 
ATOM      5  C   UNL     1       2.050   1.669  18.315  0.00  0.00    +0.000 C 
ATOM      6  C   UNL     1       3.538   2.012  18.381  0.00  0.00    +0.000 C 
ATOM      7  C   UNL     1       4.443   1.274  19.376  0.00  0.00    +0.000 C 
ATOM      8  C   UNL     1       4.433   2.487  20.313  0.00  0.00    +0.000 C 
ATOM      9  C   UNL     1       3.651   3.328  19.248  0.00  0.00    +0.000 C 
ENDROOT
BRANCH   9  10
ATOM     10  C   UNL     1       4.383   4.537  18.489  0.00  0.00    +0.000 A 
ATOM     11  C   UNL     1       3.945   5.087  17.271  0.00  0.00    +0.000 A 
ATOM     12  C   UNL     1       4.634   6.128  16.650  0.00  0.00    +0.000 A 
ATOM     13  C   UNL     1       5.773   6.612  17.262  0.00  0.00    +0.000 A 
ATOM     14  N   UNL     1       6.251   6.130  18.423  0.00  0.00    +0.000 NA
ATOM     15  C   UNL     1       5.549   5.122  18.998  0.00  0.00    +0.000 A 
ENDBRANCH   9  10
BRANCH   1  16
ATOM     16  C   UNL     1       2.550   5.865  20.641  0.00  0.00    +0.000 C 
BRANCH  16  20
ATOM     17  C   UNL     1       1.910   9.600  17.663  0.00  0.00    +0.000 C 
ATOM     18  N   UNL     1       1.801   8.844  18.885  0.00  0.00    +0.000 N 
ATOM     19  N   UNL     1       2.409   7.648  18.973  0.00  0.00    +0.000 NA
ATOM     20  C   UNL     1       2.077   7.205  20.196  0.00  0.00    +0.000 A 
ATOM     21  C   UNL     1       1.244   8.132  20.885  0.00  0.00    +0.000 A 
ATOM     22  C   UNL     1       0.611   8.192  22.140  0.00  0.00    +0.000 A 
ATOM     23  C   UNL     1      -0.133   9.325  22.482  0.00  0.00    +0.000 A 
ATOM     24  C   UNL     1      -0.262  10.381  21.583  0.00  0.00    +0.000 A 
ATOM     25  C   UNL     1       0.343  10.341  20.323  0.00  0.00    +0.000 A 
ATOM     26  C   UNL     1       1.093   9.201  20.005  0.00  0.00    +0.000 A 
ENDBRANCH  16  20
ENDBRANCH   1  16
TORSDOF 3
ENDMDL
MODEL 3
REMARK VINA RESULT:      -7.3      1.809      2.539
REMARK  Name = 
REMARK  4 active torsions:
REMARK  status: ('A' for Active; 'I' for Inactive)
REMARK    1  A    between atoms: C_1  and  N_2
REMARK    2  A    between atoms: C_4  and  C_5
REMARK    3  A    between atoms: C_5  and  C_6
REMARK    4  A    between atoms: C_14  and  C_15
REMARK                            x       y       z     vdW  Elec       q    Type
REMARK                         _______ _______ _______ _____ _____    ______ ____
ROOT
ATOM      1  C   UNL     1       1.654   4.662  20.065  0.00  0.00    +0.000 C 
ATOM      2  O   UNL     1       0.429   4.790  20.018  0.00  0.00    +0.000 OA
ATOM      3  N   UNL     1       2.247   3.503  19.596  0.00  0.00    +0.000 N 
ATOM      4  C   UNL     1       1.425   2.324  19.348  0.00  0.00    +0.000 C 
ATOM      5  C   UNL     1       2.081   1.626  18.173  0.00  0.00    +0.000 C 
ATOM      6  C   UNL     1       3.567   1.971  18.261  0.00  0.00    +0.000 C 
ATOM      7  C   UNL     1       4.466   1.212  19.246  0.00  0.00    +0.000 C 
ATOM      8  C   UNL     1       4.444   2.402  20.211  0.00  0.00    +0.000 C 
ATOM      9  C   UNL     1       3.669   3.266  19.160  0.00  0.00    +0.000 C 
ENDROOT
BRANCH   9  10
ATOM     10  C   UNL     1       4.404   4.496  18.436  0.00  0.00    +0.000 A 
ATOM     11  C   UNL     1       3.941   5.114  17.262  0.00  0.00    +0.000 A 
ATOM     12  C   UNL     1       4.634   6.169  16.670  0.00  0.00    +0.000 A 
ATOM     13  C   UNL     1       5.802   6.598  17.267  0.00  0.00    +0.000 A 
ATOM     14  N   UNL     1       6.306   6.049  18.386  0.00  0.00    +0.000 NA
ATOM     15  C   UNL     1       5.599   5.030  18.935  0.00  0.00    +0.000 A 
ENDBRANCH   9  10
BRANCH   1  16
ATOM     16  C   UNL     1       2.550   5.767  20.604  0.00  0.00    +0.000 C 
BRANCH  16  20
ATOM     17  C   UNL     1      -0.039   9.386  22.455  0.00  0.00    +0.000 C 
ATOM     18  N   UNL     1       0.710   8.666  21.456  0.00  0.00    +0.000 N 
ATOM     19  N   UNL     1       1.178   7.439  21.745  0.00  0.00    +0.000 NA
ATOM     20  C   UNL     1       1.849   7.080  20.639  0.00  0.00    +0.000 A 
ATOM     21  C   UNL     1       1.809   8.097  19.643  0.00  0.00    +0.000 A 
ATOM     22  C   UNL     1       2.321   8.269  18.344  0.00  0.00    +0.000 A 
ATOM     23  C   UNL     1       2.034   9.442  17.641  0.00  0.00    +0.000 A 
ATOM     24  C   UNL     1       1.261  10.443  18.226  0.00  0.00    +0.000 A 
ATOM     25  C   UNL     1       0.752  10.306  19.520  0.00  0.00    +0.000 A 
ATOM     26  C   UNL     1       1.043   9.117  20.203  0.00  0.00    +0.000 A 
ENDBRANCH  16  20
ENDBRANCH   1  16
TORSDOF 3
ENDMDL
MODEL 4
REMARK VINA RESULT:      -7.1      7.378     11.717
REMARK  Name = 
REMARK  4 active torsions:
REMARK  status: ('A' for Active; 'I' for Inactive)
REMARK    1  A    between atoms: C_1  and  N_2
REMARK    2  A    between atoms: C_4  and  C_5
REMARK    3  A    between atoms: C_5  and  C_6
REMARK    4  A    between atoms: C_14  and  C_15
REMARK                            x       y       z     vdW  Elec       q    Type
REMARK                         _______ _______ _______ _____ _____    ______ ____
ROOT
ATOM      1  C   UNL     1      -5.746  12.246  20.355  0.00  0.00    +0.000 C 
ATOM      2  O   UNL     1      -6.169  11.221  19.817  0.00  0.00    +0.000 OA
ATOM      3  N   UNL     1      -6.301  12.682  21.544  0.00  0.00    +0.000 N 
ATOM      4  C   UNL     1      -7.574  12.127  21.992  0.00  0.00    +0.000 C 
ATOM      5  C   UNL     1      -7.489  12.115  23.505  0.00  0.00    +0.000 C 
ATOM      6  C   UNL     1      -6.568  13.275  23.879  0.00  0.00    +0.000 C 
ATOM      7  C   UNL     1      -7.119  14.707  23.896  0.00  0.00    +0.000 C 
ATOM      8  C   UNL     1      -6.443  15.003  22.553  0.00  0.00    +0.000 C 
ATOM      9  C   UNL     1      -5.728  13.610  22.583  0.00  0.00    +0.000 C 
ENDROOT
BRANCH   9  10
ATOM     10  C   UNL     1      -4.141  13.530  22.808  0.00  0.00    +0.000 A 
ATOM     11  C   UNL     1      -3.457  12.373  23.219  0.00  0.00    +0.000 A 
ATOM     12  C   UNL     1      -2.076  12.370  23.414  0.00  0.00    +0.000 A 
ATOM     13  C   UNL     1      -1.385  13.544  23.194  0.00  0.00    +0.000 A 
ATOM     14  N   UNL     1      -1.975  14.688  22.805  0.00  0.00    +0.000 NA
ATOM     15  C   UNL     1      -3.318  14.648  22.621  0.00  0.00    +0.000 A 
ENDBRANCH   9  10
BRANCH   1  16
ATOM     16  C   UNL     1      -4.597  13.043  19.757  0.00  0.00    +0.000 C 
BRANCH  16  20
ATOM     17  C   UNL     1      -0.510  10.490  19.666  0.00  0.00    +0.000 C 
ATOM     18  N   UNL     1      -1.743  11.038  19.160  0.00  0.00    +0.000 N 
ATOM     19  N   UNL     1      -2.457  11.874  19.936  0.00  0.00    +0.000 NA
ATOM     20  C   UNL     1      -3.541  12.156  19.196  0.00  0.00    +0.000 A 
ATOM     21  C   UNL     1      -3.514  11.483  17.941  0.00  0.00    +0.000 A 
ATOM     22  C   UNL     1      -4.351  11.400  16.814  0.00  0.00    +0.000 A 
ATOM     23  C   UNL     1      -3.956  10.627  15.719  0.00  0.00    +0.000 A 
ATOM     24  C   UNL     1      -2.751   9.928  15.747  0.00  0.00    +0.000 A 
ATOM     25  C   UNL     1      -1.907   9.980  16.860  0.00  0.00    +0.000 A 
ATOM     26  C   UNL     1      -2.317  10.771  17.942  0.00  0.00    +0.000 A 
ENDBRANCH  16  20
ENDBRANCH   1  16
TORSDOF 3
ENDMDL
MODEL 5
REMARK VINA RESULT:      -7.0      1.399      2.451
REMARK  Name = 
REMARK  4 active torsions:
REMARK  status: ('A' for Active; 'I' for Inactive)
REMARK    1  A    between atoms: C_1  and  N_2
REMARK    2  A    between atoms: C_4  and  C_5
REMARK    3  A    between atoms: C_5  and  C_6
REMARK    4  A    between atoms: C_14  and  C_15
REMARK                            x       y       z     vdW  Elec       q    Type
REMARK                         _______ _______ _______ _____ _____    ______ ____
ROOT
ATOM      1  C   UNL     1       2.191   5.477  18.383  0.00  0.00    +0.000 C 
ATOM      2  O   UNL     1       1.181   5.713  17.717  0.00  0.00    +0.000 OA
ATOM      3  N   UNL     1       2.660   4.180  18.490  0.00  0.00    +0.000 N 
ATOM      4  C   UNL     1       1.803   3.068  18.093  0.00  0.00    +0.000 C 
ATOM      5  C   UNL     1       2.748   2.018  17.545  0.00  0.00    +0.000 C 
ATOM      6  C   UNL     1       4.069   2.218  18.287  0.00  0.00    +0.000 C 
ATOM      7  C   UNL     1       4.234   1.661  19.707  0.00  0.00    +0.000 C 
ATOM      8  C   UNL     1       4.040   3.062  20.298  0.00  0.00    +0.000 C 
ATOM      9  C   UNL     1       4.035   3.689  18.863  0.00  0.00    +0.000 C 
ENDROOT
BRANCH   9  10
ATOM     10  C   UNL     1       5.268   4.597  18.381  0.00  0.00    +0.000 A 
ATOM     11  C   UNL     1       6.221   5.161  19.247  0.00  0.00    +0.000 A 
ATOM     12  C   UNL     1       7.262   5.956  18.770  0.00  0.00    +0.000 A 
ATOM     13  C   UNL     1       7.336   6.184  17.411  0.00  0.00    +0.000 A 
ATOM     14  N   UNL     1       6.457   5.682  16.527  0.00  0.00    +0.000 NA
ATOM     15  C   UNL     1       5.463   4.908  17.030  0.00  0.00    +0.000 A 
ENDBRANCH   9  10
BRANCH   1  16
ATOM     16  C   UNL     1       2.964   6.587  19.079  0.00  0.00    +0.000 C 
BRANCH  16  20
ATOM     17  C   UNL     1      -0.035   8.617  22.259  0.00  0.00    +0.000 C 
ATOM     18  N   UNL     1       0.738   8.507  21.047  0.00  0.00    +0.000 N 
ATOM     19  N   UNL     1       1.430   7.378  20.810  0.00  0.00    +0.000 NA
ATOM     20  C   UNL     1       2.056   7.621  19.648  0.00  0.00    +0.000 A 
ATOM     21  C   UNL     1       1.759   8.921  19.148  0.00  0.00    +0.000 A 
ATOM     22  C   UNL     1       2.123   9.686  18.025  0.00  0.00    +0.000 A 
ATOM     23  C   UNL     1       1.582  10.963  17.859  0.00  0.00    +0.000 A 
ATOM     24  C   UNL     1       0.703  11.486  18.806  0.00  0.00    +0.000 A 
ATOM     25  C   UNL     1       0.337  10.754  19.939  0.00  0.00    +0.000 A 
ATOM     26  C   UNL     1       0.882   9.470  20.080  0.00  0.00    +0.000 A 
ENDBRANCH  16  20
ENDBRANCH   1  16
TORSDOF 3
ENDMDL
MODEL 6
REMARK VINA RESULT:      -6.8      7.359     11.660
REMARK  Name = 
REMARK  4 active torsions:
REMARK  status: ('A' for Active; 'I' for Inactive)
REMARK    1  A    between atoms: C_1  and  N_2
REMARK    2  A    between atoms: C_4  and  C_5
REMARK    3  A    between atoms: C_5  and  C_6
REMARK    4  A    between atoms: C_14  and  C_15
REMARK                            x       y       z     vdW  Elec       q    Type
REMARK                         _______ _______ _______ _____ _____    ______ ____
ROOT
ATOM      1  C   UNL     1      -5.996  12.090  20.323  0.00  0.00    +0.000 C 
ATOM      2  O   UNL     1      -6.411  11.030  19.850  0.00  0.00    +0.000 OA
ATOM      3  N   UNL     1      -6.511  12.561  21.518  0.00  0.00    +0.000 N 
ATOM      4  C   UNL     1      -7.743  11.988  22.048  0.00  0.00    +0.000 C 
ATOM      5  C   UNL     1      -7.589  12.046  23.554  0.00  0.00    +0.000 C 
ATOM      6  C   UNL     1      -6.689  13.248  23.835  0.00  0.00    +0.000 C 
ATOM      7  C   UNL     1      -7.284  14.662  23.817  0.00  0.00    +0.000 C 
ATOM      8  C   UNL     1      -6.679  14.918  22.433  0.00  0.00    +0.000 C 
ATOM      9  C   UNL     1      -5.920  13.550  22.489  0.00  0.00    +0.000 C 
ENDROOT
BRANCH   9  10
ATOM     10  C   UNL     1      -4.322  13.527  22.641  0.00  0.00    +0.000 A 
ATOM     11  C   UNL     1      -3.586  12.413  23.080  0.00  0.00    +0.000 A 
ATOM     12  C   UNL     1      -2.198  12.459  23.209  0.00  0.00    +0.000 A 
ATOM     13  C   UNL     1      -1.554  13.639  22.895  0.00  0.00    +0.000 A 
ATOM     14  N   UNL     1      -2.196  14.743  22.475  0.00  0.00    +0.000 NA
ATOM     15  C   UNL     1      -3.544  14.656  22.357  0.00  0.00    +0.000 A 
ENDBRANCH   9  10
BRANCH   1  16
ATOM     16  C   UNL     1      -4.902  12.893  19.639  0.00  0.00    +0.000 C 
BRANCH  16  20
ATOM     17  C   UNL     1      -3.870  10.565  15.547  0.00  0.00    +0.000 C 
ATOM     18  N   UNL     1      -3.664  11.035  16.894  0.00  0.00    +0.000 N 
ATOM     19  N   UNL     1      -4.633  11.749  17.494  0.00  0.00    +0.000 NA
ATOM     20  C   UNL     1      -4.112  12.058  18.692  0.00  0.00    +0.000 A 
ATOM     21  C   UNL     1      -2.795  11.538  18.846  0.00  0.00    +0.000 A 
ATOM     22  C   UNL     1      -1.805  11.556  19.845  0.00  0.00    +0.000 A 
ATOM     23  C   UNL     1      -0.600  10.881  19.632  0.00  0.00    +0.000 A 
ATOM     24  C   UNL     1      -0.371  10.208  18.433  0.00  0.00    +0.000 A 
ATOM     25  C   UNL     1      -1.331  10.187  17.417  0.00  0.00    +0.000 A 
ATOM     26  C   UNL     1      -2.537  10.861  17.657  0.00  0.00    +0.000 A 
ENDBRANCH  16  20
ENDBRANCH   1  16
TORSDOF 3
ENDMDL
MODEL 7
REMARK VINA RESULT:      -6.8      1.189      2.126
REMARK  Name = 
REMARK  4 active torsions:
REMARK  status: ('A' for Active; 'I' for Inactive)
REMARK    1  A    between atoms: C_1  and  N_2
REMARK    2  A    between atoms: C_4  and  C_5
REMARK    3  A    between atoms: C_5  and  C_6
REMARK    4  A    between atoms: C_14  and  C_15
REMARK                            x       y       z     vdW  Elec       q    Type
REMARK                         _______ _______ _______ _____ _____    ______ ____
ROOT
ATOM      1  C   UNL     1       2.126   5.356  18.130  0.00  0.00    +0.000 C 
ATOM      2  O   UNL     1       1.047   5.478  17.546  0.00  0.00    +0.000 OA
ATOM      3  N   UNL     1       2.615   4.094  18.419  0.00  0.00    +0.000 N 
ATOM      4  C   UNL     1       1.730   2.939  18.328  0.00  0.00    +0.000 C 
ATOM      5  C   UNL     1       2.618   1.796  17.881  0.00  0.00    +0.000 C 
ATOM      6  C   UNL     1       4.010   2.113  18.425  0.00  0.00    +0.000 C 
ATOM      7  C   UNL     1       4.334   1.822  19.896  0.00  0.00    +0.000 C 
ATOM      8  C   UNL     1       4.194   3.309  20.239  0.00  0.00    +0.000 C 
ATOM      9  C   UNL     1       4.027   3.664  18.723  0.00  0.00    +0.000 C 
ENDROOT
BRANCH   9  10
ATOM     10  C   UNL     1       5.192   4.455  17.952  0.00  0.00    +0.000 A 
ATOM     11  C   UNL     1       5.296   4.542  16.553  0.00  0.00    +0.000 A 
ATOM     12  C   UNL     1       6.343   5.231  15.940  0.00  0.00    +0.000 A 
ATOM     13  C   UNL     1       7.289   5.830  16.747  0.00  0.00    +0.000 A 
ATOM     14  N   UNL     1       7.253   5.781  18.091  0.00  0.00    +0.000 NA
ATOM     15  C   UNL     1       6.217   5.108  18.648  0.00  0.00    +0.000 A 
ENDBRANCH   9  10
BRANCH   1  16
ATOM     16  C   UNL     1       2.961   6.565  18.522  0.00  0.00    +0.000 C 
BRANCH  16  20
ATOM     17  C   UNL     1       0.369   8.390  22.152  0.00  0.00    +0.000 C 
ATOM     18  N   UNL     1       1.019   8.369  20.866  0.00  0.00    +0.000 N 
ATOM     19  N   UNL     1       1.634   7.243  20.461  0.00  0.00    +0.000 NA
ATOM     20  C   UNL     1       2.158   7.572  19.270  0.00  0.00    +0.000 A 
ATOM     21  C   UNL     1       1.876   8.924  18.923  0.00  0.00    +0.000 A 
ATOM     22  C   UNL     1       2.168   9.779  17.845  0.00  0.00    +0.000 A 
ATOM     23  C   UNL     1       1.673  11.086  17.850  0.00  0.00    +0.000 A 
ATOM     24  C   UNL     1       0.911  11.547  18.922  0.00  0.00    +0.000 A 
ATOM     25  C   UNL     1       0.620  10.724  20.013  0.00  0.00    +0.000 A 
ATOM     26  C   UNL     1       1.116   9.414  19.982  0.00  0.00    +0.000 A 
ENDBRANCH  16  20
ENDBRANCH   1  16
TORSDOF 3
ENDMDL
MODEL 8
REMARK VINA RESULT:      -6.7      1.148      1.538
REMARK  Name = 
REMARK  4 active torsions:
REMARK  status: ('A' for Active; 'I' for Inactive)
REMARK    1  A    between atoms: C_1  and  N_2
REMARK    2  A    between atoms: C_4  and  C_5
REMARK    3  A    between atoms: C_5  and  C_6
REMARK    4  A    between atoms: C_14  and  C_15
REMARK                            x       y       z     vdW  Elec       q    Type
REMARK                         _______ _______ _______ _____ _____    ______ ____
ROOT
ATOM      1  C   UNL     1       2.151   6.153  18.092  0.00  0.00    +0.000 C 
ATOM      2  O   UNL     1       1.155   6.415  17.414  0.00  0.00    +0.000 OA
ATOM      3  N   UNL     1       2.543   4.836  18.261  0.00  0.00    +0.000 N 
ATOM      4  C   UNL     1       1.621   3.760  17.918  0.00  0.00    +0.000 C 
ATOM      5  C   UNL     1       2.501   2.630  17.422  0.00  0.00    +0.000 C 
ATOM      6  C   UNL     1       3.833   2.788  18.154  0.00  0.00    +0.000 C 
ATOM      7  C   UNL     1       3.968   2.291  19.599  0.00  0.00    +0.000 C 
ATOM      8  C   UNL     1       3.859   3.728  20.121  0.00  0.00    +0.000 C 
ATOM      9  C   UNL     1       3.887   4.284  18.658  0.00  0.00    +0.000 C 
ENDROOT
BRANCH   9  10
ATOM     10  C   UNL     1       5.170   5.093  18.133  0.00  0.00    +0.000 A 
ATOM     11  C   UNL     1       6.259   5.460  18.943  0.00  0.00    +0.000 A 
ATOM     12  C   UNL     1       7.340   6.178  18.432  0.00  0.00    +0.000 A 
ATOM     13  C   UNL     1       7.316   6.530  17.098  0.00  0.00    +0.000 A 
ATOM     14  N   UNL     1       6.305   6.217  16.268  0.00  0.00    +0.000 NA
ATOM     15  C   UNL     1       5.276   5.513  16.801  0.00  0.00    +0.000 A 
ENDBRANCH   9  10
BRANCH   1  16
ATOM     16  C   UNL     1       2.990   7.247  18.733  0.00  0.00    +0.000 C 
BRANCH  16  20
ATOM     17  C   UNL     1       1.011  11.597  18.110  0.00  0.00    +0.000 C 
ATOM     18  N   UNL     1       1.309  10.360  18.787  0.00  0.00    +0.000 N 
ATOM     19  N   UNL     1       2.153   9.484  18.211  0.00  0.00    +0.000 NA
ATOM     20  C   UNL     1       2.174   8.448  19.064  0.00  0.00    +0.000 A 
ATOM     21  C   UNL     1       1.328   8.670  20.187  0.00  0.00    +0.000 A 
ATOM     22  C   UNL     1       0.965   7.956  21.344  0.00  0.00    +0.000 A 
ATOM     23  C   UNL     1       0.093   8.539  22.267  0.00  0.00    +0.000 A 
ATOM     24  C   UNL     1      -0.429   9.810  22.038  0.00  0.00    +0.000 A 
ATOM     25  C   UNL     1      -0.099  10.535  20.890  0.00  0.00    +0.000 A 
ATOM     26  C   UNL     1       0.787   9.937  19.983  0.00  0.00    +0.000 A 
ENDBRANCH  16  20
ENDBRANCH   1  16
TORSDOF 3
ENDMDL
MODEL 9
REMARK VINA RESULT:      -6.7      7.237     10.037
REMARK  Name = 
REMARK  4 active torsions:
REMARK  status: ('A' for Active; 'I' for Inactive)
REMARK    1  A    between atoms: C_1  and  N_2
REMARK    2  A    between atoms: C_4  and  C_5
REMARK    3  A    between atoms: C_5  and  C_6
REMARK    4  A    between atoms: C_14  and  C_15
REMARK                            x       y       z     vdW  Elec       q    Type
REMARK                         _______ _______ _______ _____ _____    ______ ____
ROOT
ATOM      1  C   UNL     1      -3.289  13.600  20.974  0.00  0.00    +0.000 C 
ATOM      2  O   UNL     1      -4.044  14.390  21.543  0.00  0.00    +0.000 OA
ATOM      3  N   UNL     1      -2.004  13.991  20.639  0.00  0.00    +0.000 N 
ATOM      4  C   UNL     1      -1.652  15.406  20.666  0.00  0.00    +0.000 C 
ATOM      5  C   UNL     1      -0.194  15.442  21.079  0.00  0.00    +0.000 C 
ATOM      6  C   UNL     1       0.414  14.134  20.573  0.00  0.00    +0.000 C 
ATOM      7  C   UNL     1       0.810  14.003  19.097  0.00  0.00    +0.000 C 
ATOM      8  C   UNL     1      -0.447  13.173  18.815  0.00  0.00    +0.000 C 
ATOM      9  C   UNL     1      -0.795  13.144  20.342  0.00  0.00    +0.000 C 
ENDROOT
BRANCH   9  10
ATOM     10  C   UNL     1      -0.669  11.772  21.166  0.00  0.00    +0.000 A 
ATOM     11  C   UNL     1      -0.870  11.661  22.552  0.00  0.00    +0.000 A 
ATOM     12  C   UNL     1      -0.730  10.442  23.216  0.00  0.00    +0.000 A 
ATOM     13  C   UNL     1      -0.380   9.333  22.473  0.00  0.00    +0.000 A 
ATOM     14  N   UNL     1      -0.166   9.368  21.146  0.00  0.00    +0.000 NA
ATOM     15  C   UNL     1      -0.319  10.570  20.537  0.00  0.00    +0.000 A 
ENDBRANCH   9  10
BRANCH   1  16
ATOM     16  C   UNL     1      -3.721  12.179  20.647  0.00  0.00    +0.000 C 
BRANCH  16  20
ATOM     17  C   UNL     1      -6.549  13.010  16.834  0.00  0.00    +0.000 C 
ATOM     18  N   UNL     1      -5.461  12.425  17.576  0.00  0.00    +0.000 N 
ATOM     19  N   UNL     1      -5.325  12.718  18.882  0.00  0.00    +0.000 NA
ATOM     20  C   UNL     1      -4.215  12.058  19.248  0.00  0.00    +0.000 A 
ATOM     21  C   UNL     1      -3.640  11.346  18.157  0.00  0.00    +0.000 A 
ATOM     22  C   UNL     1      -2.515  10.523  17.959  0.00  0.00    +0.000 A 
ATOM     23  C   UNL     1      -2.288   9.961  16.701  0.00  0.00    +0.000 A 
ATOM     24  C   UNL     1      -3.156  10.224  15.643  0.00  0.00    +0.000 A 
ATOM     25  C   UNL     1      -4.271  11.050  15.807  0.00  0.00    +0.000 A 
ATOM     26  C   UNL     1      -4.487  11.594  17.080  0.00  0.00    +0.000 A 
ENDBRANCH  16  20
ENDBRANCH   1  16
TORSDOF 3
ENDMDL
