MODEL 1
REMARK VINA RESULT:      -8.5      0.000      0.000
REMARK  Name = 
REMARK  6 active torsions:
REMARK  status: ('A' for Active; 'I' for Inactive)
REMARK    1  A    between atoms: C_1  and  N_2
REMARK    2  A    between atoms: C_6  and  C_7
REMARK    3  A    between atoms: C_7  and  N_8
REMARK    4  A    between atoms: N_8  and  C_9
REMARK    5  A    between atoms: C_12  and  N_13
REMARK    6  A    between atoms: C_20  and  C_21
REMARK                            x       y       z     vdW  Elec       q    Type
REMARK                         _______ _______ _______ _____ _____    ______ ____
ROOT
ATOM      1  N   UNL     1       2.052   7.960  19.321  0.00  0.00    +0.000 N 
ATOM      2  C   UNL     1       1.431   8.155  20.625  0.00  0.00    +0.000 C 
ATOM      3  C   UNL     1       0.701   9.454  20.472  0.00  0.00    +0.000 A 
ATOM      4  C   UNL     1       0.926   9.957  19.188  0.00  0.00    +0.000 A 
ATOM      5  C   UNL     1       0.408  11.161  18.750  0.00  0.00    +0.000 A 
ATOM      6  C   UNL     1      -0.389  11.879  19.640  0.00  0.00    +0.000 A 
ATOM      7  C   UNL     1      -0.641  11.380  20.932  0.00  0.00    +0.000 A 
ATOM      8  C   UNL     1      -0.093  10.157  21.374  0.00  0.00    +0.000 A 
ATOM      9  C   UNL     1       1.770   9.013  18.451  0.00  0.00    +0.000 C 
ATOM     10  O   UNL     1       2.135   9.179  17.301  0.00  0.00    +0.000 OA
ENDROOT
BRANCH   1  14
ATOM     11  C   UNL     1       2.800   4.547  17.836  0.00  0.00    +0.000 C 
ATOM     12  C   UNL     1       1.557   5.128  17.745  0.00  0.00    +0.000 C 
ATOM     13  C   UNL     1       2.501   5.829  18.348  0.00  0.00    +0.000 C 
ATOM     14  C   UNL     1       2.883   6.912  18.986  0.00  0.00    +0.000 C 
BRANCH  11  15
ATOM     15  N   UNL     1       2.663   3.339  17.224  0.00  0.00    +0.000 N 
ATOM     16  H   UNL     1       3.129   3.219  16.327  0.00  0.00    +0.000 HD
BRANCH  15  17
ATOM     17  C   UNL     1       2.442   2.078  17.915  0.00  0.00    +0.000 C 
BRANCH  17  23
ATOM     18  C   UNL     1       4.561   2.257  20.165  0.00  0.00    +0.000 C 
ATOM     19  N   UNL     1       3.141   2.396  20.335  0.00  0.00    +0.000 N 
ATOM     20  C   UNL     1       2.496   2.722  21.488  0.00  0.00    +0.000 A 
ATOM     21  N   UNL     1       1.208   2.815  21.258  0.00  0.00    +0.000 NA
ATOM     22  N   UNL     1       1.003   2.549  19.923  0.00  0.00    +0.000 NA
ATOM     23  C   UNL     1       2.173   2.294  19.370  0.00  0.00    +0.000 A 
ENDBRANCH  17  23
ENDBRANCH  15  17
ENDBRANCH  11  15
ENDBRANCH   1  14
BRANCH   8  24
ATOM     24  C   UNL     1      -0.390   9.668  22.767  0.00  0.00    +0.000 C 
ATOM     25  F   UNL     1       0.720   9.513  23.541  0.00  0.00    +0.000 F 
ATOM     26  F   UNL     1      -1.204  10.516  23.453  0.00  0.00    +0.000 F 
ATOM     27  F   UNL     1      -1.018   8.461  22.771  0.00  0.00    +0.000 F 
ENDBRANCH   8  24
TORSDOF 5
ENDMDL
MODEL 2
REMARK VINA RESULT:      -8.3      0.617      1.386
REMARK  Name = 
REMARK  6 active torsions:
REMARK  status: ('A' for Active; 'I' for Inactive)
REMARK    1  A    between atoms: C_1  and  N_2
REMARK    2  A    between atoms: C_6  and  C_7
REMARK    3  A    between atoms: C_7  and  N_8
REMARK    4  A    between atoms: N_8  and  C_9
REMARK    5  A    between atoms: C_12  and  N_13
REMARK    6  A    between atoms: C_20  and  C_21
REMARK                            x       y       z     vdW  Elec       q    Type
REMARK                         _______ _______ _______ _____ _____    ______ ____
ROOT
ATOM      1  N   UNL     1       2.118   8.112  19.278  0.00  0.00    +0.000 N 
ATOM      2  C   UNL     1       1.491   8.269  20.584  0.00  0.00    +0.000 C 
ATOM      3  C   UNL     1       0.614   9.471  20.407  0.00  0.00    +0.000 A 
ATOM      4  C   UNL     1       0.766   9.961  19.107  0.00  0.00    +0.000 A 
ATOM      5  C   UNL     1       0.108  11.084  18.646  0.00  0.00    +0.000 A 
ATOM      6  C   UNL     1      -0.758  11.729  19.527  0.00  0.00    +0.000 A 
ATOM      7  C   UNL     1      -0.939  11.240  20.834  0.00  0.00    +0.000 A 
ATOM      8  C   UNL     1      -0.248  10.101  21.301  0.00  0.00    +0.000 A 
ATOM      9  C   UNL     1       1.707   9.102  18.384  0.00  0.00    +0.000 C 
ATOM     10  O   UNL     1       2.039   9.277  17.226  0.00  0.00    +0.000 OA
ENDROOT
BRANCH   1  14
ATOM     11  C   UNL     1       3.235   4.742  17.933  0.00  0.00    +0.000 C 
ATOM     12  C   UNL     1       1.926   5.159  17.868  0.00  0.00    +0.000 C 
ATOM     13  C   UNL     1       2.796   6.004  18.394  0.00  0.00    +0.000 C 
ATOM     14  C   UNL     1       3.061   7.158  18.960  0.00  0.00    +0.000 C 
BRANCH  11  15
ATOM     15  N   UNL     1       3.229   3.495  17.389  0.00  0.00    +0.000 N 
ATOM     16  H   UNL     1       3.538   3.410  16.422  0.00  0.00    +0.000 HD
BRANCH  15  17
ATOM     17  C   UNL     1       3.391   2.259  18.140  0.00  0.00    +0.000 C 
BRANCH  17  23
ATOM     18  C   UNL     1       0.468   2.257  19.161  0.00  0.00    +0.000 C 
ATOM     19  N   UNL     1       1.644   2.389  19.977  0.00  0.00    +0.000 N 
ATOM     20  C   UNL     1       1.679   2.438  21.336  0.00  0.00    +0.000 A 
ATOM     21  N   UNL     1       2.926   2.502  21.740  0.00  0.00    +0.000 NA
ATOM     22  N   UNL     1       3.727   2.489  20.622  0.00  0.00    +0.000 NA
ATOM     23  C   UNL     1       2.949   2.423  19.558  0.00  0.00    +0.000 A 
ENDBRANCH  17  23
ENDBRANCH  15  17
ENDBRANCH  11  15
ENDBRANCH   1  14
BRANCH   8  24
ATOM     24  C   UNL     1      -0.472   9.619  22.710  0.00  0.00    +0.000 C 
ATOM     25  F   UNL     1      -1.323  10.404  23.429  0.00  0.00    +0.000 F 
ATOM     26  F   UNL     1      -1.000   8.365  22.753  0.00  0.00    +0.000 F 
ATOM     27  F   UNL     1       0.682   9.565  23.430  0.00  0.00    +0.000 F 
ENDBRANCH   8  24
TORSDOF 5
ENDMDL
MODEL 3
REMARK VINA RESULT:      -8.0      3.169      7.551
REMARK  Name = 
REMARK  6 active torsions:
REMARK  status: ('A' for Active; 'I' for Inactive)
REMARK    1  A    between atoms: C_1  and  N_2
REMARK    2  A    between atoms: C_6  and  C_7
REMARK    3  A    between atoms: C_7  and  N_8
REMARK    4  A    between atoms: N_8  and  C_9
REMARK    5  A    between atoms: C_12  and  N_13
REMARK    6  A    between atoms: C_20  and  C_21
REMARK                            x       y       z     vdW  Elec       q    Type
REMARK                         _______ _______ _______ _____ _____    ______ ____
ROOT
ATOM      1  N   UNL     1       3.328   6.739  18.012  0.00  0.00    +0.000 N 
ATOM      2  C   UNL     1       2.556   6.078  19.057  0.00  0.00    +0.000 C 
ATOM      3  C   UNL     1       2.864   4.627  18.851  0.00  0.00    +0.000 A 
ATOM      4  C   UNL     1       3.720   4.490  17.755  0.00  0.00    +0.000 A 
ATOM      5  C   UNL     1       4.164   3.266  17.296  0.00  0.00    +0.000 A 
ATOM      6  C   UNL     1       3.743   2.130  17.984  0.00  0.00    +0.000 A 
ATOM      7  C   UNL     1       2.895   2.247  19.101  0.00  0.00    +0.000 A 
ATOM      8  C   UNL     1       2.434   3.503  19.553  0.00  0.00    +0.000 A 
ATOM      9  C   UNL     1       4.026   5.822  17.226  0.00  0.00    +0.000 C 
ATOM     10  O   UNL     1       4.751   6.025  16.269  0.00  0.00    +0.000 OA
ENDROOT
BRANCH   1  14
ATOM     11  C   UNL     1       1.776  10.203  18.030  0.00  0.00    +0.000 C 
ATOM     12  C   UNL     1       1.157   9.121  18.610  0.00  0.00    +0.000 C 
ATOM     13  C   UNL     1       2.345   8.911  18.069  0.00  0.00    +0.000 C 
ATOM     14  C   UNL     1       3.326   8.095  17.761  0.00  0.00    +0.000 C 
BRANCH  11  15
ATOM     15  N   UNL     1       0.910  11.236  18.212  0.00  0.00    +0.000 N 
ATOM     16  H   UNL     1      -0.069  11.067  17.984  0.00  0.00    +0.000 HD
BRANCH  15  17
ATOM     17  C   UNL     1       1.082  12.304  19.186  0.00  0.00    +0.000 C 
BRANCH  17  23
ATOM     18  C   UNL     1      -1.854  12.798  20.036  0.00  0.00    +0.000 C 
ATOM     19  N   UNL     1      -0.845  12.154  20.832  0.00  0.00    +0.000 N 
ATOM     20  C   UNL     1      -1.030  11.570  22.047  0.00  0.00    +0.000 A 
ATOM     21  N   UNL     1       0.097  11.033  22.450  0.00  0.00    +0.000 NA
ATOM     22  N   UNL     1       1.041  11.264  21.476  0.00  0.00    +0.000 NA
ATOM     23  C   UNL     1       0.468  11.944  20.501  0.00  0.00    +0.000 A 
ENDBRANCH  17  23
ENDBRANCH  15  17
ENDBRANCH  11  15
ENDBRANCH   1  14
BRANCH   8  24
ATOM     24  C   UNL     1       1.524   3.576  20.751  0.00  0.00    +0.000 C 
ATOM     25  F   UNL     1       1.058   2.363  21.159  0.00  0.00    +0.000 F 
ATOM     26  F   UNL     1       2.138   4.121  21.836  0.00  0.00    +0.000 F 
ATOM     27  F   UNL     1       0.422   4.340  20.519  0.00  0.00    +0.000 F 
ENDBRANCH   8  24
TORSDOF 5
ENDMDL
MODEL 4
REMARK VINA RESULT:      -7.9      3.265      7.735
REMARK  Name = 
REMARK  6 active torsions:
REMARK  status: ('A' for Active; 'I' for Inactive)
REMARK    1  A    between atoms: C_1  and  N_2
REMARK    2  A    between atoms: C_6  and  C_7
REMARK    3  A    between atoms: C_7  and  N_8
REMARK    4  A    between atoms: N_8  and  C_9
REMARK    5  A    between atoms: C_12  and  N_13
REMARK    6  A    between atoms: C_20  and  C_21
REMARK                            x       y       z     vdW  Elec       q    Type
REMARK                         _______ _______ _______ _____ _____    ______ ____
ROOT
ATOM      1  N   UNL     1       3.346   6.444  17.987  0.00  0.00    +0.000 N 
ATOM      2  C   UNL     1       2.623   5.845  19.102  0.00  0.00    +0.000 C 
ATOM      3  C   UNL     1       2.917   4.383  18.961  0.00  0.00    +0.000 A 
ATOM      4  C   UNL     1       3.719   4.182  17.835  0.00  0.00    +0.000 A 
ATOM      5  C   UNL     1       4.137   2.932  17.422  0.00  0.00    +0.000 A 
ATOM      6  C   UNL     1       3.747   1.838  18.191  0.00  0.00    +0.000 A 
ATOM      7  C   UNL     1       2.954   2.020  19.339  0.00  0.00    +0.000 A 
ATOM      8  C   UNL     1       2.518   3.301  19.743  0.00  0.00    +0.000 A 
ATOM      9  C   UNL     1       4.003   5.481  17.219  0.00  0.00    +0.000 C 
ATOM     10  O   UNL     1       4.682   5.628  16.220  0.00  0.00    +0.000 OA
ENDROOT
BRANCH   1  14
ATOM     11  C   UNL     1       1.854   9.935  17.981  0.00  0.00    +0.000 C 
ATOM     12  C   UNL     1       1.288   8.897  18.684  0.00  0.00    +0.000 C 
ATOM     13  C   UNL     1       2.406   8.634  18.030  0.00  0.00    +0.000 C 
ATOM     14  C   UNL     1       3.336   7.784  17.663  0.00  0.00    +0.000 C 
BRANCH  11  15
ATOM     15  N   UNL     1       1.028  10.993  18.199  0.00  0.00    +0.000 N 
ATOM     16  H   UNL     1       0.891  11.641  17.425  0.00  0.00    +0.000 HD
BRANCH  15  17
ATOM     17  C   UNL     1      -0.081  11.002  19.141  0.00  0.00    +0.000 C 
BRANCH  17  23
ATOM     18  C   UNL     1      -2.642  12.545  19.945  0.00  0.00    +0.000 C 
ATOM     19  N   UNL     1      -2.503  11.684  18.802  0.00  0.00    +0.000 N 
ATOM     20  C   UNL     1      -3.435  11.477  17.833  0.00  0.00    +0.000 A 
ATOM     21  N   UNL     1      -2.943  10.676  16.917  0.00  0.00    +0.000 NA
ATOM     22  N   UNL     1      -1.659  10.355  17.291  0.00  0.00    +0.000 NA
ATOM     23  C   UNL     1      -1.397  10.964  18.432  0.00  0.00    +0.000 A 
ENDBRANCH  17  23
ENDBRANCH  15  17
ENDBRANCH  11  15
ENDBRANCH   1  14
BRANCH   8  24
ATOM     24  C   UNL     1       1.667   3.444  20.977  0.00  0.00    +0.000 C 
ATOM     25  F   UNL     1       0.498   4.108  20.762  0.00  0.00    +0.000 F 
ATOM     26  F   UNL     1       1.317   2.241  21.509  0.00  0.00    +0.000 F 
ATOM     27  F   UNL     1       2.304   4.122  21.970  0.00  0.00    +0.000 F 
ENDBRANCH   8  24
TORSDOF 5
ENDMDL
MODEL 5
REMARK VINA RESULT:      -7.9      5.618      8.752
REMARK  Name = 
REMARK  6 active torsions:
REMARK  status: ('A' for Active; 'I' for Inactive)
REMARK    1  A    between atoms: C_1  and  N_2
REMARK    2  A    between atoms: C_6  and  C_7
REMARK    3  A    between atoms: C_7  and  N_8
REMARK    4  A    between atoms: N_8  and  C_9
REMARK    5  A    between atoms: C_12  and  N_13
REMARK    6  A    between atoms: C_20  and  C_21
REMARK                            x       y       z     vdW  Elec       q    Type
REMARK                         _______ _______ _______ _____ _____    ______ ____
ROOT
ATOM      1  N   UNL     1       4.942   5.730  17.480  0.00  0.00    +0.000 N 
ATOM      2  C   UNL     1       3.943   5.761  18.542  0.00  0.00    +0.000 C 
ATOM      3  C   UNL     1       3.482   4.338  18.627  0.00  0.00    +0.000 A 
ATOM      4  C   UNL     1       4.153   3.580  17.664  0.00  0.00    +0.000 A 
ATOM      5  C   UNL     1       3.923   2.231  17.474  0.00  0.00    +0.000 A 
ATOM      6  C   UNL     1       2.991   1.615  18.306  0.00  0.00    +0.000 A 
ATOM      7  C   UNL     1       2.317   2.358  19.294  0.00  0.00    +0.000 A 
ATOM      8  C   UNL     1       2.547   3.739  19.468  0.00  0.00    +0.000 A 
ATOM      9  C   UNL     1       5.085   4.451  16.942  0.00  0.00    +0.000 C 
ATOM     10  O   UNL     1       5.813   4.073  16.043  0.00  0.00    +0.000 OA
ENDROOT
BRANCH   1  14
ATOM     11  C   UNL     1       7.740   8.295  17.520  0.00  0.00    +0.000 C 
ATOM     12  C   UNL     1       7.704   7.237  18.398  0.00  0.00    +0.000 C 
ATOM     13  C   UNL     1       6.730   7.306  17.506  0.00  0.00    +0.000 C 
ATOM     14  C   UNL     1       5.619   6.828  16.996  0.00  0.00    +0.000 C 
BRANCH  11  15
ATOM     15  N   UNL     1       8.856   8.993  17.864  0.00  0.00    +0.000 N 
ATOM     16  H   UNL     1       9.634   8.977  17.206  0.00  0.00    +0.000 HD
BRANCH  15  17
ATOM     17  C   UNL     1       8.870  10.169  18.721  0.00  0.00    +0.000 C 
BRANCH  17  23
ATOM     18  C   UNL     1       7.952  12.788  17.348  0.00  0.00    +0.000 C 
ATOM     19  N   UNL     1       9.314  12.397  17.588  0.00  0.00    +0.000 N 
ATOM     20  C   UNL     1      10.422  13.149  17.344  0.00  0.00    +0.000 A 
ATOM     21  N   UNL     1      11.489  12.496  17.740  0.00  0.00    +0.000 NA
ATOM     22  N   UNL     1      11.072  11.293  18.261  0.00  0.00    +0.000 NA
ATOM     23  C   UNL     1       9.758  11.236  18.166  0.00  0.00    +0.000 A 
ENDBRANCH  17  23
ENDBRANCH  15  17
ENDBRANCH  11  15
ENDBRANCH   1  14
BRANCH   8  24
ATOM     24  C   UNL     1       1.798   4.491  20.537  0.00  0.00    +0.000 C 
ATOM     25  F   UNL     1       0.548   4.004  20.775  0.00  0.00    +0.000 F 
ATOM     26  F   UNL     1       2.440   4.465  21.737  0.00  0.00    +0.000 F 
ATOM     27  F   UNL     1       1.633   5.806  20.228  0.00  0.00    +0.000 F 
ENDBRANCH   8  24
TORSDOF 5
ENDMDL
MODEL 6
REMARK VINA RESULT:      -7.9      5.538      8.411
REMARK  Name = 
REMARK  6 active torsions:
REMARK  status: ('A' for Active; 'I' for Inactive)
REMARK    1  A    between atoms: C_1  and  N_2
REMARK    2  A    between atoms: C_6  and  C_7
REMARK    3  A    between atoms: C_7  and  N_8
REMARK    4  A    between atoms: N_8  and  C_9
REMARK    5  A    between atoms: C_12  and  N_13
REMARK    6  A    between atoms: C_20  and  C_21
REMARK                            x       y       z     vdW  Elec       q    Type
REMARK                         _______ _______ _______ _____ _____    ______ ____
ROOT
ATOM      1  N   UNL     1       4.658   5.790  17.703  0.00  0.00    +0.000 N 
ATOM      2  C   UNL     1       3.708   5.685  18.803  0.00  0.00    +0.000 C 
ATOM      3  C   UNL     1       3.296   4.245  18.771  0.00  0.00    +0.000 A 
ATOM      4  C   UNL     1       3.947   3.606  17.713  0.00  0.00    +0.000 A 
ATOM      5  C   UNL     1       3.751   2.274  17.404  0.00  0.00    +0.000 A 
ATOM      6  C   UNL     1       2.877   1.549  18.210  0.00  0.00    +0.000 A 
ATOM      7  C   UNL     1       2.225   2.170  19.292  0.00  0.00    +0.000 A 
ATOM      8  C   UNL     1       2.419   3.536  19.588  0.00  0.00    +0.000 A 
ATOM      9  C   UNL     1       4.818   4.573  17.039  0.00  0.00    +0.000 C 
ATOM     10  O   UNL     1       5.517   4.308  16.079  0.00  0.00    +0.000 OA
ENDROOT
BRANCH   1  14
ATOM     11  C   UNL     1       7.521   8.283  17.655  0.00  0.00    +0.000 C 
ATOM     12  C   UNL     1       7.606   7.084  18.323  0.00  0.00    +0.000 C 
ATOM     13  C   UNL     1       6.486   7.321  17.662  0.00  0.00    +0.000 C 
ATOM     14  C   UNL     1       5.279   6.952  17.299  0.00  0.00    +0.000 C 
BRANCH  11  15
ATOM     15  N   UNL     1       8.710   8.898  17.895  0.00  0.00    +0.000 N 
ATOM     16  H   UNL     1       9.556   8.358  17.719  0.00  0.00    +0.000 HD
BRANCH  15  17
ATOM     17  C   UNL     1       8.935  10.334  17.814  0.00  0.00    +0.000 C 
BRANCH  17  23
ATOM     18  C   UNL     1      11.582  11.938  17.901  0.00  0.00    +0.000 C 
ATOM     19  N   UNL     1      10.778  11.580  19.037  0.00  0.00    +0.000 N 
ATOM     20  C   UNL     1      10.988  11.964  20.326  0.00  0.00    +0.000 A 
ATOM     21  N   UNL     1      10.025  11.498  21.084  0.00  0.00    +0.000 NA
ATOM     22  N   UNL     1       9.159  10.798  20.275  0.00  0.00    +0.000 NA
ATOM     23  C   UNL     1       9.618  10.848  19.040  0.00  0.00    +0.000 A 
ENDBRANCH  17  23
ENDBRANCH  15  17
ENDBRANCH  11  15
ENDBRANCH   1  14
BRANCH   8  24
ATOM     24  C   UNL     1       1.695   4.156  20.755  0.00  0.00    +0.000 C 
ATOM     25  F   UNL     1       2.523   4.731  21.670  0.00  0.00    +0.000 F 
ATOM     26  F   UNL     1       0.832   5.136  20.369  0.00  0.00    +0.000 F 
ATOM     27  F   UNL     1       0.950   3.250  21.444  0.00  0.00    +0.000 F 
ENDBRANCH   8  24
TORSDOF 5
ENDMDL
MODEL 7
REMARK VINA RESULT:      -7.8      6.194      8.627
REMARK  Name = 
REMARK  6 active torsions:
REMARK  status: ('A' for Active; 'I' for Inactive)
REMARK    1  A    between atoms: C_1  and  N_2
REMARK    2  A    between atoms: C_6  and  C_7
REMARK    3  A    between atoms: C_7  and  N_8
REMARK    4  A    between atoms: N_8  and  C_9
REMARK    5  A    between atoms: C_12  and  N_13
REMARK    6  A    between atoms: C_20  and  C_21
REMARK                            x       y       z     vdW  Elec       q    Type
REMARK                         _______ _______ _______ _____ _____    ______ ____
ROOT
ATOM      1  N   UNL     1       5.853   4.251  16.173  0.00  0.00    +0.000 N 
ATOM      2  C   UNL     1       5.218   3.697  14.984  0.00  0.00    +0.000 C 
ATOM      3  C   UNL     1       6.098   4.168  13.867  0.00  0.00    +0.000 A 
ATOM      4  C   UNL     1       7.128   4.951  14.395  0.00  0.00    +0.000 A 
ATOM      5  C   UNL     1       8.090   5.556  13.610  0.00  0.00    +0.000 A 
ATOM      6  C   UNL     1       8.023   5.346  12.234  0.00  0.00    +0.000 A 
ATOM      7  C   UNL     1       7.003   4.546  11.685  0.00  0.00    +0.000 A 
ATOM      8  C   UNL     1       6.015   3.945  12.495  0.00  0.00    +0.000 A 
ATOM      9  C   UNL     1       6.986   5.000  15.852  0.00  0.00    +0.000 C 
ATOM     10  O   UNL     1       7.740   5.607  16.591  0.00  0.00    +0.000 OA
ENDROOT
BRANCH   1  14
ATOM     11  C   UNL     1       3.883   5.431  19.196  0.00  0.00    +0.000 C 
ATOM     12  C   UNL     1       3.873   6.115  18.003  0.00  0.00    +0.000 C 
ATOM     13  C   UNL     1       4.579   4.998  18.045  0.00  0.00    +0.000 C 
ATOM     14  C   UNL     1       5.372   4.131  17.459  0.00  0.00    +0.000 C 
BRANCH  11  15
ATOM     15  N   UNL     1       3.099   6.170  20.026  0.00  0.00    +0.000 N 
ATOM     16  H   UNL     1       3.210   7.182  19.990  0.00  0.00    +0.000 HD
BRANCH  15  17
ATOM     17  C   UNL     1       1.785   5.767  20.505  0.00  0.00    +0.000 C 
BRANCH  17  23
ATOM     18  C   UNL     1       0.975   3.415  18.661  0.00  0.00    +0.000 C 
ATOM     19  N   UNL     1       1.423   3.301  20.022  0.00  0.00    +0.000 N 
ATOM     20  C   UNL     1       1.658   2.144  20.698  0.00  0.00    +0.000 A 
ATOM     21  N   UNL     1       2.111   2.421  21.897  0.00  0.00    +0.000 NA
ATOM     22  N   UNL     1       2.180   3.791  22.009  0.00  0.00    +0.000 NA
ATOM     23  C   UNL     1       1.761   4.319  20.876  0.00  0.00    +0.000 A 
ENDBRANCH  17  23
ENDBRANCH  15  17
ENDBRANCH  11  15
ENDBRANCH   1  14
BRANCH   8  24
ATOM     24  C   UNL     1       4.942   3.101  11.859  0.00  0.00    +0.000 C 
ATOM     25  F   UNL     1       5.339   1.827  11.585  0.00  0.00    +0.000 F 
ATOM     26  F   UNL     1       3.839   2.983  12.647  0.00  0.00    +0.000 F 
ATOM     27  F   UNL     1       4.507   3.618  10.678  0.00  0.00    +0.000 F 
ENDBRANCH   8  24
TORSDOF 5
ENDMDL
MODEL 8
REMARK VINA RESULT:      -7.8      5.977      8.931
REMARK  Name = 
REMARK  6 active torsions:
REMARK  status: ('A' for Active; 'I' for Inactive)
REMARK    1  A    between atoms: C_1  and  N_2
REMARK    2  A    between atoms: C_6  and  C_7
REMARK    3  A    between atoms: C_7  and  N_8
REMARK    4  A    between atoms: N_8  and  C_9
REMARK    5  A    between atoms: C_12  and  N_13
REMARK    6  A    between atoms: C_20  and  C_21
REMARK                            x       y       z     vdW  Elec       q    Type
REMARK                         _______ _______ _______ _____ _____    ______ ____
ROOT
ATOM      1  N   UNL     1       6.119   5.385  18.462  0.00  0.00    +0.000 N 
ATOM      2  C   UNL     1       4.970   5.542  19.344  0.00  0.00    +0.000 C 
ATOM      3  C   UNL     1       3.940   4.640  18.737  0.00  0.00    +0.000 A 
ATOM      4  C   UNL     1       4.468   4.049  17.587  0.00  0.00    +0.000 A 
ATOM      5  C   UNL     1       3.748   3.185  16.786  0.00  0.00    +0.000 A 
ATOM      6  C   UNL     1       2.444   2.886  17.174  0.00  0.00    +0.000 A 
ATOM      7  C   UNL     1       1.899   3.456  18.340  0.00  0.00    +0.000 A 
ATOM      8  C   UNL     1       2.638   4.352  19.142  0.00  0.00    +0.000 A 
ATOM      9  C   UNL     1       5.849   4.508  17.411  0.00  0.00    +0.000 C 
ATOM     10  O   UNL     1       6.571   4.162  16.495  0.00  0.00    +0.000 OA
ENDROOT
BRANCH   1  14
ATOM     11  C   UNL     1       8.364   8.419  18.053  0.00  0.00    +0.000 C 
ATOM     12  C   UNL     1       7.025   8.452  17.743  0.00  0.00    +0.000 C 
ATOM     13  C   UNL     1       7.497   7.317  18.227  0.00  0.00    +0.000 C 
ATOM     14  C   UNL     1       7.311   6.067  18.583  0.00  0.00    +0.000 C 
BRANCH  11  15
ATOM     15  N   UNL     1       8.822   9.664  17.748  0.00  0.00    +0.000 N 
ATOM     16  H   UNL     1       8.437  10.107  16.915  0.00  0.00    +0.000 HD
BRANCH  15  17
ATOM     17  C   UNL     1       9.320  10.627  18.717  0.00  0.00    +0.000 C 
BRANCH  17  23
ATOM     18  C   UNL     1       8.304  13.409  17.815  0.00  0.00    +0.000 C 
ATOM     19  N   UNL     1       9.653  12.927  17.695  0.00  0.00    +0.000 N 
ATOM     20  C   UNL     1      10.726  13.640  17.257  0.00  0.00    +0.000 A 
ATOM     21  N   UNL     1      11.805  12.898  17.336  0.00  0.00    +0.000 NA
ATOM     22  N   UNL     1      11.433  11.674  17.843  0.00  0.00    +0.000 NA
ATOM     23  C   UNL     1      10.131  11.695  18.056  0.00  0.00    +0.000 A 
ENDBRANCH  17  23
ENDBRANCH  15  17
ENDBRANCH  11  15
ENDBRANCH   1  14
BRANCH   8  24
ATOM     24  C   UNL     1       2.009   4.940  20.377  0.00  0.00    +0.000 C 
ATOM     25  F   UNL     1       0.695   4.616  20.530  0.00  0.00    +0.000 F 
ATOM     26  F   UNL     1       2.626   4.529  21.519  0.00  0.00    +0.000 F 
ATOM     27  F   UNL     1       2.062   6.299  20.390  0.00  0.00    +0.000 F 
ENDBRANCH   8  24
TORSDOF 5
ENDMDL
MODEL 9
REMARK VINA RESULT:      -7.8      4.021      8.142
REMARK  Name = 
REMARK  6 active torsions:
REMARK  status: ('A' for Active; 'I' for Inactive)
REMARK    1  A    between atoms: C_1  and  N_2
REMARK    2  A    between atoms: C_6  and  C_7
REMARK    3  A    between atoms: C_7  and  N_8
REMARK    4  A    between atoms: N_8  and  C_9
REMARK    5  A    between atoms: C_12  and  N_13
REMARK    6  A    between atoms: C_20  and  C_21
REMARK                            x       y       z     vdW  Elec       q    Type
REMARK                         _______ _______ _______ _____ _____    ______ ____
ROOT
ATOM      1  N   UNL     1       1.773   7.926  19.716  0.00  0.00    +0.000 N 
ATOM      2  C   UNL     1       1.613   6.680  20.455  0.00  0.00    +0.000 C 
ATOM      3  C   UNL     1       2.396   5.692  19.644  0.00  0.00    +0.000 A 
ATOM      4  C   UNL     1       2.926   6.337  18.524  0.00  0.00    +0.000 A 
ATOM      5  C   UNL     1       3.676   5.684  17.565  0.00  0.00    +0.000 A 
ATOM      6  C   UNL     1       3.920   4.326  17.755  0.00  0.00    +0.000 A 
ATOM      7  C   UNL     1       3.410   3.662  18.887  0.00  0.00    +0.000 A 
ATOM      8  C   UNL     1       2.630   4.335  19.852  0.00  0.00    +0.000 A 
ATOM      9  C   UNL     1       2.545   7.751  18.567  0.00  0.00    +0.000 C 
ATOM     10  O   UNL     1       2.863   8.570  17.724  0.00  0.00    +0.000 OA
ENDROOT
BRANCH   1  14
ATOM     11  C   UNL     1      -0.302  10.201  21.936  0.00  0.00    +0.000 C 
ATOM     12  C   UNL     1       0.023   8.916  22.305  0.00  0.00    +0.000 C 
ATOM     13  C   UNL     1       0.497   9.344  21.147  0.00  0.00    +0.000 C 
ATOM     14  C   UNL     1       1.182   9.126  20.048  0.00  0.00    +0.000 C 
BRANCH  11  15
ATOM     15  N   UNL     1      -1.065  10.672  22.960  0.00  0.00    +0.000 N 
ATOM     16  H   UNL     1      -1.066  10.132  23.824  0.00  0.00    +0.000 HD
BRANCH  15  17
ATOM     17  C   UNL     1      -1.395  12.073  23.173  0.00  0.00    +0.000 C 
BRANCH  17  23
ATOM     18  C   UNL     1      -2.655  13.021  20.509  0.00  0.00    +0.000 C 
ATOM     19  N   UNL     1      -3.371  12.727  21.720  0.00  0.00    +0.000 N 
ATOM     20  C   UNL     1      -4.723  12.723  21.875  0.00  0.00    +0.000 A 
ATOM     21  N   UNL     1      -5.022  12.354  23.098  0.00  0.00    +0.000 NA
ATOM     22  N   UNL     1      -3.841  12.105  23.758  0.00  0.00    +0.000 NA
ATOM     23  C   UNL     1      -2.846  12.335  22.924  0.00  0.00    +0.000 A 
ENDBRANCH  17  23
ENDBRANCH  15  17
ENDBRANCH  11  15
ENDBRANCH   1  14
BRANCH   8  24
ATOM     24  C   UNL     1       2.103   3.580  21.043  0.00  0.00    +0.000 C 
ATOM     25  F   UNL     1       2.596   2.314  21.151  0.00  0.00    +0.000 F 
ATOM     26  F   UNL     1       2.401   4.194  22.221  0.00  0.00    +0.000 F 
ATOM     27  F   UNL     1       0.749   3.451  21.019  0.00  0.00    +0.000 F 
ENDBRANCH   8  24
TORSDOF 5
ENDMDL
