MODEL 1
REMARK VINA RESULT:      -9.0      0.000      0.000
REMARK  Name = 
REMARK  7 active torsions:
REMARK  status: ('A' for Active; 'I' for Inactive)
REMARK    1  A    between atoms: C_1  and  C_2
REMARK    2  A    between atoms: C_8  and  C_9
REMARK    3  A    between atoms: N_15  and  C_16
REMARK    4  A    between atoms: C_16  and  C_17
REMARK    5  A    between atoms: N_24  and  C_25
REMARK    6  A    between atoms: C_25  and  C_26
REMARK    7  A    between atoms: C_25  and  C_27
REMARK                            x       y       z     vdW  Elec       q    Type
REMARK                         _______ _______ _______ _____ _____    ______ ____
ROOT
ATOM      1  C   UNL     1       4.264   4.780  19.433  0.00  0.00    +0.000 C 
ATOM      2  C   UNL     1       4.061   3.240  19.709  0.00  0.00    +0.000 C 
ATOM      3  O   UNL     1       5.003   2.455  19.817  0.00  0.00    +0.000 OA
ATOM      4  N   UNL     1       2.788   2.738  19.776  0.00  0.00    +0.000 N 
ATOM      5  C   UNL     1       1.642   3.600  19.823  0.00  0.00    +0.000 C 
ATOM      6  C   UNL     1       2.009   4.945  20.432  0.00  0.00    +0.000 C 
ATOM      7  N   UNL     1       3.060   5.652  19.673  0.00  0.00    +0.000 NA
ATOM      8  H   UNL     1       2.717   1.736  19.908  0.00  0.00    +0.000 HD
ENDROOT
BRANCH   1  16
ATOM      9  C   UNL     1       7.194   5.647  19.297  0.00  0.00    +0.000 C 
ATOM     10  C   UNL     1       6.441   5.159  18.089  0.00  0.00    +0.000 A 
ATOM     11  C   UNL     1       7.178   4.875  16.924  0.00  0.00    +0.000 A 
ATOM     12  C   UNL     1       6.544   4.381  15.790  0.00  0.00    +0.000 A 
ATOM     13  F   UNL     1       7.274   4.049  14.717  0.00  0.00    +0.000 F 
ATOM     14  C   UNL     1       5.171   4.205  15.766  0.00  0.00    +0.000 A 
ATOM     15  C   UNL     1       4.424   4.470  16.916  0.00  0.00    +0.000 A 
ATOM     16  C   UNL     1       5.047   4.897  18.112  0.00  0.00    +0.000 A 
ENDBRANCH   1  16
BRANCH   7  17
ATOM     17  C   UNL     1       2.554   6.488  18.574  0.00  0.00    +0.000 C 
BRANCH  17  18
ATOM     18  C   UNL     1       2.008   7.850  19.022  0.00  0.00    +0.000 A 
ATOM     19  C   UNL     1       1.817   8.878  18.089  0.00  0.00    +0.000 A 
ATOM     20  N   UNL     1       1.171  10.061  18.294  0.00  0.00    +0.000 NA
ATOM     21  C   UNL     1       0.754  10.218  19.570  0.00  0.00    +0.000 A 
ATOM     22  C   UNL     1       0.998   9.350  20.625  0.00  0.00    +0.000 A 
ATOM     23  C   UNL     1       0.432   9.998  21.744  0.00  0.00    +0.000 A 
ATOM     24  N   UNL     1      -0.211  11.129  21.432  0.00  0.00    +0.000 NA
ATOM     25  N   UNL     1      -0.048  11.221  20.082  0.00  0.00    +0.000 N 
ATOM     26  C   UNL     1       1.655   8.134  20.351  0.00  0.00    +0.000 A 
BRANCH  25  27
ATOM     27  C   UNL     1      -0.870  12.156  19.315  0.00  0.00    +0.000 C 
ATOM     28  C   UNL     1      -2.096  12.582  20.129  0.00  0.00    +0.000 C 
ATOM     29  C   UNL     1      -0.114  13.407  18.844  0.00  0.00    +0.000 C 
ENDBRANCH  25  27
ENDBRANCH  17  18
ENDBRANCH   7  17
TORSDOF 4
ENDMDL
MODEL 2
REMARK VINA RESULT:      -8.5      1.031      1.698
REMARK  Name = 
REMARK  7 active torsions:
REMARK  status: ('A' for Active; 'I' for Inactive)
REMARK    1  A    between atoms: C_1  and  C_2
REMARK    2  A    between atoms: C_8  and  C_9
REMARK    3  A    between atoms: N_15  and  C_16
REMARK    4  A    between atoms: C_16  and  C_17
REMARK    5  A    between atoms: N_24  and  C_25
REMARK    6  A    between atoms: C_25  and  C_26
REMARK    7  A    between atoms: C_25  and  C_27
REMARK                            x       y       z     vdW  Elec       q    Type
REMARK                         _______ _______ _______ _____ _____    ______ ____
ROOT
ATOM      1  C   UNL     1       4.363   4.961  19.426  0.00  0.00    +0.000 C 
ATOM      2  C   UNL     1       4.008   3.429  19.548  0.00  0.00    +0.000 C 
ATOM      3  O   UNL     1       4.868   2.549  19.591  0.00  0.00    +0.000 OA
ATOM      4  N   UNL     1       2.691   3.049  19.550  0.00  0.00    +0.000 N 
ATOM      5  C   UNL     1       1.632   4.009  19.666  0.00  0.00    +0.000 C 
ATOM      6  C   UNL     1       2.112   5.248  20.408  0.00  0.00    +0.000 C 
ATOM      7  N   UNL     1       3.242   5.919  19.735  0.00  0.00    +0.000 NA
ATOM      8  H   UNL     1       2.522   2.050  19.584  0.00  0.00    +0.000 HD
ENDROOT
BRANCH   1  16
ATOM      9  C   UNL     1       7.340   5.663  19.411  0.00  0.00    +0.000 C 
ATOM     10  C   UNL     1       6.589   5.308  18.156  0.00  0.00    +0.000 A 
ATOM     11  C   UNL     1       7.336   5.066  16.988  0.00  0.00    +0.000 A 
ATOM     12  C   UNL     1       6.702   4.693  15.809  0.00  0.00    +0.000 A 
ATOM     13  F   UNL     1       7.437   4.397  14.728  0.00  0.00    +0.000 F 
ATOM     14  C   UNL     1       5.322   4.600  15.745  0.00  0.00    +0.000 A 
ATOM     15  C   UNL     1       4.564   4.824  16.896  0.00  0.00    +0.000 A 
ATOM     16  C   UNL     1       5.182   5.127  18.133  0.00  0.00    +0.000 A 
ENDBRANCH   1  16
BRANCH   7  17
ATOM     17  C   UNL     1       2.843   6.902  18.716  0.00  0.00    +0.000 C 
BRANCH  17  18
ATOM     18  C   UNL     1       1.883   7.982  19.228  0.00  0.00    +0.000 A 
ATOM     19  C   UNL     1       1.536   8.037  20.584  0.00  0.00    +0.000 A 
ATOM     20  N   UNL     1       0.857   9.035  21.217  0.00  0.00    +0.000 NA
ATOM     21  C   UNL     1       0.451  10.011  20.375  0.00  0.00    +0.000 A 
ATOM     22  C   UNL     1       0.600  10.017  18.995  0.00  0.00    +0.000 A 
ATOM     23  C   UNL     1      -0.054  11.198  18.581  0.00  0.00    +0.000 A 
ATOM     24  N   UNL     1      -0.494  11.944  19.601  0.00  0.00    +0.000 NA
ATOM     25  N   UNL     1      -0.128  11.223  20.698  0.00  0.00    +0.000 N 
ATOM     26  C   UNL     1       1.326   8.967  18.397  0.00  0.00    +0.000 A 
BRANCH  25  27
ATOM     27  C   UNL     1      -0.153  11.852  22.019  0.00  0.00    +0.000 C 
ATOM     28  C   UNL     1      -0.236  13.376  21.884  0.00  0.00    +0.000 C 
ATOM     29  C   UNL     1      -1.293  11.360  22.921  0.00  0.00    +0.000 C 
ENDBRANCH  25  27
ENDBRANCH  17  18
ENDBRANCH   7  17
TORSDOF 4
ENDMDL
MODEL 3
REMARK VINA RESULT:      -8.4      0.699      1.481
REMARK  Name = 
REMARK  7 active torsions:
REMARK  status: ('A' for Active; 'I' for Inactive)
REMARK    1  A    between atoms: C_1  and  C_2
REMARK    2  A    between atoms: C_8  and  C_9
REMARK    3  A    between atoms: N_15  and  C_16
REMARK    4  A    between atoms: C_16  and  C_17
REMARK    5  A    between atoms: N_24  and  C_25
REMARK    6  A    between atoms: C_25  and  C_26
REMARK    7  A    between atoms: C_25  and  C_27
REMARK                            x       y       z     vdW  Elec       q    Type
REMARK                         _______ _______ _______ _____ _____    ______ ____
ROOT
ATOM      1  C   UNL     1       4.390   4.358  19.589  0.00  0.00    +0.000 C 
ATOM      2  C   UNL     1       4.023   2.883  20.010  0.00  0.00    +0.000 C 
ATOM      3  O   UNL     1       4.877   2.021  20.223  0.00  0.00    +0.000 OA
ATOM      4  N   UNL     1       2.704   2.521  20.087  0.00  0.00    +0.000 N 
ATOM      5  C   UNL     1       1.653   3.494  20.015  0.00  0.00    +0.000 C 
ATOM      6  C   UNL     1       2.145   4.850  20.500  0.00  0.00    +0.000 C 
ATOM      7  N   UNL     1       3.278   5.367  19.706  0.00  0.00    +0.000 NA
ATOM      8  H   UNL     1       2.527   1.549  20.316  0.00  0.00    +0.000 HD
ENDROOT
BRANCH   1  16
ATOM      9  C   UNL     1       3.240   3.277  16.970  0.00  0.00    +0.000 C 
ATOM     10  C   UNL     1       4.609   3.894  17.055  0.00  0.00    +0.000 A 
ATOM     11  C   UNL     1       5.275   4.191  15.850  0.00  0.00    +0.000 A 
ATOM     12  C   UNL     1       6.523   4.799  15.864  0.00  0.00    +0.000 A 
ATOM     13  F   UNL     1       7.107   5.138  14.706  0.00  0.00    +0.000 F 
ATOM     14  C   UNL     1       7.161   5.082  17.060  0.00  0.00    +0.000 A 
ATOM     15  C   UNL     1       6.513   4.807  18.266  0.00  0.00    +0.000 A 
ATOM     16  C   UNL     1       5.207   4.261  18.288  0.00  0.00    +0.000 A 
ENDBRANCH   1  16
BRANCH   7  17
ATOM     17  C   UNL     1       2.884   6.135  18.516  0.00  0.00    +0.000 C 
BRANCH  17  18
ATOM     18  C   UNL     1       2.301   7.519  18.826  0.00  0.00    +0.000 A 
ATOM     19  C   UNL     1       2.197   8.486  17.818  0.00  0.00    +0.000 A 
ATOM     20  N   UNL     1       1.537   9.677  17.889  0.00  0.00    +0.000 NA
ATOM     21  C   UNL     1       1.006   9.911  19.109  0.00  0.00    +0.000 A 
ATOM     22  C   UNL     1       1.151   9.112  20.234  0.00  0.00    +0.000 A 
ATOM     23  C   UNL     1       0.487   9.825  21.255  0.00  0.00    +0.000 A 
ATOM     24  N   UNL     1      -0.124  10.931  20.815  0.00  0.00    +0.000 NA
ATOM     25  N   UNL     1       0.162  10.940  19.483  0.00  0.00    +0.000 N 
ATOM     26  C   UNL     1       1.829   7.883  20.097  0.00  0.00    +0.000 A 
BRANCH  25  27
ATOM     27  C   UNL     1      -0.586  11.822  18.588  0.00  0.00    +0.000 C 
ATOM     28  C   UNL     1      -2.070  11.442  18.579  0.00  0.00    +0.000 C 
ATOM     29  C   UNL     1      -0.447  13.314  18.924  0.00  0.00    +0.000 C 
ENDBRANCH  25  27
ENDBRANCH  17  18
ENDBRANCH   7  17
TORSDOF 4
ENDMDL
MODEL 4
REMARK VINA RESULT:      -8.2      1.072      1.703
REMARK  Name = 
REMARK  7 active torsions:
REMARK  status: ('A' for Active; 'I' for Inactive)
REMARK    1  A    between atoms: C_1  and  C_2
REMARK    2  A    between atoms: C_8  and  C_9
REMARK    3  A    between atoms: N_15  and  C_16
REMARK    4  A    between atoms: C_16  and  C_17
REMARK    5  A    between atoms: N_24  and  C_25
REMARK    6  A    between atoms: C_25  and  C_26
REMARK    7  A    between atoms: C_25  and  C_27
REMARK                            x       y       z     vdW  Elec       q    Type
REMARK                         _______ _______ _______ _____ _____    ______ ____
ROOT
ATOM      1  C   UNL     1       4.039   4.174  19.696  0.00  0.00    +0.000 C 
ATOM      2  C   UNL     1       3.951   2.604  19.572  0.00  0.00    +0.000 C 
ATOM      3  O   UNL     1       4.881   1.859  19.887  0.00  0.00    +0.000 OA
ATOM      4  N   UNL     1       2.821   2.040  19.042  0.00  0.00    +0.000 N 
ATOM      5  C   UNL     1       1.637   2.813  18.803  0.00  0.00    +0.000 C 
ATOM      6  C   UNL     1       1.574   4.002  19.751  0.00  0.00    +0.000 C 
ATOM      7  N   UNL     1       2.729   4.911  19.610  0.00  0.00    +0.000 NA
ATOM      8  H   UNL     1       2.838   1.031  18.943  0.00  0.00    +0.000 HD
ENDROOT
BRANCH   1  16
ATOM      9  C   UNL     1       4.139   3.808  16.661  0.00  0.00    +0.000 C 
ATOM     10  C   UNL     1       5.191   4.575  17.415  0.00  0.00    +0.000 A 
ATOM     11  C   UNL     1       6.111   5.337  16.672  0.00  0.00    +0.000 A 
ATOM     12  C   UNL     1       7.079   6.099  17.313  0.00  0.00    +0.000 A 
ATOM     13  F   UNL     1       7.899   6.874  16.589  0.00  0.00    +0.000 F 
ATOM     14  C   UNL     1       7.191   6.087  18.694  0.00  0.00    +0.000 A 
ATOM     15  C   UNL     1       6.280   5.347  19.450  0.00  0.00    +0.000 A 
ATOM     16  C   UNL     1       5.232   4.623  18.833  0.00  0.00    +0.000 A 
ENDBRANCH   1  16
BRANCH   7  17
ATOM     17  C   UNL     1       2.561   5.949  18.582  0.00  0.00    +0.000 C 
BRANCH  17  18
ATOM     18  C   UNL     1       2.144   7.318  19.134  0.00  0.00    +0.000 A 
ATOM     19  C   UNL     1       1.987   8.412  18.273  0.00  0.00    +0.000 A 
ATOM     20  N   UNL     1       1.446   9.625  18.579  0.00  0.00    +0.000 NA
ATOM     21  C   UNL     1       1.105   9.735  19.882  0.00  0.00    +0.000 A 
ATOM     22  C   UNL     1       1.333   8.790  20.872  0.00  0.00    +0.000 A 
ATOM     23  C   UNL     1       0.874   9.408  22.055  0.00  0.00    +0.000 A 
ATOM     24  N   UNL     1       0.305  10.600  21.841  0.00  0.00    +0.000 NA
ATOM     25  N   UNL     1       0.409  10.762  20.492  0.00  0.00    +0.000 N 
ATOM     26  C   UNL     1       1.880   7.546  20.494  0.00  0.00    +0.000 A 
BRANCH  25  27
ATOM     27  C   UNL     1      -0.375  11.800  19.824  0.00  0.00    +0.000 C 
ATOM     28  C   UNL     1      -1.520  12.270  20.727  0.00  0.00    +0.000 C 
ATOM     29  C   UNL     1       0.452  13.016  19.380  0.00  0.00    +0.000 C 
ENDBRANCH  25  27
ENDBRANCH  17  18
ENDBRANCH   7  17
TORSDOF 4
ENDMDL
MODEL 5
REMARK VINA RESULT:      -8.2      1.427      2.074
REMARK  Name = 
REMARK  7 active torsions:
REMARK  status: ('A' for Active; 'I' for Inactive)
REMARK    1  A    between atoms: C_1  and  C_2
REMARK    2  A    between atoms: C_8  and  C_9
REMARK    3  A    between atoms: N_15  and  C_16
REMARK    4  A    between atoms: C_16  and  C_17
REMARK    5  A    between atoms: N_24  and  C_25
REMARK    6  A    between atoms: C_25  and  C_26
REMARK    7  A    between atoms: C_25  and  C_27
REMARK                            x       y       z     vdW  Elec       q    Type
REMARK                         _______ _______ _______ _____ _____    ______ ____
ROOT
ATOM      1  C   UNL     1       4.289   4.413  18.128  0.00  0.00    +0.000 C 
ATOM      2  C   UNL     1       3.600   3.053  17.722  0.00  0.00    +0.000 C 
ATOM      3  O   UNL     1       4.242   2.036  17.457  0.00  0.00    +0.000 OA
ATOM      4  N   UNL     1       2.235   3.008  17.601  0.00  0.00    +0.000 N 
ATOM      5  C   UNL     1       1.406   4.091  18.045  0.00  0.00    +0.000 C 
ATOM      6  C   UNL     1       2.089   4.866  19.163  0.00  0.00    +0.000 C 
ATOM      7  N   UNL     1       3.385   5.444  18.752  0.00  0.00    +0.000 NA
ATOM      8  H   UNL     1       1.850   2.123  17.292  0.00  0.00    +0.000 HD
ENDROOT
BRANCH   1  16
ATOM      9  C   UNL     1       7.200   5.263  18.527  0.00  0.00    +0.000 C 
ATOM     10  C   UNL     1       6.600   5.056  17.162  0.00  0.00    +0.000 A 
ATOM     11  C   UNL     1       7.471   5.025  16.057  0.00  0.00    +0.000 A 
ATOM     12  C   UNL     1       6.981   4.796  14.777  0.00  0.00    +0.000 A 
ATOM     13  F   UNL     1       7.836   4.699  13.750  0.00  0.00    +0.000 F 
ATOM     14  C   UNL     1       5.623   4.641  14.555  0.00  0.00    +0.000 A 
ATOM     15  C   UNL     1       4.744   4.656  15.640  0.00  0.00    +0.000 A 
ATOM     16  C   UNL     1       5.217   4.808  16.965  0.00  0.00    +0.000 A 
ENDBRANCH   1  16
BRANCH   7  17
ATOM     17  C   UNL     1       3.286   6.773  18.133  0.00  0.00    +0.000 C 
BRANCH  17  18
ATOM     18  C   UNL     1       2.265   7.703  18.802  0.00  0.00    +0.000 A 
ATOM     19  C   UNL     1       1.969   7.567  20.164  0.00  0.00    +0.000 A 
ATOM     20  N   UNL     1       1.240   8.424  20.935  0.00  0.00    +0.000 NA
ATOM     21  C   UNL     1       0.727   9.456  20.230  0.00  0.00    +0.000 A 
ATOM     22  C   UNL     1       0.820   9.639  18.858  0.00  0.00    +0.000 A 
ATOM     23  C   UNL     1       0.060  10.803  18.611  0.00  0.00    +0.000 A 
ATOM     24  N   UNL     1      -0.396  11.383  19.726  0.00  0.00    +0.000 NA
ATOM     25  N   UNL     1       0.068  10.570  20.716  0.00  0.00    +0.000 N 
ATOM     26  C   UNL     1       1.601   8.731  18.114  0.00  0.00    +0.000 A 
BRANCH  25  27
ATOM     27  C   UNL     1       0.047  11.033  22.104  0.00  0.00    +0.000 C 
ATOM     28  C   UNL     1      -0.549  12.442  22.189  0.00  0.00    +0.000 C 
ATOM     29  C   UNL     1      -0.713  10.102  23.059  0.00  0.00    +0.000 C 
ENDBRANCH  25  27
ENDBRANCH  17  18
ENDBRANCH   7  17
TORSDOF 4
ENDMDL
MODEL 6
REMARK VINA RESULT:      -7.9      1.278      1.814
REMARK  Name = 
REMARK  7 active torsions:
REMARK  status: ('A' for Active; 'I' for Inactive)
REMARK    1  A    between atoms: C_1  and  C_2
REMARK    2  A    between atoms: C_8  and  C_9
REMARK    3  A    between atoms: N_15  and  C_16
REMARK    4  A    between atoms: C_16  and  C_17
REMARK    5  A    between atoms: N_24  and  C_25
REMARK    6  A    between atoms: C_25  and  C_26
REMARK    7  A    between atoms: C_25  and  C_27
REMARK                            x       y       z     vdW  Elec       q    Type
REMARK                         _______ _______ _______ _____ _____    ______ ____
ROOT
ATOM      1  C   UNL     1       4.375   5.195  19.256  0.00  0.00    +0.000 C 
ATOM      2  C   UNL     1       4.186   3.687  19.677  0.00  0.00    +0.000 C 
ATOM      3  O   UNL     1       5.134   2.914  19.822  0.00  0.00    +0.000 OA
ATOM      4  N   UNL     1       2.918   3.193  19.835  0.00  0.00    +0.000 N 
ATOM      5  C   UNL     1       1.772   4.055  19.844  0.00  0.00    +0.000 C 
ATOM      6  C   UNL     1       2.156   5.451  20.316  0.00  0.00    +0.000 C 
ATOM      7  N   UNL     1       3.177   6.086  19.459  0.00  0.00    +0.000 NA
ATOM      8  H   UNL     1       2.855   2.207  20.060  0.00  0.00    +0.000 HD
ENDROOT
BRANCH   1  16
ATOM      9  C   UNL     1       7.333   5.916  18.959  0.00  0.00    +0.000 C 
ATOM     10  C   UNL     1       6.513   5.387  17.813  0.00  0.00    +0.000 A 
ATOM     11  C   UNL     1       7.190   4.996  16.643  0.00  0.00    +0.000 A 
ATOM     12  C   UNL     1       6.492   4.461  15.567  0.00  0.00    +0.000 A 
ATOM     13  F   UNL     1       7.164   4.028  14.492  0.00  0.00    +0.000 F 
ATOM     14  C   UNL     1       5.112   4.347  15.604  0.00  0.00    +0.000 A 
ATOM     15  C   UNL     1       4.423   4.719  16.760  0.00  0.00    +0.000 A 
ATOM     16  C   UNL     1       5.110   5.192  17.903  0.00  0.00    +0.000 A 
ENDBRANCH   1  16
BRANCH   7  17
ATOM     17  C   UNL     1       2.630   6.819  18.308  0.00  0.00    +0.000 C 
BRANCH  17  18
ATOM     18  C   UNL     1       2.059   8.199  18.656  0.00  0.00    +0.000 A 
ATOM     19  C   UNL     1       1.297   8.377  19.818  0.00  0.00    +0.000 A 
ATOM     20  N   UNL     1       0.887   9.561  20.356  0.00  0.00    +0.000 NA
ATOM     21  C   UNL     1       1.233  10.628  19.602  0.00  0.00    +0.000 A 
ATOM     22  C   UNL     1       1.860  10.590  18.365  0.00  0.00    +0.000 A 
ATOM     23  C   UNL     1       1.922  11.942  17.965  0.00  0.00    +0.000 A 
ATOM     24  N   UNL     1       1.475  12.790  18.898  0.00  0.00    +0.000 NA
ATOM     25  N   UNL     1       1.104  11.968  19.919  0.00  0.00    +0.000 N 
ATOM     26  C   UNL     1       2.276   9.339  17.866  0.00  0.00    +0.000 A 
BRANCH  25  27
ATOM     27  C   UNL     1       0.853  12.528  21.247  0.00  0.00    +0.000 C 
ATOM     28  C   UNL     1       1.324  13.985  21.310  0.00  0.00    +0.000 C 
ATOM     29  C   UNL     1      -0.616  12.450  21.688  0.00  0.00    +0.000 C 
ENDBRANCH  25  27
ENDBRANCH  17  18
ENDBRANCH   7  17
TORSDOF 4
ENDMDL
MODEL 7
REMARK VINA RESULT:      -7.8      2.520      3.838
REMARK  Name = 
REMARK  7 active torsions:
REMARK  status: ('A' for Active; 'I' for Inactive)
REMARK    1  A    between atoms: C_1  and  C_2
REMARK    2  A    between atoms: C_8  and  C_9
REMARK    3  A    between atoms: N_15  and  C_16
REMARK    4  A    between atoms: C_16  and  C_17
REMARK    5  A    between atoms: N_24  and  C_25
REMARK    6  A    between atoms: C_25  and  C_26
REMARK    7  A    between atoms: C_25  and  C_27
REMARK                            x       y       z     vdW  Elec       q    Type
REMARK                         _______ _______ _______ _____ _____    ______ ____
ROOT
ATOM      1  C   UNL     1       3.285   4.528  17.558  0.00  0.00    +0.000 C 
ATOM      2  C   UNL     1       4.483   3.696  16.955  0.00  0.00    +0.000 C 
ATOM      3  O   UNL     1       4.335   2.570  16.478  0.00  0.00    +0.000 OA
ATOM      4  N   UNL     1       5.749   4.215  17.011  0.00  0.00    +0.000 N 
ATOM      5  C   UNL     1       5.987   5.576  17.398  0.00  0.00    +0.000 C 
ATOM      6  C   UNL     1       4.776   6.442  17.080  0.00  0.00    +0.000 C 
ATOM      7  N   UNL     1       3.552   5.994  17.775  0.00  0.00    +0.000 NA
ATOM      8  H   UNL     1       6.486   3.618  16.652  0.00  0.00    +0.000 HD
ENDROOT
BRANCH   1  16
ATOM      9  C   UNL     1       4.951   3.339  19.830  0.00  0.00    +0.000 C 
ATOM     10  C   UNL     1       3.449   3.265  19.808  0.00  0.00    +0.000 A 
ATOM     11  C   UNL     1       2.792   2.845  20.980  0.00  0.00    +0.000 A 
ATOM     12  C   UNL     1       1.405   2.797  21.035  0.00  0.00    +0.000 A 
ATOM     13  F   UNL     1       0.799   2.464  22.183  0.00  0.00    +0.000 F 
ATOM     14  C   UNL     1       0.640   3.113  19.924  0.00  0.00    +0.000 A 
ATOM     15  C   UNL     1       1.272   3.543  18.755  0.00  0.00    +0.000 A 
ATOM     16  C   UNL     1       2.679   3.680  18.691  0.00  0.00    +0.000 A 
ENDBRANCH   1  16
BRANCH   7  17
ATOM     17  C   UNL     1       3.379   6.559  19.121  0.00  0.00    +0.000 C 
BRANCH  17  18
ATOM     18  C   UNL     1       2.427   7.760  19.181  0.00  0.00    +0.000 A 
ATOM     19  C   UNL     1       2.170   8.518  18.032  0.00  0.00    +0.000 A 
ATOM     20  N   UNL     1       1.218   9.482  17.881  0.00  0.00    +0.000 NA
ATOM     21  C   UNL     1       0.530   9.723  19.019  0.00  0.00    +0.000 A 
ATOM     22  C   UNL     1       0.772   9.151  20.260  0.00  0.00    +0.000 A 
ATOM     23  C   UNL     1      -0.150   9.786  21.120  0.00  0.00    +0.000 A 
ATOM     24  N   UNL     1      -0.985  10.614  20.482  0.00  0.00    +0.000 NA
ATOM     25  N   UNL     1      -0.585  10.523  19.182  0.00  0.00    +0.000 N 
ATOM     26  C   UNL     1       1.758   8.148  20.352  0.00  0.00    +0.000 A 
BRANCH  25  27
ATOM     27  C   UNL     1      -1.449  11.040  18.121  0.00  0.00    +0.000 C 
ATOM     28  C   UNL     1      -2.109   9.887  17.358  0.00  0.00    +0.000 C 
ATOM     29  C   UNL     1      -2.535  12.006  18.618  0.00  0.00    +0.000 C 
ENDBRANCH  25  27
ENDBRANCH  17  18
ENDBRANCH   7  17
TORSDOF 4
ENDMDL
MODEL 8
REMARK VINA RESULT:      -7.8      1.155      2.172
REMARK  Name = 
REMARK  7 active torsions:
REMARK  status: ('A' for Active; 'I' for Inactive)
REMARK    1  A    between atoms: C_1  and  C_2
REMARK    2  A    between atoms: C_8  and  C_9
REMARK    3  A    between atoms: N_15  and  C_16
REMARK    4  A    between atoms: C_16  and  C_17
REMARK    5  A    between atoms: N_24  and  C_25
REMARK    6  A    between atoms: C_25  and  C_26
REMARK    7  A    between atoms: C_25  and  C_27
REMARK                            x       y       z     vdW  Elec       q    Type
REMARK                         _______ _______ _______ _____ _____    ______ ____
ROOT
ATOM      1  C   UNL     1       4.560   4.293  19.559  0.00  0.00    +0.000 C 
ATOM      2  C   UNL     1       4.091   2.826  19.900  0.00  0.00    +0.000 C 
ATOM      3  O   UNL     1       4.879   1.888  20.022  0.00  0.00    +0.000 OA
ATOM      4  N   UNL     1       2.750   2.565  20.010  0.00  0.00    +0.000 N 
ATOM      5  C   UNL     1       1.780   3.620  20.045  0.00  0.00    +0.000 C 
ATOM      6  C   UNL     1       2.398   4.898  20.594  0.00  0.00    +0.000 C 
ATOM      7  N   UNL     1       3.539   5.376  19.788  0.00  0.00    +0.000 NA
ATOM      8  H   UNL     1       2.504   1.597  20.184  0.00  0.00    +0.000 HD
ENDROOT
BRANCH   1  16
ATOM      9  C   UNL     1       3.260   3.366  16.951  0.00  0.00    +0.000 C 
ATOM     10  C   UNL     1       4.655   3.927  17.001  0.00  0.00    +0.000 A 
ATOM     11  C   UNL     1       5.281   4.248  15.782  0.00  0.00    +0.000 A 
ATOM     12  C   UNL     1       6.552   4.808  15.766  0.00  0.00    +0.000 A 
ATOM     13  F   UNL     1       7.100   5.173  14.598  0.00  0.00    +0.000 F 
ATOM     14  C   UNL     1       7.250   5.017  16.944  0.00  0.00    +0.000 A 
ATOM     15  C   UNL     1       6.642   4.717  18.165  0.00  0.00    +0.000 A 
ATOM     16  C   UNL     1       5.318   4.220  18.221  0.00  0.00    +0.000 A 
ENDBRANCH   1  16
BRANCH   7  17
ATOM     17  C   UNL     1       3.164   6.251  18.666  0.00  0.00    +0.000 C 
BRANCH  17  18
ATOM     18  C   UNL     1       2.258   7.424  19.060  0.00  0.00    +0.000 A 
ATOM     19  C   UNL     1       1.837   7.579  20.387  0.00  0.00    +0.000 A 
ATOM     20  N   UNL     1       1.198   8.658  20.924  0.00  0.00    +0.000 NA
ATOM     21  C   UNL     1       0.917   9.611  20.008  0.00  0.00    +0.000 A 
ATOM     22  C   UNL     1       1.147   9.529  18.642  0.00  0.00    +0.000 A 
ATOM     23  C   UNL     1       0.608  10.728  18.127  0.00  0.00    +0.000 A 
ATOM     24  N   UNL     1       0.165  11.559  19.077  0.00  0.00    +0.000 NA
ATOM     25  N   UNL     1       0.411  10.878  20.231  0.00  0.00    +0.000 N 
ATOM     26  C   UNL     1       1.826   8.398  18.146  0.00  0.00    +0.000 A 
BRANCH  25  27
ATOM     27  C   UNL     1       0.356  11.580  21.513  0.00  0.00    +0.000 C 
ATOM     28  C   UNL     1       0.366  13.096  21.293  0.00  0.00    +0.000 C 
ATOM     29  C   UNL     1      -0.855  11.201  22.378  0.00  0.00    +0.000 C 
ENDBRANCH  25  27
ENDBRANCH  17  18
ENDBRANCH   7  17
TORSDOF 4
ENDMDL
MODEL 9
REMARK VINA RESULT:      -7.6      1.336      2.327
REMARK  Name = 
REMARK  7 active torsions:
REMARK  status: ('A' for Active; 'I' for Inactive)
REMARK    1  A    between atoms: C_1  and  C_2
REMARK    2  A    between atoms: C_8  and  C_9
REMARK    3  A    between atoms: N_15  and  C_16
REMARK    4  A    between atoms: C_16  and  C_17
REMARK    5  A    between atoms: N_24  and  C_25
REMARK    6  A    between atoms: C_25  and  C_26
REMARK    7  A    between atoms: C_25  and  C_27
REMARK                            x       y       z     vdW  Elec       q    Type
REMARK                         _______ _______ _______ _____ _____    ______ ____
ROOT
ATOM      1  C   UNL     1       4.257   4.566  19.825  0.00  0.00    +0.000 C 
ATOM      2  C   UNL     1       3.963   3.028  19.637  0.00  0.00    +0.000 C 
ATOM      3  O   UNL     1       4.818   2.160  19.820  0.00  0.00    +0.000 OA
ATOM      4  N   UNL     1       2.725   2.635  19.198  0.00  0.00    +0.000 N 
ATOM      5  C   UNL     1       1.630   3.557  19.116  0.00  0.00    +0.000 C 
ATOM      6  C   UNL     1       1.806   4.687  20.121  0.00  0.00    +0.000 C 
ATOM      7  N   UNL     1       3.047   5.458  19.907  0.00  0.00    +0.000 NA
ATOM      8  H   UNL     1       2.607   1.639  19.050  0.00  0.00    +0.000 HD
ENDROOT
BRANCH   1  16
ATOM      9  C   UNL     1       4.076   4.224  16.791  0.00  0.00    +0.000 C 
ATOM     10  C   UNL     1       5.248   4.889  17.458  0.00  0.00    +0.000 A 
ATOM     11  C   UNL     1       6.167   5.577  16.644  0.00  0.00    +0.000 A 
ATOM     12  C   UNL     1       7.247   6.247  17.206  0.00  0.00    +0.000 A 
ATOM     13  F   UNL     1       8.068   6.956  16.419  0.00  0.00    +0.000 F 
ATOM     14  C   UNL     1       7.470   6.211  18.572  0.00  0.00    +0.000 A 
ATOM     15  C   UNL     1       6.563   5.544  19.399  0.00  0.00    +0.000 A 
ATOM     16  C   UNL     1       5.410   4.919  18.868  0.00  0.00    +0.000 A 
ENDBRANCH   1  16
BRANCH   7  17
ATOM     17  C   UNL     1       2.913   6.568  18.952  0.00  0.00    +0.000 C 
BRANCH  17  18
ATOM     18  C   UNL     1       1.958   7.678  19.408  0.00  0.00    +0.000 A 
ATOM     19  C   UNL     1       1.536   7.745  20.743  0.00  0.00    +0.000 A 
ATOM     20  N   UNL     1       0.853   8.765  21.336  0.00  0.00    +0.000 NA
ATOM     21  C   UNL     1       0.525   9.751  20.471  0.00  0.00    +0.000 A 
ATOM     22  C   UNL     1       0.751   9.750  19.102  0.00  0.00    +0.000 A 
ATOM     23  C   UNL     1       0.158  10.948  18.652  0.00  0.00    +0.000 A 
ATOM     24  N   UNL     1      -0.317  11.709  19.644  0.00  0.00    +0.000 NA
ATOM     25  N   UNL     1      -0.036  10.981  20.761  0.00  0.00    +0.000 N 
ATOM     26  C   UNL     1       1.478   8.677  18.547  0.00  0.00    +0.000 A 
BRANCH  25  27
ATOM     27  C   UNL     1      -0.116  11.613  22.078  0.00  0.00    +0.000 C 
ATOM     28  C   UNL     1      -0.249  13.132  21.935  0.00  0.00    +0.000 C 
ATOM     29  C   UNL     1      -1.261  11.083  22.953  0.00  0.00    +0.000 C 
ENDBRANCH  25  27
ENDBRANCH  17  18
ENDBRANCH   7  17
TORSDOF 4
ENDMDL
