MODEL 1
REMARK VINA RESULT:      -8.4      0.000      0.000
REMARK  Name = 
REMARK  8 active torsions:
REMARK  status: ('A' for Active; 'I' for Inactive)
REMARK    1  A    between atoms: C_1  and  C_2
REMARK    2  A    between atoms: C_4  and  C_5
REMARK    3  A    between atoms: C_5  and  O_6
REMARK    4  A    between atoms: O_6  and  C_7
REMARK    5  A    between atoms: C_12  and  C_13
REMARK    6  A    between atoms: N_15  and  C_16
REMARK    7  A    between atoms: C_16  and  C_17
REMARK    8  A    between atoms: C_16  and  C_18
REMARK                            x       y       z     vdW  Elec       q    Type
REMARK                         _______ _______ _______ _____ _____    ______ ____
ROOT
ATOM      1  C   UNL     1       2.411   3.933  18.570  0.00  0.00    +0.000 A 
ATOM      2  C   UNL     1       1.936   2.619  18.710  0.00  0.00    +0.000 A 
ATOM      3  C   UNL     1       1.298   2.214  19.884  0.00  0.00    +0.000 A 
ATOM      4  C   UNL     1       1.137   3.117  20.928  0.00  0.00    +0.000 A 
ATOM      5  C   UNL     1       1.566   4.438  20.777  0.00  0.00    +0.000 A 
ATOM      6  C   UNL     1       2.174   4.877  19.585  0.00  0.00    +0.000 A 
ENDROOT
BRANCH   6   7
ATOM      7  C   UNL     1       2.488   6.345  19.489  0.00  0.00    +0.000 C 
ATOM      8  O   UNL     1       3.658   6.712  19.459  0.00  0.00    +0.000 OA
ATOM      9  N   UNL     1       1.439   7.245  19.478  0.00  0.00    +0.000 N 
ATOM     10  H   UNL     1       0.492   6.897  19.375  0.00  0.00    +0.000 HD
BRANCH   9  11
ATOM     11  C   UNL     1       1.660   8.684  19.409  0.00  0.00    +0.000 C 
ATOM     12  C   UNL     1       1.387   9.182  17.985  0.00  0.00    +0.000 C 
BRANCH  11  13
ATOM     13  C   UNL     1       0.873   9.416  20.496  0.00  0.00    +0.000 A 
ATOM     14  C   UNL     1       0.040  10.500  20.147  0.00  0.00    +0.000 A 
ATOM     15  C   UNL     1      -0.730  11.164  21.111  0.00  0.00    +0.000 A 
ATOM     16  C   UNL     1      -0.683  10.748  22.435  0.00  0.00    +0.000 A 
ATOM     17  F   UNL     1      -1.422  11.380  23.358  0.00  0.00    +0.000 F 
ATOM     18  C   UNL     1       0.121   9.679  22.798  0.00  0.00    +0.000 A 
ATOM     19  F   UNL     1       0.160   9.261  24.072  0.00  0.00    +0.000 F 
ATOM     20  C   UNL     1       0.892   9.017  21.845  0.00  0.00    +0.000 A 
ENDBRANCH  11  13
ENDBRANCH   9  11
ENDBRANCH   6   7
BRANCH   1  21
ATOM     21  O   UNL     1       3.066   4.338  17.438  0.00  0.00    +0.000 OA
BRANCH  21  22
ATOM     22  C   UNL     1       4.342   3.718  17.193  0.00  0.00    +0.000 C 
BRANCH  22  26
ATOM     23  C   UNL     1       7.996   6.827  18.410  0.00  0.00    +0.000 C 
ATOM     24  C   UNL     1       6.953   5.790  18.358  0.00  0.00    +0.000 A 
ATOM     25  N   UNL     1       6.104   5.503  17.400  0.00  0.00    +0.000 NA
ATOM     26  C   UNL     1       5.428   4.425  17.930  0.00  0.00    +0.000 A 
ATOM     27  N   UNL     1       5.821   4.066  19.157  0.00  0.00    +0.000 NA
ATOM     28  O   UNL     1       6.837   4.978  19.449  0.00  0.00    +0.000 OA
ENDBRANCH  22  26
ENDBRANCH  21  22
ENDBRANCH   1  21
TORSDOF 6
ENDMDL
MODEL 2
REMARK VINA RESULT:      -8.4      1.875      2.684
REMARK  Name = 
REMARK  8 active torsions:
REMARK  status: ('A' for Active; 'I' for Inactive)
REMARK    1  A    between atoms: C_1  and  C_2
REMARK    2  A    between atoms: C_4  and  C_5
REMARK    3  A    between atoms: C_5  and  O_6
REMARK    4  A    between atoms: O_6  and  C_7
REMARK    5  A    between atoms: C_12  and  C_13
REMARK    6  A    between atoms: N_15  and  C_16
REMARK    7  A    between atoms: C_16  and  C_17
REMARK    8  A    between atoms: C_16  and  C_18
REMARK                            x       y       z     vdW  Elec       q    Type
REMARK                         _______ _______ _______ _____ _____    ______ ____
ROOT
ATOM      1  C   UNL     1       4.214   4.473  18.446  0.00  0.00    +0.000 A 
ATOM      2  C   UNL     1       4.197   3.072  18.358  0.00  0.00    +0.000 A 
ATOM      3  C   UNL     1       2.991   2.381  18.227  0.00  0.00    +0.000 A 
ATOM      4  C   UNL     1       1.794   3.084  18.191  0.00  0.00    +0.000 A 
ATOM      5  C   UNL     1       1.806   4.481  18.232  0.00  0.00    +0.000 A 
ATOM      6  C   UNL     1       3.016   5.198  18.322  0.00  0.00    +0.000 A 
ENDROOT
BRANCH   6   7
ATOM      7  C   UNL     1       2.918   6.698  18.239  0.00  0.00    +0.000 C 
ATOM      8  O   UNL     1       3.654   7.310  17.472  0.00  0.00    +0.000 OA
ATOM      9  N   UNL     1       2.021   7.347  19.066  0.00  0.00    +0.000 N 
ATOM     10  H   UNL     1       1.346   6.798  19.589  0.00  0.00    +0.000 HD
BRANCH   9  11
ATOM     11  C   UNL     1       1.882   8.797  19.063  0.00  0.00    +0.000 C 
ATOM     12  C   UNL     1       1.382   9.266  17.691  0.00  0.00    +0.000 C 
BRANCH  11  13
ATOM     13  C   UNL     1       1.032   9.274  20.242  0.00  0.00    +0.000 A 
ATOM     14  C   UNL     1       1.221   8.701  21.517  0.00  0.00    +0.000 A 
ATOM     15  C   UNL     1       0.491   9.146  22.627  0.00  0.00    +0.000 A 
ATOM     16  C   UNL     1      -0.431  10.173  22.479  0.00  0.00    +0.000 A 
ATOM     17  F   UNL     1      -1.126  10.601  23.542  0.00  0.00    +0.000 F 
ATOM     18  C   UNL     1      -0.625  10.756  21.237  0.00  0.00    +0.000 A 
ATOM     19  F   UNL     1      -1.503  11.759  21.088  0.00  0.00    +0.000 F 
ATOM     20  C   UNL     1       0.094  10.316  20.128  0.00  0.00    +0.000 A 
ENDBRANCH  11  13
ENDBRANCH   9  11
ENDBRANCH   6   7
BRANCH   1  21
ATOM     21  O   UNL     1       5.384   5.164  18.605  0.00  0.00    +0.000 OA
BRANCH  21  22
ATOM     22  C   UNL     1       6.573   4.508  18.127  0.00  0.00    +0.000 C 
BRANCH  22  26
ATOM     23  C   UNL     1       6.511   3.977  13.206  0.00  0.00    +0.000 C 
ATOM     24  C   UNL     1       6.670   4.428  14.599  0.00  0.00    +0.000 A 
ATOM     25  N   UNL     1       6.289   3.853  15.714  0.00  0.00    +0.000 NA
ATOM     26  C   UNL     1       6.756   4.735  16.665  0.00  0.00    +0.000 A 
ATOM     27  N   UNL     1       7.383   5.809  16.173  0.00  0.00    +0.000 NA
ATOM     28  O   UNL     1       7.324   5.610  14.792  0.00  0.00    +0.000 OA
ENDBRANCH  22  26
ENDBRANCH  21  22
ENDBRANCH   1  21
TORSDOF 6
ENDMDL
MODEL 3
REMARK VINA RESULT:      -8.1      1.555      2.046
REMARK  Name = 
REMARK  8 active torsions:
REMARK  status: ('A' for Active; 'I' for Inactive)
REMARK    1  A    between atoms: C_1  and  C_2
REMARK    2  A    between atoms: C_4  and  C_5
REMARK    3  A    between atoms: C_5  and  O_6
REMARK    4  A    between atoms: O_6  and  C_7
REMARK    5  A    between atoms: C_12  and  C_13
REMARK    6  A    between atoms: N_15  and  C_16
REMARK    7  A    between atoms: C_16  and  C_17
REMARK    8  A    between atoms: C_16  and  C_18
REMARK                            x       y       z     vdW  Elec       q    Type
REMARK                         _______ _______ _______ _____ _____    ______ ____
ROOT
ATOM      1  C   UNL     1       4.067   4.680  19.135  0.00  0.00    +0.000 A 
ATOM      2  C   UNL     1       4.097   3.276  19.160  0.00  0.00    +0.000 A 
ATOM      3  C   UNL     1       2.948   2.535  18.878  0.00  0.00    +0.000 A 
ATOM      4  C   UNL     1       1.761   3.190  18.577  0.00  0.00    +0.000 A 
ATOM      5  C   UNL     1       1.735   4.585  18.505  0.00  0.00    +0.000 A 
ATOM      6  C   UNL     1       2.894   5.350  18.744  0.00  0.00    +0.000 A 
ENDROOT
BRANCH   6   7
ATOM      7  C   UNL     1       2.780   6.834  18.524  0.00  0.00    +0.000 C 
ATOM      8  O   UNL     1       3.483   7.375  17.677  0.00  0.00    +0.000 OA
ATOM      9  N   UNL     1       1.907   7.554  19.317  0.00  0.00    +0.000 N 
ATOM     10  H   UNL     1       1.255   7.053  19.913  0.00  0.00    +0.000 HD
BRANCH   9  11
ATOM     11  C   UNL     1       1.754   8.996  19.181  0.00  0.00    +0.000 C 
ATOM     12  C   UNL     1       1.212   9.330  17.786  0.00  0.00    +0.000 C 
BRANCH  11  13
ATOM     13  C   UNL     1       0.931   9.576  20.334  0.00  0.00    +0.000 A 
ATOM     14  C   UNL     1      -0.022  10.584  20.075  0.00  0.00    +0.000 A 
ATOM     15  C   UNL     1      -0.823  11.104  21.099  0.00  0.00    +0.000 A 
ATOM     16  C   UNL     1      -0.688  10.619  22.393  0.00  0.00    +0.000 A 
ATOM     17  F   UNL     1      -1.458  11.113  23.373  0.00  0.00    +0.000 F 
ATOM     18  C   UNL     1       0.235   9.621  22.667  0.00  0.00    +0.000 A 
ATOM     19  F   UNL     1       0.361   9.137  23.911  0.00  0.00    +0.000 F 
ATOM     20  C   UNL     1       1.038   9.103  21.654  0.00  0.00    +0.000 A 
ENDBRANCH  11  13
ENDBRANCH   9  11
ENDBRANCH   6   7
BRANCH   1  21
ATOM     21  O   UNL     1       5.176   5.422  19.438  0.00  0.00    +0.000 OA
BRANCH  21  22
ATOM     22  C   UNL     1       6.441   4.851  19.058  0.00  0.00    +0.000 C 
BRANCH  22  26
ATOM     23  C   UNL     1       6.777   4.646  14.124  0.00  0.00    +0.000 C 
ATOM     24  C   UNL     1       6.838   4.995  15.552  0.00  0.00    +0.000 A 
ATOM     25  N   UNL     1       6.334   4.371  16.589  0.00  0.00    +0.000 NA
ATOM     26  C   UNL     1       6.760   5.162  17.635  0.00  0.00    +0.000 A 
ATOM     27  N   UNL     1       7.479   6.230  17.272  0.00  0.00    +0.000 NA
ATOM     28  O   UNL     1       7.530   6.125  15.880  0.00  0.00    +0.000 OA
ENDBRANCH  22  26
ENDBRANCH  21  22
ENDBRANCH   1  21
TORSDOF 6
ENDMDL
MODEL 4
REMARK VINA RESULT:      -8.1      0.558      1.300
REMARK  Name = 
REMARK  8 active torsions:
REMARK  status: ('A' for Active; 'I' for Inactive)
REMARK    1  A    between atoms: C_1  and  C_2
REMARK    2  A    between atoms: C_4  and  C_5
REMARK    3  A    between atoms: C_5  and  O_6
REMARK    4  A    between atoms: O_6  and  C_7
REMARK    5  A    between atoms: C_12  and  C_13
REMARK    6  A    between atoms: N_15  and  C_16
REMARK    7  A    between atoms: C_16  and  C_17
REMARK    8  A    between atoms: C_16  and  C_18
REMARK                            x       y       z     vdW  Elec       q    Type
REMARK                         _______ _______ _______ _____ _____    ______ ____
ROOT
ATOM      1  C   UNL     1       2.559   3.902  18.609  0.00  0.00    +0.000 A 
ATOM      2  C   UNL     1       2.099   2.578  18.704  0.00  0.00    +0.000 A 
ATOM      3  C   UNL     1       1.425   2.140  19.845  0.00  0.00    +0.000 A 
ATOM      4  C   UNL     1       1.212   3.018  20.901  0.00  0.00    +0.000 A 
ATOM      5  C   UNL     1       1.625   4.349  20.793  0.00  0.00    +0.000 A 
ATOM      6  C   UNL     1       2.270   4.821  19.633  0.00  0.00    +0.000 A 
ENDROOT
BRANCH   6   7
ATOM      7  C   UNL     1       2.565   6.296  19.579  0.00  0.00    +0.000 C 
ATOM      8  O   UNL     1       3.731   6.678  19.557  0.00  0.00    +0.000 OA
ATOM      9  N   UNL     1       1.505   7.182  19.597  0.00  0.00    +0.000 N 
ATOM     10  H   UNL     1       0.562   6.824  19.487  0.00  0.00    +0.000 HD
BRANCH   9  11
ATOM     11  C   UNL     1       1.708   8.624  19.570  0.00  0.00    +0.000 C 
ATOM     12  C   UNL     1       1.551   9.142  18.135  0.00  0.00    +0.000 C 
BRANCH  11  13
ATOM     13  C   UNL     1       0.817   9.327  20.596  0.00  0.00    +0.000 A 
ATOM     14  C   UNL     1       0.796   8.873  21.932  0.00  0.00    +0.000 A 
ATOM     15  C   UNL     1       0.026   9.521  22.906  0.00  0.00    +0.000 A 
ATOM     16  C   UNL     1      -0.726  10.636  22.560  0.00  0.00    +0.000 A 
ATOM     17  F   UNL     1      -1.459  11.260  23.493  0.00  0.00    +0.000 F 
ATOM     18  C   UNL     1      -0.711  11.105  21.256  0.00  0.00    +0.000 A 
ATOM     19  F   UNL     1      -1.422  12.190  20.917  0.00  0.00    +0.000 F 
ATOM     20  C   UNL     1       0.049  10.463  20.281  0.00  0.00    +0.000 A 
ENDBRANCH  11  13
ENDBRANCH   9  11
ENDBRANCH   6   7
BRANCH   1  21
ATOM     21  O   UNL     1       3.248   4.340  17.511  0.00  0.00    +0.000 OA
BRANCH  21  22
ATOM     22  C   UNL     1       4.536   3.735  17.292  0.00  0.00    +0.000 C 
BRANCH  22  26
ATOM     23  C   UNL     1       7.930   7.242  18.117  0.00  0.00    +0.000 C 
ATOM     24  C   UNL     1       7.019   6.087  18.169  0.00  0.00    +0.000 A 
ATOM     25  N   UNL     1       6.088   5.715  17.323  0.00  0.00    +0.000 NA
ATOM     26  C   UNL     1       5.621   4.555  17.902  0.00  0.00    +0.000 A 
ATOM     27  N   UNL     1       6.216   4.225  19.053  0.00  0.00    +0.000 NA
ATOM     28  O   UNL     1       7.148   5.248  19.238  0.00  0.00    +0.000 OA
ENDBRANCH  22  26
ENDBRANCH  21  22
ENDBRANCH   1  21
TORSDOF 6
ENDMDL
MODEL 5
REMARK VINA RESULT:      -8.0      1.063      1.700
REMARK  Name = 
REMARK  8 active torsions:
REMARK  status: ('A' for Active; 'I' for Inactive)
REMARK    1  A    between atoms: C_1  and  C_2
REMARK    2  A    between atoms: C_4  and  C_5
REMARK    3  A    between atoms: C_5  and  O_6
REMARK    4  A    between atoms: O_6  and  C_7
REMARK    5  A    between atoms: C_12  and  C_13
REMARK    6  A    between atoms: N_15  and  C_16
REMARK    7  A    between atoms: C_16  and  C_17
REMARK    8  A    between atoms: C_16  and  C_18
REMARK                            x       y       z     vdW  Elec       q    Type
REMARK                         _______ _______ _______ _____ _____    ______ ____
ROOT
ATOM      1  C   UNL     1       2.443   3.851  18.185  0.00  0.00    +0.000 A 
ATOM      2  C   UNL     1       1.911   2.552  18.148  0.00  0.00    +0.000 A 
ATOM      3  C   UNL     1       1.212   2.037  19.241  0.00  0.00    +0.000 A 
ATOM      4  C   UNL     1       1.047   2.814  20.381  0.00  0.00    +0.000 A 
ATOM      5  C   UNL     1       1.533   4.124  20.407  0.00  0.00    +0.000 A 
ATOM      6  C   UNL     1       2.204   4.676  19.298  0.00  0.00    +0.000 A 
ENDROOT
BRANCH   6   7
ATOM      7  C   UNL     1       2.579   6.130  19.393  0.00  0.00    +0.000 C 
ATOM      8  O   UNL     1       3.743   6.439  19.630  0.00  0.00    +0.000 OA
ATOM      9  N   UNL     1       1.586   7.079  19.247  0.00  0.00    +0.000 N 
ATOM     10  H   UNL     1       0.668   6.787  18.927  0.00  0.00    +0.000 HD
BRANCH   9  11
ATOM     11  C   UNL     1       1.864   8.506  19.347  0.00  0.00    +0.000 C 
ATOM     12  C   UNL     1       1.765   9.151  17.959  0.00  0.00    +0.000 C 
BRANCH  11  13
ATOM     13  C   UNL     1       0.989   9.166  20.414  0.00  0.00    +0.000 A 
ATOM     14  C   UNL     1       1.095   8.754  21.759  0.00  0.00    +0.000 A 
ATOM     15  C   UNL     1       0.342   9.369  22.767  0.00  0.00    +0.000 A 
ATOM     16  C   UNL     1      -0.521  10.407  22.446  0.00  0.00    +0.000 A 
ATOM     17  F   UNL     1      -1.239  10.999  23.412  0.00  0.00    +0.000 F 
ATOM     18  C   UNL     1      -0.633  10.835  21.132  0.00  0.00    +0.000 A 
ATOM     19  F   UNL     1      -1.454  11.847  20.816  0.00  0.00    +0.000 F 
ATOM     20  C   UNL     1       0.109  10.225  20.124  0.00  0.00    +0.000 A 
ENDBRANCH  11  13
ENDBRANCH   9  11
ENDBRANCH   6   7
BRANCH   1  21
ATOM     21  O   UNL     1       3.157   4.360  17.134  0.00  0.00    +0.000 OA
BRANCH  21  22
ATOM     22  C   UNL     1       4.487   3.838  16.964  0.00  0.00    +0.000 C 
BRANCH  22  26
ATOM     23  C   UNL     1       7.887   7.287  17.987  0.00  0.00    +0.000 C 
ATOM     24  C   UNL     1       6.923   6.362  17.369  0.00  0.00    +0.000 A 
ATOM     25  N   UNL     1       6.201   5.415  17.918  0.00  0.00    +0.000 NA
ATOM     26  C   UNL     1       5.482   4.942  16.842  0.00  0.00    +0.000 A 
ATOM     27  N   UNL     1       5.748   5.549  15.680  0.00  0.00    +0.000 NA
ATOM     28  O   UNL     1       6.714   6.496  16.027  0.00  0.00    +0.000 OA
ENDBRANCH  22  26
ENDBRANCH  21  22
ENDBRANCH   1  21
TORSDOF 6
ENDMDL
MODEL 6
REMARK VINA RESULT:      -8.0      1.448      1.691
REMARK  Name = 
REMARK  8 active torsions:
REMARK  status: ('A' for Active; 'I' for Inactive)
REMARK    1  A    between atoms: C_1  and  C_2
REMARK    2  A    between atoms: C_4  and  C_5
REMARK    3  A    between atoms: C_5  and  O_6
REMARK    4  A    between atoms: O_6  and  C_7
REMARK    5  A    between atoms: C_12  and  C_13
REMARK    6  A    between atoms: N_15  and  C_16
REMARK    7  A    between atoms: C_16  and  C_17
REMARK    8  A    between atoms: C_16  and  C_18
REMARK                            x       y       z     vdW  Elec       q    Type
REMARK                         _______ _______ _______ _____ _____    ______ ____
ROOT
ATOM      1  C   UNL     1       3.018   3.863  18.942  0.00  0.00    +0.000 A 
ATOM      2  C   UNL     1       2.627   2.528  19.130  0.00  0.00    +0.000 A 
ATOM      3  C   UNL     1       1.773   2.177  20.177  0.00  0.00    +0.000 A 
ATOM      4  C   UNL     1       1.309   3.157  21.047  0.00  0.00    +0.000 A 
ATOM      5  C   UNL     1       1.657   4.494  20.837  0.00  0.00    +0.000 A 
ATOM      6  C   UNL     1       2.484   4.873  19.761  0.00  0.00    +0.000 A 
ENDROOT
BRANCH   6   7
ATOM      7  C   UNL     1       2.697   6.350  19.563  0.00  0.00    +0.000 C 
ATOM      8  O   UNL     1       3.821   6.769  19.304  0.00  0.00    +0.000 OA
ATOM      9  N   UNL     1       1.618   7.199  19.718  0.00  0.00    +0.000 N 
ATOM     10  H   UNL     1       0.688   6.802  19.804  0.00  0.00    +0.000 HD
BRANCH   9  11
ATOM     11  C   UNL     1       1.746   8.642  19.564  0.00  0.00    +0.000 C 
ATOM     12  C   UNL     1       1.438   9.038  18.115  0.00  0.00    +0.000 C 
BRANCH  11  13
ATOM     13  C   UNL     1       0.916   9.385  20.612  0.00  0.00    +0.000 A 
ATOM     14  C   UNL     1       0.074  10.445  20.215  0.00  0.00    +0.000 A 
ATOM     15  C   UNL     1      -0.734  11.117  21.141  0.00  0.00    +0.000 A 
ATOM     16  C   UNL     1      -0.716  10.733  22.475  0.00  0.00    +0.000 A 
ATOM     17  F   UNL     1      -1.492  11.372  23.362  0.00  0.00    +0.000 F 
ATOM     18  C   UNL     1       0.095   9.687  22.885  0.00  0.00    +0.000 A 
ATOM     19  F   UNL     1       0.107   9.300  24.170  0.00  0.00    +0.000 F 
ATOM     20  C   UNL     1       0.904   9.018  21.970  0.00  0.00    +0.000 A 
ENDBRANCH  11  13
ENDBRANCH   9  11
ENDBRANCH   6   7
BRANCH   1  21
ATOM     21  O   UNL     1       3.879   4.219  17.939  0.00  0.00    +0.000 OA
BRANCH  21  22
ATOM     22  C   UNL     1       5.281   4.120  18.247  0.00  0.00    +0.000 C 
BRANCH  22  26
ATOM     23  C   UNL     1       6.756   4.461  13.535  0.00  0.00    +0.000 C 
ATOM     24  C   UNL     1       6.635   4.434  15.001  0.00  0.00    +0.000 A 
ATOM     25  N   UNL     1       5.575   4.250  15.751  0.00  0.00    +0.000 NA
ATOM     26  C   UNL     1       6.110   4.294  17.021  0.00  0.00    +0.000 A 
ATOM     27  N   UNL     1       7.430   4.507  17.065  0.00  0.00    +0.000 NA
ATOM     28  O   UNL     1       7.785   4.605  15.717  0.00  0.00    +0.000 OA
ENDBRANCH  22  26
ENDBRANCH  21  22
ENDBRANCH   1  21
TORSDOF 6
ENDMDL
MODEL 7
REMARK VINA RESULT:      -7.9      3.440      6.661
REMARK  Name = 
REMARK  8 active torsions:
REMARK  status: ('A' for Active; 'I' for Inactive)
REMARK    1  A    between atoms: C_1  and  C_2
REMARK    2  A    between atoms: C_4  and  C_5
REMARK    3  A    between atoms: C_5  and  O_6
REMARK    4  A    between atoms: O_6  and  C_7
REMARK    5  A    between atoms: C_12  and  C_13
REMARK    6  A    between atoms: N_15  and  C_16
REMARK    7  A    between atoms: C_16  and  C_17
REMARK    8  A    between atoms: C_16  and  C_18
REMARK                            x       y       z     vdW  Elec       q    Type
REMARK                         _______ _______ _______ _____ _____    ______ ____
ROOT
ATOM      1  C   UNL     1       2.250   4.440  19.577  0.00  0.00    +0.000 A 
ATOM      2  C   UNL     1       0.980   4.260  20.149  0.00  0.00    +0.000 A 
ATOM      3  C   UNL     1       0.217   3.131  19.846  0.00  0.00    +0.000 A 
ATOM      4  C   UNL     1       0.713   2.179  18.965  0.00  0.00    +0.000 A 
ATOM      5  C   UNL     1       1.995   2.329  18.428  0.00  0.00    +0.000 A 
ATOM      6  C   UNL     1       2.798   3.440  18.754  0.00  0.00    +0.000 A 
ENDROOT
BRANCH   6   7
ATOM      7  C   UNL     1       4.202   3.439  18.213  0.00  0.00    +0.000 C 
ATOM      8  O   UNL     1       5.097   2.901  18.856  0.00  0.00    +0.000 OA
ATOM      9  N   UNL     1       4.448   4.084  17.016  0.00  0.00    +0.000 N 
ATOM     10  H   UNL     1       3.663   4.403  16.457  0.00  0.00    +0.000 HD
BRANCH   9  11
ATOM     11  C   UNL     1       5.783   4.147  16.436  0.00  0.00    +0.000 C 
ATOM     12  C   UNL     1       5.680   4.296  14.913  0.00  0.00    +0.000 C 
BRANCH  11  13
ATOM     13  C   UNL     1       6.633   5.220  17.119  0.00  0.00    +0.000 A 
ATOM     14  C   UNL     1       6.624   6.541  16.623  0.00  0.00    +0.000 A 
ATOM     15  C   UNL     1       7.355   7.557  17.251  0.00  0.00    +0.000 A 
ATOM     16  C   UNL     1       8.097   7.269  18.389  0.00  0.00    +0.000 A 
ATOM     17  F   UNL     1       8.792   8.242  18.994  0.00  0.00    +0.000 F 
ATOM     18  C   UNL     1       8.110   5.981  18.900  0.00  0.00    +0.000 A 
ATOM     19  F   UNL     1       8.812   5.697  20.007  0.00  0.00    +0.000 F 
ATOM     20  C   UNL     1       7.390   4.964  18.277  0.00  0.00    +0.000 A 
ENDBRANCH  11  13
ENDBRANCH   9  11
ENDBRANCH   6   7
BRANCH   1  21
ATOM     21  O   UNL     1       2.999   5.555  19.839  0.00  0.00    +0.000 OA
BRANCH  21  22
ATOM     22  C   UNL     1       2.955   6.593  18.842  0.00  0.00    +0.000 C 
BRANCH  22  26
ATOM     23  C   UNL     1       0.425  10.844  19.018  0.00  0.00    +0.000 C 
ATOM     24  C   UNL     1       1.073   9.549  19.280  0.00  0.00    +0.000 A 
ATOM     25  N   UNL     1       1.760   8.777  18.472  0.00  0.00    +0.000 NA
ATOM     26  C   UNL     1       2.129   7.744  19.307  0.00  0.00    +0.000 A 
ATOM     27  N   UNL     1       1.686   7.855  20.564  0.00  0.00    +0.000 NA
ATOM     28  O   UNL     1       0.977   9.058  20.550  0.00  0.00    +0.000 OA
ENDBRANCH  22  26
ENDBRANCH  21  22
ENDBRANCH   1  21
TORSDOF 6
ENDMDL
MODEL 8
REMARK VINA RESULT:      -7.9      3.206      6.776
REMARK  Name = 
REMARK  8 active torsions:
REMARK  status: ('A' for Active; 'I' for Inactive)
REMARK    1  A    between atoms: C_1  and  C_2
REMARK    2  A    between atoms: C_4  and  C_5
REMARK    3  A    between atoms: C_5  and  O_6
REMARK    4  A    between atoms: O_6  and  C_7
REMARK    5  A    between atoms: C_12  and  C_13
REMARK    6  A    between atoms: N_15  and  C_16
REMARK    7  A    between atoms: C_16  and  C_17
REMARK    8  A    between atoms: C_16  and  C_18
REMARK                            x       y       z     vdW  Elec       q    Type
REMARK                         _______ _______ _______ _____ _____    ______ ____
ROOT
ATOM      1  C   UNL     1       2.301   4.566  19.634  0.00  0.00    +0.000 A 
ATOM      2  C   UNL     1       1.038   4.312  20.195  0.00  0.00    +0.000 A 
ATOM      3  C   UNL     1       0.368   3.118  19.926  0.00  0.00    +0.000 A 
ATOM      4  C   UNL     1       0.949   2.173  19.089  0.00  0.00    +0.000 A 
ATOM      5  C   UNL     1       2.225   2.400  18.565  0.00  0.00    +0.000 A 
ATOM      6  C   UNL     1       2.936   3.580  18.859  0.00  0.00    +0.000 A 
ENDROOT
BRANCH   6   7
ATOM      7  C   UNL     1       4.345   3.665  18.338  0.00  0.00    +0.000 C 
ATOM      8  O   UNL     1       5.261   3.176  18.991  0.00  0.00    +0.000 OA
ATOM      9  N   UNL     1       4.570   4.332  17.149  0.00  0.00    +0.000 N 
ATOM     10  H   UNL     1       3.775   4.608  16.581  0.00  0.00    +0.000 HD
BRANCH   9  11
ATOM     11  C   UNL     1       5.907   4.477  16.589  0.00  0.00    +0.000 C 
ATOM     12  C   UNL     1       5.816   4.644  15.067  0.00  0.00    +0.000 C 
BRANCH  11  13
ATOM     13  C   UNL     1       6.687   5.584  17.300  0.00  0.00    +0.000 A 
ATOM     14  C   UNL     1       7.536   5.259  18.379  0.00  0.00    +0.000 A 
ATOM     15  C   UNL     1       8.299   6.241  19.022  0.00  0.00    +0.000 A 
ATOM     16  C   UNL     1       8.230   7.559  18.592  0.00  0.00    +0.000 A 
ATOM     17  F   UNL     1       8.963   8.499  19.205  0.00  0.00    +0.000 F 
ATOM     18  C   UNL     1       7.410   7.898  17.527  0.00  0.00    +0.000 A 
ATOM     19  F   UNL     1       7.348   9.167  17.095  0.00  0.00    +0.000 F 
ATOM     20  C   UNL     1       6.645   6.927  16.885  0.00  0.00    +0.000 A 
ENDBRANCH  11  13
ENDBRANCH   9  11
ENDBRANCH   6   7
BRANCH   1  21
ATOM     21  O   UNL     1       2.959   5.744  19.863  0.00  0.00    +0.000 OA
BRANCH  21  22
ATOM     22  C   UNL     1       2.630   6.832  18.979  0.00  0.00    +0.000 C 
BRANCH  22  26
ATOM     23  C   UNL     1       0.230   9.413  22.454  0.00  0.00    +0.000 C 
ATOM     24  C   UNL     1       0.902   8.922  21.240  0.00  0.00    +0.000 A 
ATOM     25  N   UNL     1       1.517   7.783  21.026  0.00  0.00    +0.000 NA
ATOM     26  C   UNL     1       1.892   7.905  19.705  0.00  0.00    +0.000 A 
ATOM     27  N   UNL     1       1.545   9.060  19.128  0.00  0.00    +0.000 NA
ATOM     28  O   UNL     1       0.887   9.745  20.152  0.00  0.00    +0.000 OA
ENDBRANCH  22  26
ENDBRANCH  21  22
ENDBRANCH   1  21
TORSDOF 6
ENDMDL
MODEL 9
REMARK VINA RESULT:      -7.9      3.301      6.739
REMARK  Name = 
REMARK  8 active torsions:
REMARK  status: ('A' for Active; 'I' for Inactive)
REMARK    1  A    between atoms: C_1  and  C_2
REMARK    2  A    between atoms: C_4  and  C_5
REMARK    3  A    between atoms: C_5  and  O_6
REMARK    4  A    between atoms: O_6  and  C_7
REMARK    5  A    between atoms: C_12  and  C_13
REMARK    6  A    between atoms: N_15  and  C_16
REMARK    7  A    between atoms: C_16  and  C_17
REMARK    8  A    between atoms: C_16  and  C_18
REMARK                            x       y       z     vdW  Elec       q    Type
REMARK                         _______ _______ _______ _____ _____    ______ ____
ROOT
ATOM      1  C   UNL     1       2.294   4.536  19.618  0.00  0.00    +0.000 A 
ATOM      2  C   UNL     1       1.056   4.338  20.251  0.00  0.00    +0.000 A 
ATOM      3  C   UNL     1       0.345   3.151  20.067  0.00  0.00    +0.000 A 
ATOM      4  C   UNL     1       0.861   2.157  19.245  0.00  0.00    +0.000 A 
ATOM      5  C   UNL     1       2.114   2.329  18.650  0.00  0.00    +0.000 A 
ATOM      6  C   UNL     1       2.866   3.502  18.857  0.00  0.00    +0.000 A 
ENDROOT
BRANCH   6   7
ATOM      7  C   UNL     1       4.249   3.529  18.264  0.00  0.00    +0.000 C 
ATOM      8  O   UNL     1       5.173   2.983  18.860  0.00  0.00    +0.000 OA
ATOM      9  N   UNL     1       4.445   4.207  17.076  0.00  0.00    +0.000 N 
ATOM     10  H   UNL     1       3.637   4.532  16.555  0.00  0.00    +0.000 HD
BRANCH   9  11
ATOM     11  C   UNL     1       5.757   4.298  16.450  0.00  0.00    +0.000 C 
ATOM     12  C   UNL     1       5.596   4.501  14.938  0.00  0.00    +0.000 C 
BRANCH  11  13
ATOM     13  C   UNL     1       6.628   5.350  17.139  0.00  0.00    +0.000 A 
ATOM     14  C   UNL     1       6.651   6.672  16.646  0.00  0.00    +0.000 A 
ATOM     15  C   UNL     1       7.401   7.669  17.281  0.00  0.00    +0.000 A 
ATOM     16  C   UNL     1       8.132   7.362  18.420  0.00  0.00    +0.000 A 
ATOM     17  F   UNL     1       8.847   8.318  19.031  0.00  0.00    +0.000 F 
ATOM     18  C   UNL     1       8.115   6.072  18.928  0.00  0.00    +0.000 A 
ATOM     19  F   UNL     1       8.806   5.770  20.037  0.00  0.00    +0.000 F 
ATOM     20  C   UNL     1       7.374   5.074  18.299  0.00  0.00    +0.000 A 
ENDBRANCH  11  13
ENDBRANCH   9  11
ENDBRANCH   6   7
BRANCH   1  21
ATOM     21  O   UNL     1       2.990   5.705  19.763  0.00  0.00    +0.000 OA
BRANCH  21  22
ATOM     22  C   UNL     1       2.591   6.787  18.901  0.00  0.00    +0.000 C 
BRANCH  22  26
ATOM     23  C   UNL     1       0.284   9.301  22.487  0.00  0.00    +0.000 C 
ATOM     24  C   UNL     1       0.938   8.839  21.252  0.00  0.00    +0.000 A 
ATOM     25  N   UNL     1       1.513   7.690  20.989  0.00  0.00    +0.000 NA
ATOM     26  C   UNL     1       1.891   7.853  19.673  0.00  0.00    +0.000 A 
ATOM     27  N   UNL     1       1.581   9.043  19.145  0.00  0.00    +0.000 NA
ATOM     28  O   UNL     1       0.947   9.706  20.198  0.00  0.00    +0.000 OA
ENDBRANCH  22  26
ENDBRANCH  21  22
ENDBRANCH   1  21
TORSDOF 6
ENDMDL
