MODEL 1
REMARK VINA RESULT:      -9.8      0.000      0.000
REMARK  Name = 
REMARK  3 active torsions:
REMARK  status: ('A' for Active; 'I' for Inactive)
REMARK    1  A    between atoms: C_2  and  C_3
REMARK    2  A    between atoms: N_12  and  C_13
REMARK    3  A    between atoms: C_15  and  C_16
REMARK                            x       y       z     vdW  Elec       q    Type
REMARK                         _______ _______ _______ _____ _____    ______ ____
ROOT
ATOM      1  C   UNL     1       2.536   6.102  18.573  0.00  0.00    +0.000 A 
ATOM      2  N   UNL     1       3.491   6.184  17.604  0.00  0.00    +0.000 NA
ATOM      3  C   UNL     1       3.968   5.017  17.108  0.00  0.00    +0.000 A 
ATOM      4  N   UNL     1       3.488   3.806  17.436  0.00  0.00    +0.000 NA
ATOM      5  C   UNL     1       2.634   3.723  18.437  0.00  0.00    +0.000 A 
ATOM      6  C   UNL     1       2.235   2.451  18.818  0.00  0.00    +0.000 A 
ATOM      7  C   UNL     1       1.415   2.248  19.925  0.00  0.00    +0.000 A 
ATOM      8  C   UNL     1       1.021   3.334  20.687  0.00  0.00    +0.000 A 
ATOM      9  C   UNL     1       1.403   4.619  20.301  0.00  0.00    +0.000 A 
ATOM     10  C   UNL     1       2.166   4.844  19.122  0.00  0.00    +0.000 A 
ENDROOT
BRANCH   1  16
ATOM     11  O   UNL     1       0.432  11.066  21.993  0.00  0.00    +0.000 OA
ATOM     12  C   UNL     1       0.768  11.063  20.805  0.00  0.00    +0.000 C 
ATOM     13  N   UNL     1       1.137   9.866  20.166  0.00  0.00    +0.000 N 
ATOM     14  C   UNL     1       1.018   8.624  20.964  0.00  0.00    +0.000 C 
ATOM     15  C   UNL     1       2.025   7.514  20.543  0.00  0.00    +0.000 C 
ATOM     16  N   UNL     1       1.911   7.272  19.091  0.00  0.00    +0.000 N 
ATOM     17  C   UNL     1       2.176   8.529  18.332  0.00  0.00    +0.000 C 
ATOM     18  C   UNL     1       1.126   9.605  18.718  0.00  0.00    +0.000 C 
BRANCH  12  19
ATOM     19  C   UNL     1       0.763  12.399  20.121  0.00  0.00    +0.000 A 
ATOM     20  C   UNL     1      -0.352  12.935  19.466  0.00  0.00    +0.000 A 
ATOM     21  C   UNL     1      -0.278  14.185  18.839  0.00  0.00    +0.000 A 
ATOM     22  C   UNL     1       0.928  14.881  18.790  0.00  0.00    +0.000 A 
ATOM     23  C   UNL     1       2.068  14.324  19.361  0.00  0.00    +0.000 A 
ATOM     24  C   UNL     1       1.984  13.095  20.025  0.00  0.00    +0.000 A 
ENDBRANCH  12  19
ENDBRANCH   1  16
BRANCH   3  25
ATOM     25  C   UNL     1       5.146   4.945  16.209  0.00  0.00    +0.000 A 
ATOM     26  C   UNL     1       5.235   4.161  15.054  0.00  0.00    +0.000 A 
ATOM     27  C   UNL     1       6.395   4.197  14.263  0.00  0.00    +0.000 A 
ATOM     28  C   UNL     1       7.446   5.021  14.639  0.00  0.00    +0.000 A 
ATOM     29  N   UNL     1       7.417   5.797  15.729  0.00  0.00    +0.000 NA
ATOM     30  C   UNL     1       6.280   5.736  16.472  0.00  0.00    +0.000 A 
ENDBRANCH   3  25
TORSDOF 3
ENDMDL
MODEL 2
REMARK VINA RESULT:      -8.7      1.579      2.457
REMARK  Name = 
REMARK  3 active torsions:
REMARK  status: ('A' for Active; 'I' for Inactive)
REMARK    1  A    between atoms: C_2  and  C_3
REMARK    2  A    between atoms: N_12  and  C_13
REMARK    3  A    between atoms: C_15  and  C_16
REMARK                            x       y       z     vdW  Elec       q    Type
REMARK                         _______ _______ _______ _____ _____    ______ ____
ROOT
ATOM      1  C   UNL     1       2.925   6.653  18.455  0.00  0.00    +0.000 A 
ATOM      2  N   UNL     1       3.794   6.555  17.410  0.00  0.00    +0.000 NA
ATOM      3  C   UNL     1       4.183   5.310  17.045  0.00  0.00    +0.000 A 
ATOM      4  N   UNL     1       3.690   4.180  17.578  0.00  0.00    +0.000 NA
ATOM      5  C   UNL     1       2.924   4.275  18.648  0.00  0.00    +0.000 A 
ATOM      6  C   UNL     1       2.514   3.088  19.235  0.00  0.00    +0.000 A 
ATOM      7  C   UNL     1       1.788   3.078  20.423  0.00  0.00    +0.000 A 
ATOM      8  C   UNL     1       1.502   4.276  21.054  0.00  0.00    +0.000 A 
ATOM      9  C   UNL     1       1.895   5.476  20.462  0.00  0.00    +0.000 A 
ATOM     10  C   UNL     1       2.559   5.500  19.205  0.00  0.00    +0.000 A 
ENDROOT
BRANCH   1  16
ATOM     11  O   UNL     1       0.130  12.370  18.974  0.00  0.00    +0.000 OA
ATOM     12  C   UNL     1       0.080  11.435  19.779  0.00  0.00    +0.000 C 
ATOM     13  N   UNL     1       0.818  10.259  19.560  0.00  0.00    +0.000 N 
ATOM     14  C   UNL     1       1.707  10.243  18.376  0.00  0.00    +0.000 C 
ATOM     15  C   UNL     1       1.933   8.822  17.784  0.00  0.00    +0.000 C 
ATOM     16  N   UNL     1       2.391   7.911  18.853  0.00  0.00    +0.000 N 
ATOM     17  C   UNL     1       1.391   7.862  19.958  0.00  0.00    +0.000 C 
ATOM     18  C   UNL     1       1.223   9.275  20.577  0.00  0.00    +0.000 C 
BRANCH  12  19
ATOM     19  C   UNL     1      -0.814  11.643  20.967  0.00  0.00    +0.000 A 
ATOM     20  C   UNL     1      -0.620  11.024  22.207  0.00  0.00    +0.000 A 
ATOM     21  C   UNL     1      -1.504  11.258  23.267  0.00  0.00    +0.000 A 
ATOM     22  C   UNL     1      -2.634  12.052  23.083  0.00  0.00    +0.000 A 
ATOM     23  C   UNL     1      -2.890  12.606  21.833  0.00  0.00    +0.000 A 
ATOM     24  C   UNL     1      -1.983  12.408  20.785  0.00  0.00    +0.000 A 
ENDBRANCH  12  19
ENDBRANCH   1  16
BRANCH   3  25
ATOM     25  C   UNL     1       5.274   5.058  16.072  0.00  0.00    +0.000 A 
ATOM     26  C   UNL     1       5.196   4.193  14.976  0.00  0.00    +0.000 A 
ATOM     27  C   UNL     1       6.288   4.059  14.102  0.00  0.00    +0.000 A 
ATOM     28  C   UNL     1       7.440   4.796  14.339  0.00  0.00    +0.000 A 
ATOM     29  N   UNL     1       7.571   5.642  15.368  0.00  0.00    +0.000 NA
ATOM     30  C   UNL     1       6.495   5.746  16.193  0.00  0.00    +0.000 A 
ENDBRANCH   3  25
TORSDOF 3
ENDMDL
MODEL 3
REMARK VINA RESULT:      -8.5      3.062      8.563
REMARK  Name = 
REMARK  3 active torsions:
REMARK  status: ('A' for Active; 'I' for Inactive)
REMARK    1  A    between atoms: C_2  and  C_3
REMARK    2  A    between atoms: N_12  and  C_13
REMARK    3  A    between atoms: C_15  and  C_16
REMARK                            x       y       z     vdW  Elec       q    Type
REMARK                         _______ _______ _______ _____ _____    ______ ____
ROOT
ATOM      1  C   UNL     1       0.822   8.893  19.249  0.00  0.00    +0.000 A 
ATOM      2  N   UNL     1       0.041   9.261  18.194  0.00  0.00    +0.000 NA
ATOM      3  C   UNL     1      -0.968  10.129  18.446  0.00  0.00    +0.000 A 
ATOM      4  N   UNL     1      -1.175  10.718  19.636  0.00  0.00    +0.000 NA
ATOM      5  C   UNL     1      -0.482  10.293  20.673  0.00  0.00    +0.000 A 
ATOM      6  C   UNL     1      -0.790  10.849  21.906  0.00  0.00    +0.000 A 
ATOM      7  C   UNL     1      -0.187  10.399  23.077  0.00  0.00    +0.000 A 
ATOM      8  C   UNL     1       0.709   9.347  23.018  0.00  0.00    +0.000 A 
ATOM      9  C   UNL     1       1.039   8.792  21.781  0.00  0.00    +0.000 A 
ATOM     10  C   UNL     1       0.496   9.304  20.571  0.00  0.00    +0.000 A 
ENDROOT
BRANCH   1  16
ATOM     11  O   UNL     1       5.153   4.209  18.987  0.00  0.00    +0.000 OA
ATOM     12  C   UNL     1       4.897   5.043  18.113  0.00  0.00    +0.000 C 
ATOM     13  N   UNL     1       3.965   6.069  18.351  0.00  0.00    +0.000 N 
ATOM     14  C   UNL     1       3.386   6.138  19.712  0.00  0.00    +0.000 C 
ATOM     15  C   UNL     1       1.954   6.748  19.750  0.00  0.00    +0.000 C 
ATOM     16  N   UNL     1       1.959   8.056  19.066  0.00  0.00    +0.000 N 
ATOM     17  C   UNL     1       2.422   7.904  17.656  0.00  0.00    +0.000 C 
ATOM     18  C   UNL     1       3.872   7.352  17.637  0.00  0.00    +0.000 C 
BRANCH  12  19
ATOM     19  C   UNL     1       5.628   4.873  16.814  0.00  0.00    +0.000 A 
ATOM     20  C   UNL     1       6.927   5.343  16.583  0.00  0.00    +0.000 A 
ATOM     21  C   UNL     1       7.541   5.157  15.338  0.00  0.00    +0.000 A 
ATOM     22  C   UNL     1       6.842   4.570  14.285  0.00  0.00    +0.000 A 
ATOM     23  C   UNL     1       5.522   4.175  14.471  0.00  0.00    +0.000 A 
ATOM     24  C   UNL     1       4.921   4.321  15.727  0.00  0.00    +0.000 A 
ENDBRANCH  12  19
ENDBRANCH   1  16
BRANCH   3  25
ATOM     25  C   UNL     1      -2.019  10.456  17.452  0.00  0.00    +0.000 A 
ATOM     26  C   UNL     1      -2.107   9.920  16.163  0.00  0.00    +0.000 A 
ATOM     27  C   UNL     1      -3.169  10.283  15.317  0.00  0.00    +0.000 A 
ATOM     28  C   UNL     1      -4.127  11.174  15.778  0.00  0.00    +0.000 A 
ATOM     29  N   UNL     1      -4.098  11.715  17.002  0.00  0.00    +0.000 NA
ATOM     30  C   UNL     1      -3.057  11.343  17.792  0.00  0.00    +0.000 A 
ENDBRANCH   3  25
TORSDOF 3
ENDMDL
MODEL 4
REMARK VINA RESULT:      -8.2      2.977      9.600
REMARK  Name = 
REMARK  3 active torsions:
REMARK  status: ('A' for Active; 'I' for Inactive)
REMARK    1  A    between atoms: C_2  and  C_3
REMARK    2  A    between atoms: N_12  and  C_13
REMARK    3  A    between atoms: C_15  and  C_16
REMARK                            x       y       z     vdW  Elec       q    Type
REMARK                         _______ _______ _______ _____ _____    ______ ____
ROOT
ATOM      1  C   UNL     1       0.054  10.961  19.076  0.00  0.00    +0.000 A 
ATOM      2  N   UNL     1      -1.284  10.751  18.929  0.00  0.00    +0.000 NA
ATOM      3  C   UNL     1      -2.066  11.846  18.771  0.00  0.00    +0.000 A 
ATOM      4  N   UNL     1      -1.595  13.098  18.648  0.00  0.00    +0.000 NA
ATOM      5  C   UNL     1      -0.314  13.309  18.883  0.00  0.00    +0.000 A 
ATOM      6  C   UNL     1       0.122  14.625  18.849  0.00  0.00    +0.000 A 
ATOM      7  C   UNL     1       1.431  14.965  19.180  0.00  0.00    +0.000 A 
ATOM      8  C   UNL     1       2.306  13.976  19.592  0.00  0.00    +0.000 A 
ATOM      9  C   UNL     1       1.882  12.647  19.613  0.00  0.00    +0.000 A 
ATOM     10  C   UNL     1       0.575  12.280  19.191  0.00  0.00    +0.000 A 
ENDROOT
BRANCH   1  16
ATOM     11  O   UNL     1       3.168   5.492  20.153  0.00  0.00    +0.000 OA
ATOM     12  C   UNL     1       3.123   6.133  19.099  0.00  0.00    +0.000 C 
ATOM     13  N   UNL     1       2.455   7.369  19.039  0.00  0.00    +0.000 N 
ATOM     14  C   UNL     1       1.896   7.884  20.310  0.00  0.00    +0.000 C 
ATOM     15  C   UNL     1       0.648   8.793  20.119  0.00  0.00    +0.000 C 
ATOM     16  N   UNL     1       0.965   9.869  19.159  0.00  0.00    +0.000 N 
ATOM     17  C   UNL     1       1.392   9.291  17.852  0.00  0.00    +0.000 C 
ATOM     18  C   UNL     1       2.673   8.437  18.050  0.00  0.00    +0.000 C 
BRANCH  12  19
ATOM     19  C   UNL     1       3.806   5.503  17.920  0.00  0.00    +0.000 A 
ATOM     20  C   UNL     1       3.610   4.175  17.523  0.00  0.00    +0.000 A 
ATOM     21  C   UNL     1       4.293   3.653  16.418  0.00  0.00    +0.000 A 
ATOM     22  C   UNL     1       5.236   4.424  15.741  0.00  0.00    +0.000 A 
ATOM     23  C   UNL     1       5.507   5.717  16.174  0.00  0.00    +0.000 A 
ATOM     24  C   UNL     1       4.793   6.254  17.252  0.00  0.00    +0.000 A 
ENDBRANCH  12  19
ENDBRANCH   1  16
BRANCH   3  25
ATOM     25  C   UNL     1      -3.548  11.791  18.809  0.00  0.00    +0.000 A 
ATOM     26  C   UNL     1      -4.355  11.097  17.901  0.00  0.00    +0.000 A 
ATOM     27  C   UNL     1      -5.751  11.093  18.056  0.00  0.00    +0.000 A 
ATOM     28  C   UNL     1      -6.317  11.781  19.120  0.00  0.00    +0.000 A 
ATOM     29  N   UNL     1      -5.596  12.458  20.022  0.00  0.00    +0.000 NA
ATOM     30  C   UNL     1      -4.249  12.441  19.841  0.00  0.00    +0.000 A 
ENDBRANCH   3  25
TORSDOF 3
ENDMDL
MODEL 5
REMARK VINA RESULT:      -8.1      2.900      9.952
REMARK  Name = 
REMARK  3 active torsions:
REMARK  status: ('A' for Active; 'I' for Inactive)
REMARK    1  A    between atoms: C_2  and  C_3
REMARK    2  A    between atoms: N_12  and  C_13
REMARK    3  A    between atoms: C_15  and  C_16
REMARK                            x       y       z     vdW  Elec       q    Type
REMARK                         _______ _______ _______ _____ _____    ______ ____
ROOT
ATOM      1  C   UNL     1      -0.076  11.241  20.035  0.00  0.00    +0.000 A 
ATOM      2  N   UNL     1      -1.396  11.259  20.375  0.00  0.00    +0.000 NA
ATOM      3  C   UNL     1      -2.061  12.427  20.203  0.00  0.00    +0.000 A 
ATOM      4  N   UNL     1      -1.530  13.519  19.630  0.00  0.00    +0.000 NA
ATOM      5  C   UNL     1      -0.234  13.532  19.389  0.00  0.00    +0.000 A 
ATOM      6  C   UNL     1       0.301  14.710  18.891  0.00  0.00    +0.000 A 
ATOM      7  C   UNL     1       1.672  14.861  18.697  0.00  0.00    +0.000 A 
ATOM      8  C   UNL     1       2.524  13.828  19.045  0.00  0.00    +0.000 A 
ATOM      9  C   UNL     1       1.993  12.632  19.530  0.00  0.00    +0.000 A 
ATOM     10  C   UNL     1       0.590  12.437  19.648  0.00  0.00    +0.000 A 
ENDROOT
BRANCH   1  16
ATOM     11  O   UNL     1       2.335   5.423  21.085  0.00  0.00    +0.000 OA
ATOM     12  C   UNL     1       2.313   6.044  20.018  0.00  0.00    +0.000 C 
ATOM     13  N   UNL     1       1.815   7.358  19.962  0.00  0.00    +0.000 N 
ATOM     14  C   UNL     1       1.407   7.969  21.248  0.00  0.00    +0.000 C 
ATOM     15  C   UNL     1       0.283   9.035  21.103  0.00  0.00    +0.000 C 
ATOM     16  N   UNL     1       0.684  10.039  20.097  0.00  0.00    +0.000 N 
ATOM     17  C   UNL     1       0.950   9.382  18.784  0.00  0.00    +0.000 C 
ATOM     18  C   UNL     1       2.114   8.366  18.933  0.00  0.00    +0.000 C 
BRANCH  12  19
ATOM     19  C   UNL     1       2.833   5.304  18.821  0.00  0.00    +0.000 A 
ATOM     20  C   UNL     1       2.110   4.320  18.137  0.00  0.00    +0.000 A 
ATOM     21  C   UNL     1       2.668   3.663  17.033  0.00  0.00    +0.000 A 
ATOM     22  C   UNL     1       3.980   3.924  16.643  0.00  0.00    +0.000 A 
ATOM     23  C   UNL     1       4.743   4.836  17.364  0.00  0.00    +0.000 A 
ATOM     24  C   UNL     1       4.172   5.525  18.441  0.00  0.00    +0.000 A 
ENDBRANCH  12  19
ENDBRANCH   1  16
BRANCH   3  25
ATOM     25  C   UNL     1      -3.433  12.656  20.718  0.00  0.00    +0.000 A 
ATOM     26  C   UNL     1      -4.562  12.903  19.931  0.00  0.00    +0.000 A 
ATOM     27  C   UNL     1      -5.820  13.076  20.532  0.00  0.00    +0.000 A 
ATOM     28  C   UNL     1      -5.927  12.995  21.913  0.00  0.00    +0.000 A 
ATOM     29  N   UNL     1      -4.884  12.756  22.717  0.00  0.00    +0.000 NA
ATOM     30  C   UNL     1      -3.683  12.595  22.102  0.00  0.00    +0.000 A 
ENDBRANCH   3  25
TORSDOF 3
ENDMDL
MODEL 6
REMARK VINA RESULT:      -8.0      2.968      9.624
REMARK  Name = 
REMARK  3 active torsions:
REMARK  status: ('A' for Active; 'I' for Inactive)
REMARK    1  A    between atoms: C_2  and  C_3
REMARK    2  A    between atoms: N_12  and  C_13
REMARK    3  A    between atoms: C_15  and  C_16
REMARK                            x       y       z     vdW  Elec       q    Type
REMARK                         _______ _______ _______ _____ _____    ______ ____
ROOT
ATOM      1  C   UNL     1      -0.025  10.857  19.294  0.00  0.00    +0.000 A 
ATOM      2  N   UNL     1      -1.358  10.736  19.038  0.00  0.00    +0.000 NA
ATOM      3  C   UNL     1      -2.034  11.872  18.736  0.00  0.00    +0.000 A 
ATOM      4  N   UNL     1      -1.455  13.073  18.576  0.00  0.00    +0.000 NA
ATOM      5  C   UNL     1      -0.187  13.206  18.914  0.00  0.00    +0.000 A 
ATOM      6  C   UNL     1       0.354  14.480  18.833  0.00  0.00    +0.000 A 
ATOM      7  C   UNL     1       1.652  14.747  19.261  0.00  0.00    +0.000 A 
ATOM      8  C   UNL     1       2.406  13.728  19.816  0.00  0.00    +0.000 A 
ATOM      9  C   UNL     1       1.877  12.440  19.885  0.00  0.00    +0.000 A 
ATOM     10  C   UNL     1       0.587  12.139  19.369  0.00  0.00    +0.000 A 
ENDROOT
BRANCH   1  16
ATOM     11  O   UNL     1       2.561   5.296  21.069  0.00  0.00    +0.000 OA
ATOM     12  C   UNL     1       2.618   5.828  19.956  0.00  0.00    +0.000 C 
ATOM     13  N   UNL     1       2.061   7.101  19.740  0.00  0.00    +0.000 N 
ATOM     14  C   UNL     1       1.492   7.787  20.922  0.00  0.00    +0.000 C 
ATOM     15  C   UNL     1       0.335   8.768  20.576  0.00  0.00    +0.000 C 
ATOM     16  N   UNL     1       0.785   9.711  19.532  0.00  0.00    +0.000 N 
ATOM     17  C   UNL     1       1.219   8.969  18.313  0.00  0.00    +0.000 C 
ATOM     18  C   UNL     1       2.413   8.040  18.662  0.00  0.00    +0.000 C 
BRANCH  12  19
ATOM     19  C   UNL     1       3.296   5.027  18.883  0.00  0.00    +0.000 A 
ATOM     20  C   UNL     1       4.653   5.148  18.560  0.00  0.00    +0.000 A 
ATOM     21  C   UNL     1       5.214   4.375  17.537  0.00  0.00    +0.000 A 
ATOM     22  C   UNL     1       4.415   3.527  16.772  0.00  0.00    +0.000 A 
ATOM     23  C   UNL     1       3.049   3.457  17.023  0.00  0.00    +0.000 A 
ATOM     24  C   UNL     1       2.495   4.198  18.074  0.00  0.00    +0.000 A 
ENDBRANCH  12  19
ENDBRANCH   1  16
BRANCH   3  25
ATOM     25  C   UNL     1      -3.513  11.929  18.640  0.00  0.00    +0.000 A 
ATOM     26  C   UNL     1      -4.371  12.392  19.643  0.00  0.00    +0.000 A 
ATOM     27  C   UNL     1      -5.759  12.427  19.425  0.00  0.00    +0.000 A 
ATOM     28  C   UNL     1      -6.264  12.001  18.205  0.00  0.00    +0.000 A 
ATOM     29  N   UNL     1      -5.492  11.553  17.207  0.00  0.00    +0.000 NA
ATOM     30  C   UNL     1      -4.156  11.532  17.453  0.00  0.00    +0.000 A 
ENDBRANCH   3  25
TORSDOF 3
ENDMDL
MODEL 7
REMARK VINA RESULT:      -8.0      2.871      9.844
REMARK  Name = 
REMARK  3 active torsions:
REMARK  status: ('A' for Active; 'I' for Inactive)
REMARK    1  A    between atoms: C_2  and  C_3
REMARK    2  A    between atoms: N_12  and  C_13
REMARK    3  A    between atoms: C_15  and  C_16
REMARK                            x       y       z     vdW  Elec       q    Type
REMARK                         _______ _______ _______ _____ _____    ______ ____
ROOT
ATOM      1  C   UNL     1      -0.020  11.191  19.672  0.00  0.00    +0.000 A 
ATOM      2  N   UNL     1      -1.380  11.167  19.753  0.00  0.00    +0.000 NA
ATOM      3  C   UNL     1      -2.032  12.334  19.529  0.00  0.00    +0.000 A 
ATOM      4  N   UNL     1      -1.431  13.469  19.135  0.00  0.00    +0.000 NA
ATOM      5  C   UNL     1      -0.113  13.516  19.148  0.00  0.00    +0.000 A 
ATOM      6  C   UNL     1       0.475  14.732  18.834  0.00  0.00    +0.000 A 
ATOM      7  C   UNL     1       1.853  14.914  18.915  0.00  0.00    +0.000 A 
ATOM      8  C   UNL     1       2.651  13.873  19.356  0.00  0.00    +0.000 A 
ATOM      9  C   UNL     1       2.070  12.641  19.657  0.00  0.00    +0.000 A 
ATOM     10  C   UNL     1       0.676  12.419  19.492  0.00  0.00    +0.000 A 
ENDROOT
BRANCH   1  16
ATOM     11  O   UNL     1       2.389   5.430  21.007  0.00  0.00    +0.000 OA
ATOM     12  C   UNL     1       2.409   6.018  19.921  0.00  0.00    +0.000 C 
ATOM     13  N   UNL     1       1.903   7.325  19.802  0.00  0.00    +0.000 N 
ATOM     14  C   UNL     1       1.435   7.971  21.050  0.00  0.00    +0.000 C 
ATOM     15  C   UNL     1       0.309   9.022  20.822  0.00  0.00    +0.000 C 
ATOM     16  N   UNL     1       0.746   9.998  19.803  0.00  0.00    +0.000 N 
ATOM     17  C   UNL     1       1.074   9.303  18.525  0.00  0.00    +0.000 C 
ATOM     18  C   UNL     1       2.239   8.303  18.756  0.00  0.00    +0.000 C 
BRANCH  12  19
ATOM     19  C   UNL     1       2.987   5.246  18.771  0.00  0.00    +0.000 A 
ATOM     20  C   UNL     1       2.283   4.272  18.053  0.00  0.00    +0.000 A 
ATOM     21  C   UNL     1       2.895   3.584  16.998  0.00  0.00    +0.000 A 
ATOM     22  C   UNL     1       4.237   3.803  16.694  0.00  0.00    +0.000 A 
ATOM     23  C   UNL     1       4.976   4.705  17.452  0.00  0.00    +0.000 A 
ATOM     24  C   UNL     1       4.354   5.425  18.479  0.00  0.00    +0.000 A 
ENDBRANCH  12  19
ENDBRANCH   1  16
BRANCH   3  25
ATOM     25  C   UNL     1      -3.482  12.510  19.785  0.00  0.00    +0.000 A 
ATOM     26  C   UNL     1      -4.034  13.189  20.876  0.00  0.00    +0.000 A 
ATOM     27  C   UNL     1      -5.428  13.318  20.998  0.00  0.00    +0.000 A 
ATOM     28  C   UNL     1      -6.246  12.767  20.022  0.00  0.00    +0.000 A 
ATOM     29  N   UNL     1      -5.776  12.110  18.955  0.00  0.00    +0.000 NA
ATOM     30  C   UNL     1      -4.424  12.004  18.870  0.00  0.00    +0.000 A 
ENDBRANCH   3  25
TORSDOF 3
ENDMDL
MODEL 8
REMARK VINA RESULT:      -7.9      2.612      9.064
REMARK  Name = 
REMARK  3 active torsions:
REMARK  status: ('A' for Active; 'I' for Inactive)
REMARK    1  A    between atoms: C_2  and  C_3
REMARK    2  A    between atoms: N_12  and  C_13
REMARK    3  A    between atoms: C_15  and  C_16
REMARK                            x       y       z     vdW  Elec       q    Type
REMARK                         _______ _______ _______ _____ _____    ______ ____
ROOT
ATOM      1  C   UNL     1       0.291  11.035  19.047  0.00  0.00    +0.000 A 
ATOM      2  N   UNL     1       0.861  12.261  19.216  0.00  0.00    +0.000 NA
ATOM      3  C   UNL     1       0.072  13.342  19.006  0.00  0.00    +0.000 A 
ATOM      4  N   UNL     1      -1.244  13.276  18.746  0.00  0.00    +0.000 NA
ATOM      5  C   UNL     1      -1.772  12.095  18.491  0.00  0.00    +0.000 A 
ATOM      6  C   UNL     1      -3.110  12.070  18.127  0.00  0.00    +0.000 A 
ATOM      7  C   UNL     1      -3.736  10.888  17.741  0.00  0.00    +0.000 A 
ATOM      8  C   UNL     1      -2.999   9.718  17.680  0.00  0.00    +0.000 A 
ATOM      9  C   UNL     1      -1.657   9.729  18.061  0.00  0.00    +0.000 A 
ATOM     10  C   UNL     1      -1.033  10.913  18.541  0.00  0.00    +0.000 A 
ENDROOT
BRANCH   1  16
ATOM     11  O   UNL     1       2.463   5.372  21.042  0.00  0.00    +0.000 OA
ATOM     12  C   UNL     1       2.554   5.852  19.908  0.00  0.00    +0.000 C 
ATOM     13  N   UNL     1       2.093   7.154  19.641  0.00  0.00    +0.000 N 
ATOM     14  C   UNL     1       1.581   7.927  20.796  0.00  0.00    +0.000 C 
ATOM     15  C   UNL     1       0.499   8.978  20.412  0.00  0.00    +0.000 C 
ATOM     16  N   UNL     1       1.014   9.842  19.330  0.00  0.00    +0.000 N 
ATOM     17  C   UNL     1       1.387   9.021  18.142  0.00  0.00    +0.000 C 
ATOM     18  C   UNL     1       2.510   8.020  18.527  0.00  0.00    +0.000 C 
BRANCH  12  19
ATOM     19  C   UNL     1       3.167   4.961  18.868  0.00  0.00    +0.000 A 
ATOM     20  C   UNL     1       4.529   4.963  18.544  0.00  0.00    +0.000 A 
ATOM     21  C   UNL     1       5.026   4.109  17.551  0.00  0.00    +0.000 A 
ATOM     22  C   UNL     1       4.163   3.299  16.817  0.00  0.00    +0.000 A 
ATOM     23  C   UNL     1       2.796   3.347  17.067  0.00  0.00    +0.000 A 
ATOM     24  C   UNL     1       2.303   4.168  18.088  0.00  0.00    +0.000 A 
ENDBRANCH  12  19
ENDBRANCH   1  16
BRANCH   3  25
ATOM     25  C   UNL     1       0.601  14.727  18.949  0.00  0.00    +0.000 A 
ATOM     26  C   UNL     1      -0.158  15.872  18.686  0.00  0.00    +0.000 A 
ATOM     27  C   UNL     1       0.449  17.139  18.687  0.00  0.00    +0.000 A 
ATOM     28  C   UNL     1       1.807  17.239  18.956  0.00  0.00    +0.000 A 
ATOM     29  N   UNL     1       2.582  16.180  19.219  0.00  0.00    +0.000 NA
ATOM     30  C   UNL     1       1.962  14.971  19.209  0.00  0.00    +0.000 A 
ENDBRANCH   3  25
TORSDOF 3
ENDMDL
MODEL 9
REMARK VINA RESULT:      -7.8      2.651      9.002
REMARK  Name = 
REMARK  3 active torsions:
REMARK  status: ('A' for Active; 'I' for Inactive)
REMARK    1  A    between atoms: C_2  and  C_3
REMARK    2  A    between atoms: N_12  and  C_13
REMARK    3  A    between atoms: C_15  and  C_16
REMARK                            x       y       z     vdW  Elec       q    Type
REMARK                         _______ _______ _______ _____ _____    ______ ____
ROOT
ATOM      1  C   UNL     1       0.506  10.966  19.010  0.00  0.00    +0.000 A 
ATOM      2  N   UNL     1       1.161  12.155  19.129  0.00  0.00    +0.000 NA
ATOM      3  C   UNL     1       0.442  13.281  18.902  0.00  0.00    +0.000 A 
ATOM      4  N   UNL     1      -0.882  13.297  18.672  0.00  0.00    +0.000 NA
ATOM      5  C   UNL     1      -1.494  12.147  18.465  0.00  0.00    +0.000 A 
ATOM      6  C   UNL     1      -2.838  12.203  18.130  0.00  0.00    +0.000 A 
ATOM      7  C   UNL     1      -3.551  11.055  17.794  0.00  0.00    +0.000 A 
ATOM      8  C   UNL     1      -2.897   9.837  17.754  0.00  0.00    +0.000 A 
ATOM      9  C   UNL     1      -1.549   9.768  18.107  0.00  0.00    +0.000 A 
ATOM     10  C   UNL     1      -0.835  10.920  18.537  0.00  0.00    +0.000 A 
ENDROOT
BRANCH   1  16
ATOM     11  O   UNL     1       2.344   5.237  21.146  0.00  0.00    +0.000 OA
ATOM     12  C   UNL     1       2.431   5.670  19.993  0.00  0.00    +0.000 C 
ATOM     13  N   UNL     1       2.053   6.991  19.692  0.00  0.00    +0.000 N 
ATOM     14  C   UNL     1       1.634   7.838  20.832  0.00  0.00    +0.000 C 
ATOM     15  C   UNL     1       0.616   8.949  20.443  0.00  0.00    +0.000 C 
ATOM     16  N   UNL     1       1.153   9.736  19.315  0.00  0.00    +0.000 N 
ATOM     17  C   UNL     1       1.428   8.850  18.147  0.00  0.00    +0.000 C 
ATOM     18  C   UNL     1       2.490   7.787  18.534  0.00  0.00    +0.000 C 
BRANCH  12  19
ATOM     19  C   UNL     1       2.945   4.702  18.968  0.00  0.00    +0.000 A 
ATOM     20  C   UNL     1       2.132   3.804  18.266  0.00  0.00    +0.000 A 
ATOM     21  C   UNL     1       2.688   2.921  17.332  0.00  0.00    +0.000 A 
ATOM     22  C   UNL     1       4.067   2.869  17.140  0.00  0.00    +0.000 A 
ATOM     23  C   UNL     1       4.897   3.694  17.891  0.00  0.00    +0.000 A 
ATOM     24  C   UNL     1       4.340   4.607  18.794  0.00  0.00    +0.000 A 
ENDBRANCH  12  19
ENDBRANCH   1  16
BRANCH   3  25
ATOM     25  C   UNL     1       1.060  14.624  18.790  0.00  0.00    +0.000 A 
ATOM     26  C   UNL     1       2.397  14.875  18.464  0.00  0.00    +0.000 A 
ATOM     27  C   UNL     1       2.864  16.196  18.358  0.00  0.00    +0.000 A 
ATOM     28  C   UNL     1       1.983  17.245  18.576  0.00  0.00    +0.000 A 
ATOM     29  N   UNL     1       0.693  17.068  18.885  0.00  0.00    +0.000 NA
ATOM     30  C   UNL     1       0.276  15.777  18.980  0.00  0.00    +0.000 A 
ENDBRANCH   3  25
TORSDOF 3
ENDMDL
