MODEL 1
REMARK VINA RESULT:      -8.7      0.000      0.000
REMARK  Name = 
REMARK  5 active torsions:
REMARK  status: ('A' for Active; 'I' for Inactive)
REMARK    1  A    between atoms: C_2  and  C_3
REMARK    2  A    between atoms: C_3  and  C_4
REMARK    3  A    between atoms: N_13  and  C_14
REMARK    4  A    between atoms: N_21  and  C_22
REMARK    5  A    between atoms: C_22  and  C_23
REMARK                            x       y       z     vdW  Elec       q    Type
REMARK                         _______ _______ _______ _____ _____    ______ ____
ROOT
ATOM      1  O   UNL     1       2.070   7.449  19.246  0.00  0.00    +0.000 OA
ATOM      2  C   UNL     1       2.557   7.993  18.249  0.00  0.00    +0.000 C 
ATOM      3  N   UNL     1       3.668   7.522  17.602  0.00  0.00    +0.000 N 
ATOM      4  H   UNL     1       4.213   8.212  17.093  0.00  0.00    +0.000 HD
ENDROOT
BRANCH   3   5
ATOM      5  C   UNL     1       4.313   6.246  17.870  0.00  0.00    +0.000 C 
ATOM      6  C   UNL     1       5.768   6.346  18.420  0.00  0.00    +0.000 C 
ATOM      7  C   UNL     1       6.535   4.990  18.497  0.00  0.00    +0.000 C 
ATOM      8  C   UNL     1       7.426   4.712  17.295  0.00  0.00    +0.000 C 
ATOM      9  C   UNL     1       6.428   4.356  16.204  0.00  0.00    +0.000 C 
ATOM     10  C   UNL     1       5.112   4.031  16.978  0.00  0.00    +0.000 C 
ATOM     11  C   UNL     1       4.150   5.214  16.767  0.00  0.00    +0.000 C 
ATOM     12  N   UNL     1       5.628   3.840  18.348  0.00  0.00    +0.000 NA
BRANCH  12  13
ATOM     13  C   UNL     1       4.839   3.688  19.570  0.00  0.00    +0.000 C 
BRANCH  13  14
ATOM     14  C   UNL     1       3.353   3.455  19.533  0.00  0.00    +0.000 A 
ATOM     15  C   UNL     1       2.765   2.365  18.894  0.00  0.00    +0.000 A 
ATOM     16  C   UNL     1       1.410   2.083  19.092  0.00  0.00    +0.000 A 
ATOM     17  C   UNL     1       0.632   2.879  19.937  0.00  0.00    +0.000 A 
ATOM     18  C   UNL     1       1.202   3.971  20.579  0.00  0.00    +0.000 A 
ATOM     19  C   UNL     1       2.550   4.258  20.374  0.00  0.00    +0.000 A 
ENDBRANCH  13  14
ENDBRANCH  12  13
ENDBRANCH   3   5
BRANCH   2  20
ATOM     20  C   UNL     1       1.901   9.169  17.555  0.00  0.00    +0.000 C 
BRANCH  20  21
ATOM     21  C   UNL     1       0.966   9.958  18.404  0.00  0.00    +0.000 A 
ATOM     22  C   UNL     1       1.323  10.710  19.511  0.00  0.00    +0.000 A 
ATOM     23  N   UNL     1       0.222  11.399  19.938  0.00  0.00    +0.000 N 
ATOM     24  C   UNL     1      -0.858  11.115  19.138  0.00  0.00    +0.000 A 
ATOM     25  C   UNL     1      -2.165  11.618  19.177  0.00  0.00    +0.000 A 
ATOM     26  C   UNL     1      -3.069  11.150  18.223  0.00  0.00    +0.000 A 
ATOM     27  C   UNL     1      -2.682  10.212  17.270  0.00  0.00    +0.000 A 
ATOM     28  C   UNL     1      -1.369   9.728  17.236  0.00  0.00    +0.000 A 
ATOM     29  C   UNL     1      -0.431  10.190  18.184  0.00  0.00    +0.000 A 
ATOM     30  H   UNL     1       0.204  12.054  20.708  0.00  0.00    +0.000 HD
ENDBRANCH  20  21
ENDBRANCH   2  20
TORSDOF 5
ENDMDL
MODEL 2
REMARK VINA RESULT:      -8.7      1.981      4.225
REMARK  Name = 
REMARK  5 active torsions:
REMARK  status: ('A' for Active; 'I' for Inactive)
REMARK    1  A    between atoms: C_2  and  C_3
REMARK    2  A    between atoms: C_3  and  C_4
REMARK    3  A    between atoms: N_13  and  C_14
REMARK    4  A    between atoms: N_21  and  C_22
REMARK    5  A    between atoms: C_22  and  C_23
REMARK                            x       y       z     vdW  Elec       q    Type
REMARK                         _______ _______ _______ _____ _____    ______ ____
ROOT
ATOM      1  O   UNL     1       3.369   8.473  17.796  0.00  0.00    +0.000 OA
ATOM      2  C   UNL     1       2.210   8.195  18.125  0.00  0.00    +0.000 C 
ATOM      3  N   UNL     1       1.757   6.911  18.270  0.00  0.00    +0.000 N 
ATOM      4  H   UNL     1       0.759   6.773  18.132  0.00  0.00    +0.000 HD
ENDROOT
BRANCH   3   5
ATOM      5  C   UNL     1       2.592   5.721  18.241  0.00  0.00    +0.000 C 
ATOM      6  C   UNL     1       1.934   4.469  17.586  0.00  0.00    +0.000 C 
ATOM      7  C   UNL     1       2.738   3.143  17.753  0.00  0.00    +0.000 C 
ATOM      8  C   UNL     1       2.282   2.284  18.924  0.00  0.00    +0.000 C 
ATOM      9  C   UNL     1       2.820   3.039  20.130  0.00  0.00    +0.000 C 
ATOM     10  C   UNL     1       3.897   3.999  19.535  0.00  0.00    +0.000 C 
ATOM     11  C   UNL     1       3.304   5.419  19.550  0.00  0.00    +0.000 C 
ATOM     12  N   UNL     1       4.116   3.392  18.207  0.00  0.00    +0.000 NA
BRANCH  12  13
ATOM     13  C   UNL     1       4.892   3.954  17.103  0.00  0.00    +0.000 C 
BRANCH  13  14
ATOM     14  C   UNL     1       5.971   4.978  17.329  0.00  0.00    +0.000 A 
ATOM     15  C   UNL     1       5.924   6.268  16.803  0.00  0.00    +0.000 A 
ATOM     16  C   UNL     1       6.835   7.236  17.237  0.00  0.00    +0.000 A 
ATOM     17  C   UNL     1       7.794   6.929  18.207  0.00  0.00    +0.000 A 
ATOM     18  C   UNL     1       7.856   5.648  18.738  0.00  0.00    +0.000 A 
ATOM     19  C   UNL     1       6.955   4.680  18.299  0.00  0.00    +0.000 A 
ENDBRANCH  13  14
ENDBRANCH  12  13
ENDBRANCH   3   5
BRANCH   2  20
ATOM     20  C   UNL     1       1.200   9.248  18.530  0.00  0.00    +0.000 C 
BRANCH  20  21
ATOM     21  C   UNL     1       0.835   9.248  19.974  0.00  0.00    +0.000 A 
ATOM     22  C   UNL     1       1.387   8.426  20.943  0.00  0.00    +0.000 A 
ATOM     23  N   UNL     1       0.906   8.815  22.163  0.00  0.00    +0.000 N 
ATOM     24  C   UNL     1       0.045   9.876  22.019  0.00  0.00    +0.000 A 
ATOM     25  C   UNL     1      -0.641  10.616  22.991  0.00  0.00    +0.000 A 
ATOM     26  C   UNL     1      -1.457  11.661  22.554  0.00  0.00    +0.000 A 
ATOM     27  C   UNL     1      -1.585  11.950  21.198  0.00  0.00    +0.000 A 
ATOM     28  C   UNL     1      -0.883  11.208  20.241  0.00  0.00    +0.000 A 
ATOM     29  C   UNL     1      -0.044  10.152  20.654  0.00  0.00    +0.000 A 
ATOM     30  H   UNL     1       1.170   8.411  23.051  0.00  0.00    +0.000 HD
ENDBRANCH  20  21
ENDBRANCH   2  20
TORSDOF 5
ENDMDL
MODEL 3
REMARK VINA RESULT:      -8.7      1.952      4.290
REMARK  Name = 
REMARK  5 active torsions:
REMARK  status: ('A' for Active; 'I' for Inactive)
REMARK    1  A    between atoms: C_2  and  C_3
REMARK    2  A    between atoms: C_3  and  C_4
REMARK    3  A    between atoms: N_13  and  C_14
REMARK    4  A    between atoms: N_21  and  C_22
REMARK    5  A    between atoms: C_22  and  C_23
REMARK                            x       y       z     vdW  Elec       q    Type
REMARK                         _______ _______ _______ _____ _____    ______ ____
ROOT
ATOM      1  O   UNL     1       3.196   8.727  17.738  0.00  0.00    +0.000 OA
ATOM      2  C   UNL     1       1.997   8.434  17.799  0.00  0.00    +0.000 C 
ATOM      3  N   UNL     1       1.543   7.155  17.979  0.00  0.00    +0.000 N 
ATOM      4  H   UNL     1       0.615   6.957  17.615  0.00  0.00    +0.000 HD
ENDROOT
BRANCH   3   5
ATOM      5  C   UNL     1       2.379   6.009  18.302  0.00  0.00    +0.000 C 
ATOM      6  C   UNL     1       1.865   4.643  17.753  0.00  0.00    +0.000 C 
ATOM      7  C   UNL     1       2.633   3.394  18.283  0.00  0.00    +0.000 C 
ATOM      8  C   UNL     1       1.972   2.718  19.475  0.00  0.00    +0.000 C 
ATOM      9  C   UNL     1       2.268   3.676  20.618  0.00  0.00    +0.000 C 
ATOM     10  C   UNL     1       3.430   4.569  20.081  0.00  0.00    +0.000 C 
ATOM     11  C   UNL     1       2.833   5.950  19.751  0.00  0.00    +0.000 C 
ATOM     12  N   UNL     1       3.899   3.765  18.935  0.00  0.00    +0.000 NA
BRANCH  12  13
ATOM     13  C   UNL     1       4.866   4.172  17.916  0.00  0.00    +0.000 C 
BRANCH  13  14
ATOM     14  C   UNL     1       5.862   5.273  18.158  0.00  0.00    +0.000 A 
ATOM     15  C   UNL     1       6.915   5.167  19.065  0.00  0.00    +0.000 A 
ATOM     16  C   UNL     1       7.932   6.126  19.076  0.00  0.00    +0.000 A 
ATOM     17  C   UNL     1       7.914   7.194  18.174  0.00  0.00    +0.000 A 
ATOM     18  C   UNL     1       6.870   7.316  17.265  0.00  0.00    +0.000 A 
ATOM     19  C   UNL     1       5.851   6.366  17.262  0.00  0.00    +0.000 A 
ENDBRANCH  13  14
ENDBRANCH  12  13
ENDBRANCH   3   5
BRANCH   2  20
ATOM     20  C   UNL     1       0.899   9.478  17.811  0.00  0.00    +0.000 C 
BRANCH  20  21
ATOM     21  C   UNL     1       0.837  10.312  19.043  0.00  0.00    +0.000 A 
ATOM     22  C   UNL     1       1.113  11.667  19.112  0.00  0.00    +0.000 A 
ATOM     23  N   UNL     1       0.811  12.104  20.373  0.00  0.00    +0.000 N 
ATOM     24  C   UNL     1       0.344  11.064  21.139  0.00  0.00    +0.000 A 
ATOM     25  C   UNL     1      -0.118  11.058  22.461  0.00  0.00    +0.000 A 
ATOM     26  C   UNL     1      -0.545   9.839  22.993  0.00  0.00    +0.000 A 
ATOM     27  C   UNL     1      -0.506   8.674  22.233  0.00  0.00    +0.000 A 
ATOM     28  C   UNL     1      -0.053   8.700  20.908  0.00  0.00    +0.000 A 
ATOM     29  C   UNL     1       0.377   9.919  20.342  0.00  0.00    +0.000 A 
ATOM     30  H   UNL     1       0.882  13.061  20.692  0.00  0.00    +0.000 HD
ENDBRANCH  20  21
ENDBRANCH   2  20
TORSDOF 5
ENDMDL
MODEL 4
REMARK VINA RESULT:      -8.7      2.023      4.399
REMARK  Name = 
REMARK  5 active torsions:
REMARK  status: ('A' for Active; 'I' for Inactive)
REMARK    1  A    between atoms: C_2  and  C_3
REMARK    2  A    between atoms: C_3  and  C_4
REMARK    3  A    between atoms: N_13  and  C_14
REMARK    4  A    between atoms: N_21  and  C_22
REMARK    5  A    between atoms: C_22  and  C_23
REMARK                            x       y       z     vdW  Elec       q    Type
REMARK                         _______ _______ _______ _____ _____    ______ ____
ROOT
ATOM      1  O   UNL     1       2.215   8.134  19.363  0.00  0.00    +0.000 OA
ATOM      2  C   UNL     1       1.687   7.829  20.439  0.00  0.00    +0.000 C 
ATOM      3  N   UNL     1       1.589   6.541  20.890  0.00  0.00    +0.000 N 
ATOM      4  H   UNL     1       0.820   6.350  21.527  0.00  0.00    +0.000 HD
ENDROOT
BRANCH   3   5
ATOM      5  C   UNL     1       2.235   5.389  20.280  0.00  0.00    +0.000 C 
ATOM      6  C   UNL     1       1.699   5.006  18.867  0.00  0.00    +0.000 C 
ATOM      7  C   UNL     1       2.231   3.649  18.310  0.00  0.00    +0.000 C 
ATOM      8  C   UNL     1       1.299   2.471  18.553  0.00  0.00    +0.000 C 
ATOM      9  C   UNL     1       1.472   2.199  20.039  0.00  0.00    +0.000 C 
ATOM     10  C   UNL     1       2.795   2.938  20.414  0.00  0.00    +0.000 C 
ATOM     11  C   UNL     1       2.407   4.198  21.208  0.00  0.00    +0.000 C 
ATOM     12  N   UNL     1       3.386   3.158  19.079  0.00  0.00    +0.000 NA
BRANCH  12  13
ATOM     13  C   UNL     1       4.558   3.972  18.762  0.00  0.00    +0.000 C 
BRANCH  13  14
ATOM     14  C   UNL     1       4.795   4.522  17.382  0.00  0.00    +0.000 A 
ATOM     15  C   UNL     1       4.754   5.883  17.083  0.00  0.00    +0.000 A 
ATOM     16  C   UNL     1       5.208   6.344  15.843  0.00  0.00    +0.000 A 
ATOM     17  C   UNL     1       5.716   5.452  14.894  0.00  0.00    +0.000 A 
ATOM     18  C   UNL     1       5.761   4.092  15.175  0.00  0.00    +0.000 A 
ATOM     19  C   UNL     1       5.299   3.632  16.407  0.00  0.00    +0.000 A 
ENDBRANCH  13  14
ENDBRANCH  12  13
ENDBRANCH   3   5
BRANCH   2  20
ATOM     20  C   UNL     1       1.208   8.863  21.436  0.00  0.00    +0.000 C 
BRANCH  20  21
ATOM     21  C   UNL     1       0.388   9.964  20.857  0.00  0.00    +0.000 A 
ATOM     22  C   UNL     1       0.339  10.311  19.518  0.00  0.00    +0.000 A 
ATOM     23  N   UNL     1      -0.625  11.268  19.355  0.00  0.00    +0.000 N 
ATOM     24  C   UNL     1      -1.212  11.562  20.562  0.00  0.00    +0.000 A 
ATOM     25  C   UNL     1      -2.261  12.440  20.861  0.00  0.00    +0.000 A 
ATOM     26  C   UNL     1      -2.665  12.537  22.195  0.00  0.00    +0.000 A 
ATOM     27  C   UNL     1      -2.039  11.790  23.188  0.00  0.00    +0.000 A 
ATOM     28  C   UNL     1      -1.000  10.907  22.869  0.00  0.00    +0.000 A 
ATOM     29  C   UNL     1      -0.577  10.782  21.530  0.00  0.00    +0.000 A 
ATOM     30  H   UNL     1      -0.899  11.678  18.473  0.00  0.00    +0.000 HD
ENDBRANCH  20  21
ENDBRANCH   2  20
TORSDOF 5
ENDMDL
MODEL 5
REMARK VINA RESULT:      -8.6      1.653      4.096
REMARK  Name = 
REMARK  5 active torsions:
REMARK  status: ('A' for Active; 'I' for Inactive)
REMARK    1  A    between atoms: C_2  and  C_3
REMARK    2  A    between atoms: C_3  and  C_4
REMARK    3  A    between atoms: N_13  and  C_14
REMARK    4  A    between atoms: N_21  and  C_22
REMARK    5  A    between atoms: C_22  and  C_23
REMARK                            x       y       z     vdW  Elec       q    Type
REMARK                         _______ _______ _______ _____ _____    ______ ____
ROOT
ATOM      1  O   UNL     1       2.811   8.358  18.090  0.00  0.00    +0.000 OA
ATOM      2  C   UNL     1       2.115   7.943  19.023  0.00  0.00    +0.000 C 
ATOM      3  N   UNL     1       1.965   6.614  19.317  0.00  0.00    +0.000 N 
ATOM      4  H   UNL     1       1.104   6.358  19.791  0.00  0.00    +0.000 HD
ENDROOT
BRANCH   3   5
ATOM      5  C   UNL     1       2.725   5.533  18.709  0.00  0.00    +0.000 C 
ATOM      6  C   UNL     1       1.907   4.604  17.761  0.00  0.00    +0.000 C 
ATOM      7  C   UNL     1       2.661   3.323  17.288  0.00  0.00    +0.000 C 
ATOM      8  C   UNL     1       2.360   2.084  18.118  0.00  0.00    +0.000 C 
ATOM      9  C   UNL     1       3.125   2.344  19.407  0.00  0.00    +0.000 C 
ATOM     10  C   UNL     1       4.136   3.472  19.035  0.00  0.00    +0.000 C 
ATOM     11  C   UNL     1       3.624   4.776  19.673  0.00  0.00    +0.000 C 
ATOM     12  N   UNL     1       4.105   3.406  17.560  0.00  0.00    +0.000 NA
BRANCH  12  13
ATOM     13  C   UNL     1       4.718   4.350  16.627  0.00  0.00    +0.000 C 
BRANCH  13  14
ATOM     14  C   UNL     1       5.863   5.238  17.030  0.00  0.00    +0.000 A 
ATOM     15  C   UNL     1       5.878   6.615  16.812  0.00  0.00    +0.000 A 
ATOM     16  C   UNL     1       6.859   7.411  17.412  0.00  0.00    +0.000 A 
ATOM     17  C   UNL     1       7.827   6.841  18.245  0.00  0.00    +0.000 A 
ATOM     18  C   UNL     1       7.828   5.471  18.470  0.00  0.00    +0.000 A 
ATOM     19  C   UNL     1       6.857   4.677  17.864  0.00  0.00    +0.000 A 
ENDBRANCH  13  14
ENDBRANCH  12  13
ENDBRANCH   3   5
BRANCH   2  20
ATOM     20  C   UNL     1       1.456   8.867  20.026  0.00  0.00    +0.000 C 
BRANCH  20  21
ATOM     21  C   UNL     1       0.475   9.827  19.447  0.00  0.00    +0.000 A 
ATOM     22  C   UNL     1       0.135   9.920  18.108  0.00  0.00    +0.000 A 
ATOM     23  N   UNL     1      -0.895  10.812  17.985  0.00  0.00    +0.000 N 
ATOM     24  C   UNL     1      -1.239  11.313  19.217  0.00  0.00    +0.000 A 
ATOM     25  C   UNL     1      -2.254  12.212  19.571  0.00  0.00    +0.000 A 
ATOM     26  C   UNL     1      -2.382  12.547  20.920  0.00  0.00    +0.000 A 
ATOM     27  C   UNL     1      -1.527  12.007  21.876  0.00  0.00    +0.000 A 
ATOM     28  C   UNL     1      -0.526  11.099  21.507  0.00  0.00    +0.000 A 
ATOM     29  C   UNL     1      -0.378  10.737  20.152  0.00  0.00    +0.000 A 
ATOM     30  H   UNL     1      -1.366  11.047  17.122  0.00  0.00    +0.000 HD
ENDBRANCH  20  21
ENDBRANCH   2  20
TORSDOF 5
ENDMDL
MODEL 6
REMARK VINA RESULT:      -8.5      4.858      7.111
REMARK  Name = 
REMARK  5 active torsions:
REMARK  status: ('A' for Active; 'I' for Inactive)
REMARK    1  A    between atoms: C_2  and  C_3
REMARK    2  A    between atoms: C_3  and  C_4
REMARK    3  A    between atoms: N_13  and  C_14
REMARK    4  A    between atoms: N_21  and  C_22
REMARK    5  A    between atoms: C_22  and  C_23
REMARK                            x       y       z     vdW  Elec       q    Type
REMARK                         _______ _______ _______ _____ _____    ______ ____
ROOT
ATOM      1  O   UNL     1       8.547   7.956  18.809  0.00  0.00    +0.000 OA
ATOM      2  C   UNL     1       8.085   8.585  17.851  0.00  0.00    +0.000 C 
ATOM      3  N   UNL     1       7.125   8.083  17.014  0.00  0.00    +0.000 N 
ATOM      4  H   UNL     1       7.112   8.465  16.073  0.00  0.00    +0.000 HD
ENDROOT
BRANCH   3   5
ATOM      5  C   UNL     1       6.395   6.843  17.228  0.00  0.00    +0.000 C 
ATOM      6  C   UNL     1       7.266   5.551  17.196  0.00  0.00    +0.000 C 
ATOM      7  C   UNL     1       6.460   4.216  17.203  0.00  0.00    +0.000 C 
ATOM      8  C   UNL     1       6.228   3.624  15.820  0.00  0.00    +0.000 C 
ATOM      9  C   UNL     1       5.165   4.538  15.231  0.00  0.00    +0.000 C 
ATOM     10  C   UNL     1       4.570   5.283  16.467  0.00  0.00    +0.000 C 
ATOM     11  C   UNL     1       5.105   6.726  16.433  0.00  0.00    +0.000 C 
ATOM     12  N   UNL     1       5.051   4.430  17.572  0.00  0.00    +0.000 NA
BRANCH  12  13
ATOM     13  C   UNL     1       4.966   4.717  19.003  0.00  0.00    +0.000 C 
BRANCH  13  14
ATOM     14  C   UNL     1       3.732   4.407  19.805  0.00  0.00    +0.000 A 
ATOM     15  C   UNL     1       2.699   5.321  20.007  0.00  0.00    +0.000 A 
ATOM     16  C   UNL     1       1.486   4.900  20.560  0.00  0.00    +0.000 A 
ATOM     17  C   UNL     1       1.289   3.561  20.908  0.00  0.00    +0.000 A 
ATOM     18  C   UNL     1       2.308   2.637  20.716  0.00  0.00    +0.000 A 
ATOM     19  C   UNL     1       3.521   3.059  20.174  0.00  0.00    +0.000 A 
ENDBRANCH  13  14
ENDBRANCH  12  13
ENDBRANCH   3   5
BRANCH   2  20
ATOM     20  C   UNL     1       8.435  10.033  17.577  0.00  0.00    +0.000 C 
BRANCH  20  21
ATOM     21  C   UNL     1       9.112  10.740  18.700  0.00  0.00    +0.000 A 
ATOM     22  C   UNL     1       9.164  10.302  20.012  0.00  0.00    +0.000 A 
ATOM     23  N   UNL     1       9.989  11.138  20.714  0.00  0.00    +0.000 N 
ATOM     24  C   UNL     1      10.480  12.122  19.891  0.00  0.00    +0.000 A 
ATOM     25  C   UNL     1      11.382  13.158  20.167  0.00  0.00    +0.000 A 
ATOM     26  C   UNL     1      11.715  14.024  19.123  0.00  0.00    +0.000 A 
ATOM     27  C   UNL     1      11.163  13.861  17.856  0.00  0.00    +0.000 A 
ATOM     28  C   UNL     1      10.273  12.813  17.594  0.00  0.00    +0.000 A 
ATOM     29  C   UNL     1       9.925  11.918  18.627  0.00  0.00    +0.000 A 
ATOM     30  H   UNL     1      10.237  11.032  21.688  0.00  0.00    +0.000 HD
ENDBRANCH  20  21
ENDBRANCH   2  20
TORSDOF 5
ENDMDL
MODEL 7
REMARK VINA RESULT:      -8.5      1.641      3.836
REMARK  Name = 
REMARK  5 active torsions:
REMARK  status: ('A' for Active; 'I' for Inactive)
REMARK    1  A    between atoms: C_2  and  C_3
REMARK    2  A    between atoms: C_3  and  C_4
REMARK    3  A    between atoms: N_13  and  C_14
REMARK    4  A    between atoms: N_21  and  C_22
REMARK    5  A    between atoms: C_22  and  C_23
REMARK                            x       y       z     vdW  Elec       q    Type
REMARK                         _______ _______ _______ _____ _____    ______ ____
ROOT
ATOM      1  O   UNL     1       2.181   8.355  19.354  0.00  0.00    +0.000 OA
ATOM      2  C   UNL     1       1.534   8.031  20.356  0.00  0.00    +0.000 C 
ATOM      3  N   UNL     1       1.422   6.738  20.793  0.00  0.00    +0.000 N 
ATOM      4  H   UNL     1       0.587   6.521  21.330  0.00  0.00    +0.000 HD
ENDROOT
BRANCH   3   5
ATOM      5  C   UNL     1       2.174   5.610  20.267  0.00  0.00    +0.000 C 
ATOM      6  C   UNL     1       1.798   5.185  18.815  0.00  0.00    +0.000 C 
ATOM      7  C   UNL     1       2.441   3.848  18.336  0.00  0.00    +0.000 C 
ATOM      8  C   UNL     1       1.543   2.631  18.505  0.00  0.00    +0.000 C 
ATOM      9  C   UNL     1       1.581   2.386  20.005  0.00  0.00    +0.000 C 
ATOM     10  C   UNL     1       2.826   3.188  20.496  0.00  0.00    +0.000 C 
ATOM     11  C   UNL     1       2.307   4.439  21.227  0.00  0.00    +0.000 C 
ATOM     12  N   UNL     1       3.535   3.418  19.222  0.00  0.00    +0.000 NA
BRANCH  12  13
ATOM     13  C   UNL     1       4.696   4.282  19.008  0.00  0.00    +0.000 C 
BRANCH  13  14
ATOM     14  C   UNL     1       5.139   4.692  17.630  0.00  0.00    +0.000 A 
ATOM     15  C   UNL     1       5.434   3.781  16.617  0.00  0.00    +0.000 A 
ATOM     16  C   UNL     1       5.614   4.225  15.303  0.00  0.00    +0.000 A 
ATOM     17  C   UNL     1       5.492   5.581  14.987  0.00  0.00    +0.000 A 
ATOM     18  C   UNL     1       5.202   6.503  15.985  0.00  0.00    +0.000 A 
ATOM     19  C   UNL     1       5.032   6.061  17.295  0.00  0.00    +0.000 A 
ENDBRANCH  13  14
ENDBRANCH  12  13
ENDBRANCH   3   5
BRANCH   2  20
ATOM     20  C   UNL     1       0.902   9.045  21.286  0.00  0.00    +0.000 C 
BRANCH  20  21
ATOM     21  C   UNL     1       0.555  10.348  20.653  0.00  0.00    +0.000 A 
ATOM     22  C   UNL     1       1.203  11.550  20.878  0.00  0.00    +0.000 A 
ATOM     23  N   UNL     1       0.694  12.483  20.017  0.00  0.00    +0.000 N 
ATOM     24  C   UNL     1      -0.281  11.922  19.229  0.00  0.00    +0.000 A 
ATOM     25  C   UNL     1      -1.035  12.485  18.192  0.00  0.00    +0.000 A 
ATOM     26  C   UNL     1      -1.967  11.668  17.549  0.00  0.00    +0.000 A 
ATOM     27  C   UNL     1      -2.140  10.341  17.933  0.00  0.00    +0.000 A 
ATOM     28  C   UNL     1      -1.368   9.790  18.963  0.00  0.00    +0.000 A 
ATOM     29  C   UNL     1      -0.414  10.590  19.625  0.00  0.00    +0.000 A 
ATOM     30  H   UNL     1       1.011  13.440  19.938  0.00  0.00    +0.000 HD
ENDBRANCH  20  21
ENDBRANCH   2  20
TORSDOF 5
ENDMDL
MODEL 8
REMARK VINA RESULT:      -8.5      1.795      4.263
REMARK  Name = 
REMARK  5 active torsions:
REMARK  status: ('A' for Active; 'I' for Inactive)
REMARK    1  A    between atoms: C_2  and  C_3
REMARK    2  A    between atoms: C_3  and  C_4
REMARK    3  A    between atoms: N_13  and  C_14
REMARK    4  A    between atoms: N_21  and  C_22
REMARK    5  A    between atoms: C_22  and  C_23
REMARK                            x       y       z     vdW  Elec       q    Type
REMARK                         _______ _______ _______ _____ _____    ______ ____
ROOT
ATOM      1  O   UNL     1       2.847   8.480  17.907  0.00  0.00    +0.000 OA
ATOM      2  C   UNL     1       2.092   8.124  18.819  0.00  0.00    +0.000 C 
ATOM      3  N   UNL     1       1.901   6.815  19.170  0.00  0.00    +0.000 N 
ATOM      4  H   UNL     1       1.010   6.597  19.607  0.00  0.00    +0.000 HD
ENDROOT
BRANCH   3   5
ATOM      5  C   UNL     1       2.674   5.692  18.663  0.00  0.00    +0.000 C 
ATOM      6  C   UNL     1       1.882   4.705  17.753  0.00  0.00    +0.000 C 
ATOM      7  C   UNL     1       2.643   3.392  17.392  0.00  0.00    +0.000 C 
ATOM      8  C   UNL     1       2.309   2.213  18.294  0.00  0.00    +0.000 C 
ATOM      9  C   UNL     1       3.032   2.556  19.587  0.00  0.00    +0.000 C 
ATOM     10  C   UNL     1       4.062   3.653  19.173  0.00  0.00    +0.000 C 
ATOM     11  C   UNL     1       3.537   4.999  19.704  0.00  0.00    +0.000 C 
ATOM     12  N   UNL     1       4.078   3.488  17.705  0.00  0.00    +0.000 NA
BRANCH  12  13
ATOM     13  C   UNL     1       4.727   4.364  16.731  0.00  0.00    +0.000 C 
BRANCH  13  14
ATOM     14  C   UNL     1       5.878   5.256  17.106  0.00  0.00    +0.000 A 
ATOM     15  C   UNL     1       5.909   6.623  16.832  0.00  0.00    +0.000 A 
ATOM     16  C   UNL     1       6.894   7.432  17.406  0.00  0.00    +0.000 A 
ATOM     17  C   UNL     1       7.851   6.888  18.268  0.00  0.00    +0.000 A 
ATOM     18  C   UNL     1       7.836   5.528  18.550  0.00  0.00    +0.000 A 
ATOM     19  C   UNL     1       6.861   4.719  17.969  0.00  0.00    +0.000 A 
ENDBRANCH  13  14
ENDBRANCH  12  13
ENDBRANCH   3   5
BRANCH   2  20
ATOM     20  C   UNL     1       1.395   9.109  19.734  0.00  0.00    +0.000 C 
BRANCH  20  21
ATOM     21  C   UNL     1       0.655  10.199  19.039  0.00  0.00    +0.000 A 
ATOM     22  C   UNL     1      -0.380  10.021  18.137  0.00  0.00    +0.000 A 
ATOM     23  N   UNL     1      -0.896  11.248  17.824  0.00  0.00    +0.000 N 
ATOM     24  C   UNL     1      -0.221  12.235  18.501  0.00  0.00    +0.000 A 
ATOM     25  C   UNL     1      -0.432  13.619  18.519  0.00  0.00    +0.000 A 
ATOM     26  C   UNL     1       0.415  14.394  19.314  0.00  0.00    +0.000 A 
ATOM     27  C   UNL     1       1.435  13.807  20.057  0.00  0.00    +0.000 A 
ATOM     28  C   UNL     1       1.625  12.420  20.037  0.00  0.00    +0.000 A 
ATOM     29  C   UNL     1       0.779  11.611  19.249  0.00  0.00    +0.000 A 
ATOM     30  H   UNL     1      -1.685  11.413  17.215  0.00  0.00    +0.000 HD
ENDBRANCH  20  21
ENDBRANCH   2  20
TORSDOF 5
ENDMDL
MODEL 9
REMARK VINA RESULT:      -8.4      1.585      3.920
REMARK  Name = 
REMARK  5 active torsions:
REMARK  status: ('A' for Active; 'I' for Inactive)
REMARK    1  A    between atoms: C_2  and  C_3
REMARK    2  A    between atoms: C_3  and  C_4
REMARK    3  A    between atoms: N_13  and  C_14
REMARK    4  A    between atoms: N_21  and  C_22
REMARK    5  A    between atoms: C_22  and  C_23
REMARK                            x       y       z     vdW  Elec       q    Type
REMARK                         _______ _______ _______ _____ _____    ______ ____
ROOT
ATOM      1  O   UNL     1       2.323   8.487  18.753  0.00  0.00    +0.000 OA
ATOM      2  C   UNL     1       1.745   7.924  19.690  0.00  0.00    +0.000 C 
ATOM      3  N   UNL     1       1.774   6.570  19.888  0.00  0.00    +0.000 N 
ATOM      4  H   UNL     1       0.983   6.177  20.389  0.00  0.00    +0.000 HD
ENDROOT
BRANCH   3   5
ATOM      5  C   UNL     1       2.616   5.636  19.156  0.00  0.00    +0.000 C 
ATOM      6  C   UNL     1       1.903   4.875  17.997  0.00  0.00    +0.000 C 
ATOM      7  C   UNL     1       2.737   3.721  17.360  0.00  0.00    +0.000 C 
ATOM      8  C   UNL     1       2.427   2.344  17.930  0.00  0.00    +0.000 C 
ATOM      9  C   UNL     1       3.088   2.385  19.299  0.00  0.00    +0.000 C 
ATOM     10  C   UNL     1       4.079   3.587  19.213  0.00  0.00    +0.000 C 
ATOM     11  C   UNL     1       3.474   4.741  20.034  0.00  0.00    +0.000 C 
ATOM     12  N   UNL     1       4.154   3.789  17.752  0.00  0.00    +0.000 NA
BRANCH  12  13
ATOM     13  C   UNL     1       4.794   4.902  17.052  0.00  0.00    +0.000 C 
BRANCH  13  14
ATOM     14  C   UNL     1       5.889   5.716  17.686  0.00  0.00    +0.000 A 
ATOM     15  C   UNL     1       6.795   5.195  18.608  0.00  0.00    +0.000 A 
ATOM     16  C   UNL     1       7.921   5.935  18.981  0.00  0.00    +0.000 A 
ATOM     17  C   UNL     1       8.159   7.197  18.429  0.00  0.00    +0.000 A 
ATOM     18  C   UNL     1       7.265   7.733  17.512  0.00  0.00    +0.000 A 
ATOM     19  C   UNL     1       6.137   6.999  17.148  0.00  0.00    +0.000 A 
ENDBRANCH  13  14
ENDBRANCH  12  13
ENDBRANCH   3   5
BRANCH   2  20
ATOM     20  C   UNL     1       1.048   8.687  20.797  0.00  0.00    +0.000 C 
BRANCH  20  21
ATOM     21  C   UNL     1       0.585  10.053  20.425  0.00  0.00    +0.000 A 
ATOM     22  C   UNL     1       1.105  11.240  20.913  0.00  0.00    +0.000 A 
ATOM     23  N   UNL     1       0.523  12.276  20.236  0.00  0.00    +0.000 N 
ATOM     24  C   UNL     1      -0.375  11.798  19.313  0.00  0.00    +0.000 A 
ATOM     25  C   UNL     1      -1.161  12.488  18.381  0.00  0.00    +0.000 A 
ATOM     26  C   UNL     1      -1.993  11.734  17.551  0.00  0.00    +0.000 A 
ATOM     27  C   UNL     1      -2.040  10.347  17.653  0.00  0.00    +0.000 A 
ATOM     28  C   UNL     1      -1.238   9.672  18.582  0.00  0.00    +0.000 A 
ATOM     29  C   UNL     1      -0.382  10.407  19.428  0.00  0.00    +0.000 A 
ATOM     30  H   UNL     1       0.743  13.255  20.364  0.00  0.00    +0.000 HD
ENDBRANCH  20  21
ENDBRANCH   2  20
TORSDOF 5
ENDMDL
