MODEL 1
REMARK VINA RESULT:      -7.6      0.000      0.000
REMARK  Name = 
REMARK  3 active torsions:
REMARK  status: ('A' for Active; 'I' for Inactive)
REMARK    1  A    between atoms: C_4  and  C_5
REMARK    2  A    between atoms: C_11  and  C_12
REMARK    3  A    between atoms: C_21  and  C_22
REMARK                            x       y       z     vdW  Elec       q    Type
REMARK                         _______ _______ _______ _____ _____    ______ ____
ROOT
ATOM      1  O   UNL     1      -3.625  10.503  17.650  0.00  0.00    +0.000 OA
ATOM      2  C   UNL     1      -2.620  10.938  18.196  0.00  0.00    +0.000 C 
ATOM      3  N   UNL     1      -1.558  10.152  18.523  0.00  0.00    +0.000 N 
ATOM      4  C   UNL     1      -0.362  10.621  19.020  0.00  0.00    +0.000 C 
ATOM      5  C   UNL     1      -0.280  11.901  19.451  0.00  0.00    +0.000 C 
ATOM      6  C   UNL     1      -1.586  12.687  19.560  0.00  0.00    +0.000 C 
ATOM      7  N   UNL     1      -2.485  12.260  18.500  0.00  0.00    +0.000 N 
ATOM      8  H   UNL     1      -1.633   9.179  18.249  0.00  0.00    +0.000 HD
ATOM      9  H   UNL     1      -3.324  12.799  18.336  0.00  0.00    +0.000 HD
ENDROOT
BRANCH   5  10
ATOM     10  C   UNL     1       0.991  12.485  19.744  0.00  0.00    +0.000 A 
ATOM     11  N   UNL     1       1.588  12.775  20.885  0.00  0.00    +0.000 NA
ATOM     12  C   UNL     1       2.695  13.529  20.549  0.00  0.00    +0.000 A 
ATOM     13  C   UNL     1       3.675  14.125  21.362  0.00  0.00    +0.000 A 
ATOM     14  C   UNL     1       4.661  14.922  20.760  0.00  0.00    +0.000 A 
ATOM     15  C   UNL     1       4.679  15.117  19.377  0.00  0.00    +0.000 A 
ATOM     16  C   UNL     1       3.733  14.505  18.548  0.00  0.00    +0.000 A 
ATOM     17  C   UNL     1       2.762  13.718  19.174  0.00  0.00    +0.000 A 
ATOM     18  N   UNL     1       1.706  12.994  18.686  0.00  0.00    +0.000 N 
ATOM     19  H   UNL     1       1.459  12.902  17.712  0.00  0.00    +0.000 HD
ENDBRANCH   5  10
BRANCH   4  20
ATOM     20  C   UNL     1       0.713   9.620  19.036  0.00  0.00    +0.000 A 
ATOM     21  C   UNL     1       0.942   8.894  20.213  0.00  0.00    +0.000 A 
ATOM     22  C   UNL     1       1.850   7.837  20.222  0.00  0.00    +0.000 A 
ATOM     23  C   UNL     1       2.541   7.506  19.057  0.00  0.00    +0.000 A 
ATOM     24  C   UNL     1       2.325   8.230  17.884  0.00  0.00    +0.000 A 
ATOM     25  C   UNL     1       1.409   9.284  17.869  0.00  0.00    +0.000 A 
ENDBRANCH   4  20
BRANCH   6  26
ATOM     26  C   UNL     1      -2.234  12.608  20.938  0.00  0.00    +0.000 A 
ATOM     27  C   UNL     1      -1.643  11.976  22.044  0.00  0.00    +0.000 A 
ATOM     28  C   UNL     1      -2.297  11.946  23.272  0.00  0.00    +0.000 A 
ATOM     29  C   UNL     1      -3.535  12.547  23.370  0.00  0.00    +0.000 A 
ATOM     30  N   UNL     1      -4.150  13.156  22.336  0.00  0.00    +0.000 NA
ATOM     31  C   UNL     1      -3.489  13.178  21.153  0.00  0.00    +0.000 A 
ENDBRANCH   6  26
TORSDOF 3
ENDMDL
MODEL 2
REMARK VINA RESULT:      -6.9      1.937      5.403
REMARK  Name = 
REMARK  3 active torsions:
REMARK  status: ('A' for Active; 'I' for Inactive)
REMARK    1  A    between atoms: C_4  and  C_5
REMARK    2  A    between atoms: C_11  and  C_12
REMARK    3  A    between atoms: C_21  and  C_22
REMARK                            x       y       z     vdW  Elec       q    Type
REMARK                         _______ _______ _______ _____ _____    ______ ____
ROOT
ATOM      1  O   UNL     1      -2.831  14.323  21.150  0.00  0.00    +0.000 OA
ATOM      2  C   UNL     1      -2.106  13.457  20.680  0.00  0.00    +0.000 C 
ATOM      3  N   UNL     1      -0.880  13.727  20.152  0.00  0.00    +0.000 N 
ATOM      4  C   UNL     1       0.016  12.771  19.729  0.00  0.00    +0.000 C 
ATOM      5  C   UNL     1      -0.396  11.490  19.589  0.00  0.00    +0.000 C 
ATOM      6  C   UNL     1      -1.898  11.224  19.702  0.00  0.00    +0.000 C 
ATOM      7  N   UNL     1      -2.470  12.144  20.671  0.00  0.00    +0.000 N 
ATOM      8  H   UNL     1      -0.584  14.695  20.207  0.00  0.00    +0.000 HD
ATOM      9  H   UNL     1      -3.420  11.987  20.979  0.00  0.00    +0.000 HD
ENDROOT
BRANCH   5  10
ATOM     10  C   UNL     1       0.553  10.441  19.389  0.00  0.00    +0.000 A 
ATOM     11  N   UNL     1       1.261  10.080  18.336  0.00  0.00    +0.000 NA
ATOM     12  C   UNL     1       1.830   8.865  18.664  0.00  0.00    +0.000 A 
ATOM     13  C   UNL     1       2.660   8.013  17.915  0.00  0.00    +0.000 A 
ATOM     14  C   UNL     1       3.036   6.778  18.466  0.00  0.00    +0.000 A 
ATOM     15  C   UNL     1       2.603   6.400  19.739  0.00  0.00    +0.000 A 
ATOM     16  C   UNL     1       1.806   7.248  20.514  0.00  0.00    +0.000 A 
ATOM     17  C   UNL     1       1.445   8.471  19.940  0.00  0.00    +0.000 A 
ATOM     18  N   UNL     1       0.688   9.517  20.398  0.00  0.00    +0.000 N 
ATOM     19  H   UNL     1       0.250   9.570  21.305  0.00  0.00    +0.000 HD
ENDBRANCH   5  10
BRANCH   4  20
ATOM     20  C   UNL     1       1.363  13.293  19.456  0.00  0.00    +0.000 A 
ATOM     21  C   UNL     1       1.691  13.658  18.144  0.00  0.00    +0.000 A 
ATOM     22  C   UNL     1       2.902  14.292  17.873  0.00  0.00    +0.000 A 
ATOM     23  C   UNL     1       3.794  14.557  18.911  0.00  0.00    +0.000 A 
ATOM     24  C   UNL     1       3.478  14.188  20.219  0.00  0.00    +0.000 A 
ATOM     25  C   UNL     1       2.262  13.559  20.495  0.00  0.00    +0.000 A 
ENDBRANCH   4  20
BRANCH   6  26
ATOM     26  C   UNL     1      -2.626  11.263  18.363  0.00  0.00    +0.000 A 
ATOM     27  C   UNL     1      -2.016  10.976  17.132  0.00  0.00    +0.000 A 
ATOM     28  C   UNL     1      -2.748  11.032  15.950  0.00  0.00    +0.000 A 
ATOM     29  C   UNL     1      -4.082  11.379  16.022  0.00  0.00    +0.000 A 
ATOM     30  N   UNL     1      -4.712  11.676  17.177  0.00  0.00    +0.000 NA
ATOM     31  C   UNL     1      -3.978  11.606  18.314  0.00  0.00    +0.000 A 
ENDBRANCH   6  26
TORSDOF 3
ENDMDL
MODEL 3
REMARK VINA RESULT:      -6.8      5.732      9.168
REMARK  Name = 
REMARK  3 active torsions:
REMARK  status: ('A' for Active; 'I' for Inactive)
REMARK    1  A    between atoms: C_4  and  C_5
REMARK    2  A    between atoms: C_11  and  C_12
REMARK    3  A    between atoms: C_21  and  C_22
REMARK                            x       y       z     vdW  Elec       q    Type
REMARK                         _______ _______ _______ _____ _____    ______ ____
ROOT
ATOM      1  O   UNL     1       6.410   3.481  14.542  0.00  0.00    +0.000 OA
ATOM      2  C   UNL     1       5.824   4.129  15.400  0.00  0.00    +0.000 C 
ATOM      3  N   UNL     1       6.449   5.047  16.187  0.00  0.00    +0.000 N 
ATOM      4  C   UNL     1       5.807   5.883  17.073  0.00  0.00    +0.000 C 
ATOM      5  C   UNL     1       4.513   5.649  17.387  0.00  0.00    +0.000 C 
ATOM      6  C   UNL     1       3.903   4.334  16.901  0.00  0.00    +0.000 C 
ATOM      7  N   UNL     1       4.486   3.988  15.614  0.00  0.00    +0.000 N 
ATOM      8  H   UNL     1       7.434   5.192  15.992  0.00  0.00    +0.000 HD
ATOM      9  H   UNL     1       4.069   3.234  15.086  0.00  0.00    +0.000 HD
ENDROOT
BRANCH   5  10
ATOM     10  C   UNL     1       3.754   6.623  18.105  0.00  0.00    +0.000 A 
ATOM     11  N   UNL     1       3.261   6.632  19.329  0.00  0.00    +0.000 NA
ATOM     12  C   UNL     1       2.430   7.734  19.392  0.00  0.00    +0.000 A 
ATOM     13  C   UNL     1       1.631   8.216  20.443  0.00  0.00    +0.000 A 
ATOM     14  C   UNL     1       0.805   9.327  20.210  0.00  0.00    +0.000 A 
ATOM     15  C   UNL     1       0.779   9.952  18.962  0.00  0.00    +0.000 A 
ATOM     16  C   UNL     1       1.593   9.508  17.914  0.00  0.00    +0.000 A 
ATOM     17  C   UNL     1       2.404   8.399  18.173  0.00  0.00    +0.000 A 
ATOM     18  N   UNL     1       3.299   7.710  17.397  0.00  0.00    +0.000 N 
ATOM     19  H   UNL     1       3.537   7.930  16.441  0.00  0.00    +0.000 HD
ENDBRANCH   5  10
BRANCH   4  20
ATOM     20  C   UNL     1       6.656   6.961  17.600  0.00  0.00    +0.000 A 
ATOM     21  C   UNL     1       7.644   6.643  18.541  0.00  0.00    +0.000 A 
ATOM     22  C   UNL     1       8.562   7.608  18.952  0.00  0.00    +0.000 A 
ATOM     23  C   UNL     1       8.491   8.898  18.429  0.00  0.00    +0.000 A 
ATOM     24  C   UNL     1       7.505   9.225  17.498  0.00  0.00    +0.000 A 
ATOM     25  C   UNL     1       6.588   8.258  17.079  0.00  0.00    +0.000 A 
ENDBRANCH   4  20
BRANCH   6  26
ATOM     26  C   UNL     1       4.015   3.198  17.913  0.00  0.00    +0.000 A 
ATOM     27  C   UNL     1       3.414   1.941  17.746  0.00  0.00    +0.000 A 
ATOM     28  C   UNL     1       3.563   0.953  18.715  0.00  0.00    +0.000 A 
ATOM     29  C   UNL     1       4.310   1.245  19.838  0.00  0.00    +0.000 A 
ATOM     30  N   UNL     1       4.897   2.440  20.052  0.00  0.00    +0.000 NA
ATOM     31  C   UNL     1       4.743   3.382  19.090  0.00  0.00    +0.000 A 
ENDBRANCH   6  26
TORSDOF 3
ENDMDL
MODEL 4
REMARK VINA RESULT:      -6.8      2.836      6.321
REMARK  Name = 
REMARK  3 active torsions:
REMARK  status: ('A' for Active; 'I' for Inactive)
REMARK    1  A    between atoms: C_4  and  C_5
REMARK    2  A    between atoms: C_11  and  C_12
REMARK    3  A    between atoms: C_21  and  C_22
REMARK                            x       y       z     vdW  Elec       q    Type
REMARK                         _______ _______ _______ _____ _____    ______ ____
ROOT
ATOM      1  O   UNL     1       0.418  15.856  23.257  0.00  0.00    +0.000 OA
ATOM      2  C   UNL     1       0.076  15.155  22.314  0.00  0.00    +0.000 C 
ATOM      3  N   UNL     1       0.259  13.806  22.294  0.00  0.00    +0.000 N 
ATOM      4  C   UNL     1      -0.222  12.967  21.313  0.00  0.00    +0.000 C 
ATOM      5  C   UNL     1      -0.701  13.496  20.164  0.00  0.00    +0.000 C 
ATOM      6  C   UNL     1      -0.477  14.991  19.937  0.00  0.00    +0.000 C 
ATOM      7  N   UNL     1      -0.537  15.679  21.216  0.00  0.00    +0.000 N 
ATOM      8  H   UNL     1       0.666  13.407  23.132  0.00  0.00    +0.000 HD
ATOM      9  H   UNL     1      -0.571  16.689  21.217  0.00  0.00    +0.000 HD
ENDROOT
BRANCH   5  10
ATOM     10  C   UNL     1      -1.422  12.681  19.237  0.00  0.00    +0.000 A 
ATOM     11  N   UNL     1      -1.065  12.103  18.106  0.00  0.00    +0.000 NA
ATOM     12  C   UNL     1      -2.234  11.640  17.535  0.00  0.00    +0.000 A 
ATOM     13  C   UNL     1      -2.453  10.967  16.320  0.00  0.00    +0.000 A 
ATOM     14  C   UNL     1      -3.772  10.680  15.934  0.00  0.00    +0.000 A 
ATOM     15  C   UNL     1      -4.850  11.046  16.741  0.00  0.00    +0.000 A 
ATOM     16  C   UNL     1      -4.651  11.685  17.970  0.00  0.00    +0.000 A 
ATOM     17  C   UNL     1      -3.328  11.960  18.329  0.00  0.00    +0.000 A 
ATOM     18  N   UNL     1      -2.778  12.563  19.429  0.00  0.00    +0.000 N 
ATOM     19  H   UNL     1      -3.292  12.919  20.221  0.00  0.00    +0.000 HD
ENDBRANCH   5  10
BRANCH   4  20
ATOM     20  C   UNL     1      -0.132  11.539  21.651  0.00  0.00    +0.000 A 
ATOM     21  C   UNL     1       0.775  10.736  20.948  0.00  0.00    +0.000 A 
ATOM     22  C   UNL     1       0.994   9.416  21.337  0.00  0.00    +0.000 A 
ATOM     23  C   UNL     1       0.301   8.890  22.426  0.00  0.00    +0.000 A 
ATOM     24  C   UNL     1      -0.612   9.681  23.125  0.00  0.00    +0.000 A 
ATOM     25  C   UNL     1      -0.827  11.007  22.742  0.00  0.00    +0.000 A 
ENDBRANCH   4  20
BRANCH   6  26
ATOM     26  C   UNL     1       0.801  15.306  19.167  0.00  0.00    +0.000 A 
ATOM     27  C   UNL     1       1.148  16.592  18.722  0.00  0.00    +0.000 A 
ATOM     28  C   UNL     1       2.335  16.802  18.026  0.00  0.00    +0.000 A 
ATOM     29  C   UNL     1       3.152  15.716  17.783  0.00  0.00    +0.000 A 
ATOM     30  N   UNL     1       2.859  14.461  18.178  0.00  0.00    +0.000 NA
ATOM     31  C   UNL     1       1.701  14.285  18.861  0.00  0.00    +0.000 A 
ENDBRANCH   6  26
TORSDOF 3
ENDMDL
MODEL 5
REMARK VINA RESULT:      -6.7      3.498      6.854
REMARK  Name = 
REMARK  3 active torsions:
REMARK  status: ('A' for Active; 'I' for Inactive)
REMARK    1  A    between atoms: C_4  and  C_5
REMARK    2  A    between atoms: C_11  and  C_12
REMARK    3  A    between atoms: C_21  and  C_22
REMARK                            x       y       z     vdW  Elec       q    Type
REMARK                         _______ _______ _______ _____ _____    ______ ____
ROOT
ATOM      1  O   UNL     1      -0.086  15.901  24.085  0.00  0.00    +0.000 OA
ATOM      2  C   UNL     1      -0.784  15.284  23.291  0.00  0.00    +0.000 C 
ATOM      3  N   UNL     1      -0.491  14.020  22.878  0.00  0.00    +0.000 N 
ATOM      4  C   UNL     1      -1.312  13.246  22.088  0.00  0.00    +0.000 C 
ATOM      5  C   UNL     1      -2.367  13.819  21.466  0.00  0.00    +0.000 C 
ATOM      6  C   UNL     1      -2.457  15.345  21.507  0.00  0.00    +0.000 C 
ATOM      7  N   UNL     1      -1.927  15.817  22.776  0.00  0.00    +0.000 N 
ATOM      8  H   UNL     1       0.330  13.600  23.301  0.00  0.00    +0.000 HD
ATOM      9  H   UNL     1      -2.067  16.787  23.023  0.00  0.00    +0.000 HD
ENDROOT
BRANCH   5  10
ATOM     10  C   UNL     1      -3.367  13.011  20.843  0.00  0.00    +0.000 A 
ATOM     11  N   UNL     1      -3.460  12.501  19.630  0.00  0.00    +0.000 NA
ATOM     12  C   UNL     1      -4.746  12.005  19.528  0.00  0.00    +0.000 A 
ATOM     13  C   UNL     1      -5.399  11.376  18.454  0.00  0.00    +0.000 A 
ATOM     14  C   UNL     1      -6.756  11.040  18.591  0.00  0.00    +0.000 A 
ATOM     15  C   UNL     1      -7.447  11.316  19.772  0.00  0.00    +0.000 A 
ATOM     16  C   UNL     1      -6.805  11.910  20.864  0.00  0.00    +0.000 A 
ATOM     17  C   UNL     1      -5.455  12.235  20.700  0.00  0.00    +0.000 A 
ATOM     18  N   UNL     1      -4.538  12.817  21.536  0.00  0.00    +0.000 N 
ATOM     19  H   UNL     1      -4.715  13.112  22.485  0.00  0.00    +0.000 HD
ENDBRANCH   5  10
BRANCH   4  20
ATOM     20  C   UNL     1      -0.906  11.836  22.005  0.00  0.00    +0.000 A 
ATOM     21  C   UNL     1      -0.138  11.418  20.910  0.00  0.00    +0.000 A 
ATOM     22  C   UNL     1       0.389  10.128  20.871  0.00  0.00    +0.000 A 
ATOM     23  C   UNL     1       0.145   9.247  21.923  0.00  0.00    +0.000 A 
ATOM     24  C   UNL     1      -0.627   9.653  23.013  0.00  0.00    +0.000 A 
ATOM     25  C   UNL     1      -1.149  10.947  23.059  0.00  0.00    +0.000 A 
ENDBRANCH   4  20
BRANCH   6  26
ATOM     26  C   UNL     1      -1.799  16.027  20.313  0.00  0.00    +0.000 A 
ATOM     27  C   UNL     1      -0.723  15.480  19.596  0.00  0.00    +0.000 A 
ATOM     28  C   UNL     1      -0.175  16.163  18.514  0.00  0.00    +0.000 A 
ATOM     29  C   UNL     1      -0.714  17.387  18.172  0.00  0.00    +0.000 A 
ATOM     30  N   UNL     1      -1.738  17.961  18.835  0.00  0.00    +0.000 NA
ATOM     31  C   UNL     1      -2.258  17.272  19.879  0.00  0.00    +0.000 A 
ENDBRANCH   6  26
TORSDOF 3
ENDMDL
MODEL 6
REMARK VINA RESULT:      -6.6      2.922      6.022
REMARK  Name = 
REMARK  3 active torsions:
REMARK  status: ('A' for Active; 'I' for Inactive)
REMARK    1  A    between atoms: C_4  and  C_5
REMARK    2  A    between atoms: C_11  and  C_12
REMARK    3  A    between atoms: C_21  and  C_22
REMARK                            x       y       z     vdW  Elec       q    Type
REMARK                         _______ _______ _______ _____ _____    ______ ____
ROOT
ATOM      1  O   UNL     1      -0.815  15.935  23.533  0.00  0.00    +0.000 OA
ATOM      2  C   UNL     1      -0.948  15.182  22.577  0.00  0.00    +0.000 C 
ATOM      3  N   UNL     1      -0.434  13.921  22.554  0.00  0.00    +0.000 N 
ATOM      4  C   UNL     1      -0.666  13.001  21.556  0.00  0.00    +0.000 C 
ATOM      5  C   UNL     1      -1.232  13.408  20.397  0.00  0.00    +0.000 C 
ATOM      6  C   UNL     1      -1.382  14.915  20.184  0.00  0.00    +0.000 C 
ATOM      7  N   UNL     1      -1.644  15.550  21.465  0.00  0.00    +0.000 N 
ATOM      8  H   UNL     1       0.038  13.626  23.402  0.00  0.00    +0.000 HD
ATOM      9  H   UNL     1      -1.929  16.520  21.471  0.00  0.00    +0.000 HD
ENDROOT
BRANCH   5  10
ATOM     10  C   UNL     1      -1.704  12.451  19.447  0.00  0.00    +0.000 A 
ATOM     11  N   UNL     1      -1.076  11.554  18.711  0.00  0.00    +0.000 NA
ATOM     12  C   UNL     1      -2.015  11.076  17.818  0.00  0.00    +0.000 A 
ATOM     13  C   UNL     1      -1.897  10.125  16.790  0.00  0.00    +0.000 A 
ATOM     14  C   UNL     1      -3.004   9.881  15.962  0.00  0.00    +0.000 A 
ATOM     15  C   UNL     1      -4.208  10.561  16.157  0.00  0.00    +0.000 A 
ATOM     16  C   UNL     1      -4.356  11.486  17.196  0.00  0.00    +0.000 A 
ATOM     17  C   UNL     1      -3.237  11.710  18.004  0.00  0.00    +0.000 A 
ATOM     18  N   UNL     1      -3.027  12.530  19.082  0.00  0.00    +0.000 N 
ATOM     19  H   UNL     1      -3.716  13.138  19.498  0.00  0.00    +0.000 HD
ENDBRANCH   5  10
BRANCH   4  20
ATOM     20  C   UNL     1      -0.233  11.637  21.889  0.00  0.00    +0.000 A 
ATOM     21  C   UNL     1      -0.961  10.910  22.840  0.00  0.00    +0.000 A 
ATOM     22  C   UNL     1      -0.671   9.567  23.072  0.00  0.00    +0.000 A 
ATOM     23  C   UNL     1       0.354   8.946  22.362  0.00  0.00    +0.000 A 
ATOM     24  C   UNL     1       1.090   9.665  21.419  0.00  0.00    +0.000 A 
ATOM     25  C   UNL     1       0.797  11.009  21.178  0.00  0.00    +0.000 A 
ENDBRANCH   4  20
BRANCH   6  26
ATOM     26  C   UNL     1      -0.204  15.547  19.452  0.00  0.00    +0.000 A 
ATOM     27  C   UNL     1       1.045  14.924  19.295  0.00  0.00    +0.000 A 
ATOM     28  C   UNL     1       2.073  15.566  18.612  0.00  0.00    +0.000 A 
ATOM     29  C   UNL     1       1.833  16.825  18.100  0.00  0.00    +0.000 A 
ATOM     30  N   UNL     1       0.658  17.471  18.234  0.00  0.00    +0.000 NA
ATOM     31  C   UNL     1      -0.330  16.821  18.897  0.00  0.00    +0.000 A 
ENDBRANCH   6  26
TORSDOF 3
ENDMDL
MODEL 7
REMARK VINA RESULT:      -6.6      2.869      6.738
REMARK  Name = 
REMARK  3 active torsions:
REMARK  status: ('A' for Active; 'I' for Inactive)
REMARK    1  A    between atoms: C_4  and  C_5
REMARK    2  A    between atoms: C_11  and  C_12
REMARK    3  A    between atoms: C_21  and  C_22
REMARK                            x       y       z     vdW  Elec       q    Type
REMARK                         _______ _______ _______ _____ _____    ______ ____
ROOT
ATOM      1  O   UNL     1       2.826  12.050  18.008  0.00  0.00    +0.000 OA
ATOM      2  C   UNL     1       1.665  12.100  18.393  0.00  0.00    +0.000 C 
ATOM      3  N   UNL     1       1.110  13.226  18.919  0.00  0.00    +0.000 N 
ATOM      4  C   UNL     1      -0.222  13.362  19.245  0.00  0.00    +0.000 C 
ATOM      5  C   UNL     1      -1.009  12.264  19.286  0.00  0.00    +0.000 C 
ATOM      6  C   UNL     1      -0.319  10.904  19.178  0.00  0.00    +0.000 C 
ATOM      7  N   UNL     1       0.833  11.026  18.299  0.00  0.00    +0.000 N 
ATOM      8  H   UNL     1       1.711  14.042  18.939  0.00  0.00    +0.000 HD
ATOM      9  H   UNL     1       1.297  10.181  17.996  0.00  0.00    +0.000 HD
ENDROOT
BRANCH   5  10
ATOM     10  C   UNL     1      -2.429  12.394  19.381  0.00  0.00    +0.000 A 
ATOM     11  N   UNL     1      -3.231  12.585  20.411  0.00  0.00    +0.000 NA
ATOM     12  C   UNL     1      -4.512  12.401  19.930  0.00  0.00    +0.000 A 
ATOM     13  C   UNL     1      -5.753  12.460  20.588  0.00  0.00    +0.000 A 
ATOM     14  C   UNL     1      -6.917  12.144  19.869  0.00  0.00    +0.000 A 
ATOM     15  C   UNL     1      -6.851  11.786  18.521  0.00  0.00    +0.000 A 
ATOM     16  C   UNL     1      -5.630  11.756  17.839  0.00  0.00    +0.000 A 
ATOM     17  C   UNL     1      -4.487  12.073  18.580  0.00  0.00    +0.000 A 
ATOM     18  N   UNL     1      -3.160  12.137  18.246  0.00  0.00    +0.000 N 
ATOM     19  H   UNL     1      -2.778  11.962  17.328  0.00  0.00    +0.000 HD
ENDBRANCH   5  10
BRANCH   4  20
ATOM     20  C   UNL     1      -0.628  14.744  19.536  0.00  0.00    +0.000 A 
ATOM     21  C   UNL     1      -0.932  15.093  20.858  0.00  0.00    +0.000 A 
ATOM     22  C   UNL     1      -1.177  16.423  21.196  0.00  0.00    +0.000 A 
ATOM     23  C   UNL     1      -1.127  17.409  20.213  0.00  0.00    +0.000 A 
ATOM     24  C   UNL     1      -0.834  17.067  18.892  0.00  0.00    +0.000 A 
ATOM     25  C   UNL     1      -0.580  15.737  18.551  0.00  0.00    +0.000 A 
ENDBRANCH   4  20
BRANCH   6  26
ATOM     26  C   UNL     1       0.044  10.295  20.529  0.00  0.00    +0.000 A 
ATOM     27  C   UNL     1       0.799   9.121  20.679  0.00  0.00    +0.000 A 
ATOM     28  C   UNL     1       1.090   8.627  21.947  0.00  0.00    +0.000 A 
ATOM     29  C   UNL     1       0.615   9.317  23.044  0.00  0.00    +0.000 A 
ATOM     30  N   UNL     1      -0.124  10.441  22.953  0.00  0.00    +0.000 NA
ATOM     31  C   UNL     1      -0.387  10.905  21.708  0.00  0.00    +0.000 A 
ENDBRANCH   6  26
TORSDOF 3
ENDMDL
MODEL 8
REMARK VINA RESULT:      -6.6      2.872      3.882
REMARK  Name = 
REMARK  3 active torsions:
REMARK  status: ('A' for Active; 'I' for Inactive)
REMARK    1  A    between atoms: C_4  and  C_5
REMARK    2  A    between atoms: C_11  and  C_12
REMARK    3  A    between atoms: C_21  and  C_22
REMARK                            x       y       z     vdW  Elec       q    Type
REMARK                         _______ _______ _______ _____ _____    ______ ____
ROOT
ATOM      1  O   UNL     1      -3.900  10.428  15.351  0.00  0.00    +0.000 OA
ATOM      2  C   UNL     1      -3.600  10.894  16.442  0.00  0.00    +0.000 C 
ATOM      3  N   UNL     1      -2.612  10.373  17.222  0.00  0.00    +0.000 N 
ATOM      4  C   UNL     1      -2.160  10.939  18.393  0.00  0.00    +0.000 C 
ATOM      5  C   UNL     1      -2.870  11.939  18.963  0.00  0.00    +0.000 C 
ATOM      6  C   UNL     1      -4.254  12.233  18.383  0.00  0.00    +0.000 C 
ATOM      7  N   UNL     1      -4.227  11.993  16.949  0.00  0.00    +0.000 N 
ATOM      8  H   UNL     1      -2.108   9.589  16.822  0.00  0.00    +0.000 HD
ATOM      9  H   UNL     1      -5.016  12.298  16.397  0.00  0.00    +0.000 HD
ENDROOT
BRANCH   5  10
ATOM     10  C   UNL     1      -2.312  12.704  20.033  0.00  0.00    +0.000 A 
ATOM     11  N   UNL     1      -2.485  12.652  21.340  0.00  0.00    +0.000 NA
ATOM     12  C   UNL     1      -1.865  13.778  21.847  0.00  0.00    +0.000 A 
ATOM     13  C   UNL     1      -1.756  14.243  23.169  0.00  0.00    +0.000 A 
ATOM     14  C   UNL     1      -1.134  15.480  23.401  0.00  0.00    +0.000 A 
ATOM     15  C   UNL     1      -0.624  16.236  22.344  0.00  0.00    +0.000 A 
ATOM     16  C   UNL     1      -0.692  15.774  21.025  0.00  0.00    +0.000 A 
ATOM     17  C   UNL     1      -1.318  14.540  20.822  0.00  0.00    +0.000 A 
ATOM     18  N   UNL     1      -1.561  13.804  19.692  0.00  0.00    +0.000 N 
ATOM     19  H   UNL     1      -1.288  14.061  18.755  0.00  0.00    +0.000 HD
ENDBRANCH   5  10
BRANCH   4  20
ATOM     20  C   UNL     1      -0.917  10.345  18.903  0.00  0.00    +0.000 A 
ATOM     21  C   UNL     1      -0.872   9.916  20.236  0.00  0.00    +0.000 A 
ATOM     22  C   UNL     1       0.235   9.215  20.713  0.00  0.00    +0.000 A 
ATOM     23  C   UNL     1       1.306   8.947  19.861  0.00  0.00    +0.000 A 
ATOM     24  C   UNL     1       1.272   9.380  18.535  0.00  0.00    +0.000 A 
ATOM     25  C   UNL     1       0.161  10.074  18.052  0.00  0.00    +0.000 A 
ENDBRANCH   4  20
BRANCH   6  26
ATOM     26  C   UNL     1      -5.380  11.475  19.078  0.00  0.00    +0.000 A 
ATOM     27  C   UNL     1      -5.978  10.315  18.560  0.00  0.00    +0.000 A 
ATOM     28  C   UNL     1      -7.001   9.678  19.254  0.00  0.00    +0.000 A 
ATOM     29  C   UNL     1      -7.413  10.218  20.456  0.00  0.00    +0.000 A 
ATOM     30  N   UNL     1      -6.881  11.336  20.990  0.00  0.00    +0.000 NA
ATOM     31  C   UNL     1      -5.880  11.933  20.298  0.00  0.00    +0.000 A 
ENDBRANCH   6  26
TORSDOF 3
ENDMDL
MODEL 9
REMARK VINA RESULT:      -6.6      2.920      6.306
REMARK  Name = 
REMARK  3 active torsions:
REMARK  status: ('A' for Active; 'I' for Inactive)
REMARK    1  A    between atoms: C_4  and  C_5
REMARK    2  A    between atoms: C_11  and  C_12
REMARK    3  A    between atoms: C_21  and  C_22
REMARK                            x       y       z     vdW  Elec       q    Type
REMARK                         _______ _______ _______ _____ _____    ______ ____
ROOT
ATOM      1  O   UNL     1       1.247  16.100  23.031  0.00  0.00    +0.000 OA
ATOM      2  C   UNL     1       0.730  15.416  22.157  0.00  0.00    +0.000 C 
ATOM      3  N   UNL     1       0.712  14.056  22.198  0.00  0.00    +0.000 N 
ATOM      4  C   UNL     1       0.035  13.255  21.305  0.00  0.00    +0.000 C 
ATOM      5  C   UNL     1      -0.454  13.799  20.167  0.00  0.00    +0.000 C 
ATOM      6  C   UNL     1      -0.034  15.232  19.840  0.00  0.00    +0.000 C 
ATOM      7  N   UNL     1       0.112  15.977  21.080  0.00  0.00    +0.000 N 
ATOM      8  H   UNL     1       1.124  13.638  23.025  0.00  0.00    +0.000 HD
ATOM      9  H   UNL     1       0.225  16.980  21.027  0.00  0.00    +0.000 HD
ENDROOT
BRANCH   5  10
ATOM     10  C   UNL     1      -1.360  13.061  19.344  0.00  0.00    +0.000 A 
ATOM     11  N   UNL     1      -2.659  12.847  19.431  0.00  0.00    +0.000 NA
ATOM     12  C   UNL     1      -2.945  11.879  18.488  0.00  0.00    +0.000 A 
ATOM     13  C   UNL     1      -4.161  11.256  18.160  0.00  0.00    +0.000 A 
ATOM     14  C   UNL     1      -4.158  10.227  17.204  0.00  0.00    +0.000 A 
ATOM     15  C   UNL     1      -2.973   9.832  16.581  0.00  0.00    +0.000 A 
ATOM     16  C   UNL     1      -1.758  10.464  16.869  0.00  0.00    +0.000 A 
ATOM     17  C   UNL     1      -1.790  11.483  17.825  0.00  0.00    +0.000 A 
ATOM     18  N   UNL     1      -0.813  12.292  18.343  0.00  0.00    +0.000 N 
ATOM     19  H   UNL     1       0.160  12.280  18.077  0.00  0.00    +0.000 HD
ENDBRANCH   5  10
BRANCH   4  20
ATOM     20  C   UNL     1      -0.057  11.847  21.714  0.00  0.00    +0.000 A 
ATOM     21  C   UNL     1       0.829  10.921  21.148  0.00  0.00    +0.000 A 
ATOM     22  C   UNL     1       0.871   9.610  21.618  0.00  0.00    +0.000 A 
ATOM     23  C   UNL     1       0.021   9.215  22.651  0.00  0.00    +0.000 A 
ATOM     24  C   UNL     1      -0.871  10.130  23.213  0.00  0.00    +0.000 A 
ATOM     25  C   UNL     1      -0.909  11.447  22.750  0.00  0.00    +0.000 A 
ENDBRANCH   4  20
BRANCH   6  26
ATOM     26  C   UNL     1       1.209  15.318  18.961  0.00  0.00    +0.000 A 
ATOM     27  C   UNL     1       2.046  14.226  18.682  0.00  0.00    +0.000 A 
ATOM     28  C   UNL     1       3.164  14.383  17.868  0.00  0.00    +0.000 A 
ATOM     29  C   UNL     1       3.426  15.635  17.351  0.00  0.00    +0.000 A 
ATOM     30  N   UNL     1       2.661  16.718  17.598  0.00  0.00    +0.000 NA
ATOM     31  C   UNL     1       1.575  16.536  18.387  0.00  0.00    +0.000 A 
ENDBRANCH   6  26
TORSDOF 3
ENDMDL
