MODEL 1
REMARK VINA RESULT:      -8.7      0.000      0.000
REMARK  Name = 
REMARK  6 active torsions:
REMARK  status: ('A' for Active; 'I' for Inactive)
REMARK    1  A    between atoms: C_1  and  C_2
REMARK    2  A    between atoms: N_9  and  C_10
REMARK    3  A    between atoms: C_10  and  C_11
REMARK    4  A    between atoms: C_11  and  C_12
REMARK    5  A    between atoms: C_12  and  C_13
REMARK    6  A    between atoms: N_15  and  C_16
REMARK                            x       y       z     vdW  Elec       q    Type
REMARK                         _______ _______ _______ _____ _____    ______ ____
ROOT
ATOM      1  C   UNL     1       1.415   4.360  20.740  0.00  0.00    +0.000 C 
ATOM      2  O   UNL     1       0.614   4.273  19.813  0.00  0.00    +0.000 OA
ATOM      3  N   UNL     1       2.144   5.494  21.064  0.00  0.00    +0.000 N 
ATOM      4  H   UNL     1       3.004   5.346  21.576  0.00  0.00    +0.000 HD
ENDROOT
BRANCH   3   5
ATOM      5  C   UNL     1       2.072   6.665  20.280  0.00  0.00    +0.000 A 
ATOM      6  C   UNL     1       2.727   6.654  19.025  0.00  0.00    +0.000 A 
ATOM      7  C   UNL     1       2.609   7.734  18.142  0.00  0.00    +0.000 A 
ATOM      8  C   UNL     1       1.893   8.819  18.587  0.00  0.00    +0.000 A 
ATOM      9  N   UNL     1       1.623  10.025  17.952  0.00  0.00    +0.000 N 
ATOM     10  C   UNL     1       0.886  10.838  18.825  0.00  0.00    +0.000 A 
ATOM     11  O   UNL     1       0.495  11.971  18.603  0.00  0.00    +0.000 OA
ATOM     12  N   UNL     1       0.695  10.098  19.999  0.00  0.00    +0.000 N 
ATOM     13  C   UNL     1       1.301   8.855  19.847  0.00  0.00    +0.000 A 
ATOM     14  C   UNL     1       1.356   7.790  20.712  0.00  0.00    +0.000 A 
ATOM     15  H   UNL     1       1.901  10.305  17.026  0.00  0.00    +0.000 HD
ATOM     16  H   UNL     1       0.197  10.441  20.805  0.00  0.00    +0.000 HD
ENDBRANCH   3   5
BRANCH   1  17
ATOM     17  C   UNL     1       1.740   3.166  21.618  0.00  0.00    +0.000 C 
BRANCH  17  18
ATOM     18  C   UNL     1       3.113   2.579  21.284  0.00  0.00    +0.000 C 
BRANCH  18  19
ATOM     19  C   UNL     1       3.243   2.221  19.797  0.00  0.00    +0.000 C 
BRANCH  19  28
ATOM     20  C   UNL     1       7.780   6.544  18.172  0.00  0.00    +0.000 C 
ATOM     21  C   UNL     1       6.786   5.796  17.329  0.00  0.00    +0.000 A 
ATOM     22  C   UNL     1       6.744   6.012  15.942  0.00  0.00    +0.000 A 
ATOM     23  C   UNL     1       5.854   5.302  15.135  0.00  0.00    +0.000 A 
ATOM     24  C   UNL     1       5.000   4.361  15.704  0.00  0.00    +0.000 A 
ATOM     25  C   UNL     1       5.026   4.159  17.088  0.00  0.00    +0.000 A 
ATOM     26  C   UNL     1       4.111   3.188  17.718  0.00  0.00    +0.000 A 
ATOM     27  O   UNL     1       3.362   2.503  17.025  0.00  0.00    +0.000 OA
ATOM     28  N   UNL     1       4.157   3.118  19.103  0.00  0.00    +0.000 N 
ATOM     29  C   UNL     1       5.042   3.887  19.822  0.00  0.00    +0.000 A 
ATOM     30  N   UNL     1       5.892   4.711  19.311  0.00  0.00    +0.000 NA
ATOM     31  C   UNL     1       5.899   4.873  17.917  0.00  0.00    +0.000 A 
ENDBRANCH  19  28
ENDBRANCH  18  19
ENDBRANCH  17  18
ENDBRANCH   1  17
TORSDOF 5
ENDMDL
MODEL 2
REMARK VINA RESULT:      -8.4      1.265      1.899
REMARK  Name = 
REMARK  6 active torsions:
REMARK  status: ('A' for Active; 'I' for Inactive)
REMARK    1  A    between atoms: C_1  and  C_2
REMARK    2  A    between atoms: N_9  and  C_10
REMARK    3  A    between atoms: C_10  and  C_11
REMARK    4  A    between atoms: C_11  and  C_12
REMARK    5  A    between atoms: C_12  and  C_13
REMARK    6  A    between atoms: N_15  and  C_16
REMARK                            x       y       z     vdW  Elec       q    Type
REMARK                         _______ _______ _______ _____ _____    ______ ____
ROOT
ATOM      1  C   UNL     1       1.549   4.768  20.528  0.00  0.00    +0.000 C 
ATOM      2  O   UNL     1       0.344   4.916  20.339  0.00  0.00    +0.000 OA
ATOM      3  N   UNL     1       2.514   5.745  20.340  0.00  0.00    +0.000 N 
ATOM      4  H   UNL     1       3.457   5.419  20.167  0.00  0.00    +0.000 HD
ENDROOT
BRANCH   3   5
ATOM      5  C   UNL     1       2.185   7.017  19.828  0.00  0.00    +0.000 A 
ATOM      6  C   UNL     1       2.516   7.286  18.478  0.00  0.00    +0.000 A 
ATOM      7  C   UNL     1       2.123   8.482  17.864  0.00  0.00    +0.000 A 
ATOM      8  C   UNL     1       1.473   9.396  18.657  0.00  0.00    +0.000 A 
ATOM      9  N   UNL     1       0.986  10.659  18.339  0.00  0.00    +0.000 N 
ATOM     10  C   UNL     1       0.437  11.233  19.494  0.00  0.00    +0.000 A 
ATOM     11  O   UNL     1      -0.064  12.341  19.585  0.00  0.00    +0.000 OA
ATOM     12  N   UNL     1       0.580  10.290  20.520  0.00  0.00    +0.000 N 
ATOM     13  C   UNL     1       1.203   9.159  20.002  0.00  0.00    +0.000 A 
ATOM     14  C   UNL     1       1.530   7.974  20.616  0.00  0.00    +0.000 A 
ATOM     15  H   UNL     1       1.014  11.118  17.444  0.00  0.00    +0.000 HD
ATOM     16  H   UNL     1       0.274  10.438  21.468  0.00  0.00    +0.000 HD
ENDBRANCH   3   5
BRANCH   1  17
ATOM     17  C   UNL     1       2.123   3.428  20.947  0.00  0.00    +0.000 C 
BRANCH  17  18
ATOM     18  C   UNL     1       1.815   2.338  19.917  0.00  0.00    +0.000 C 
BRANCH  18  19
ATOM     19  C   UNL     1       3.074   1.880  19.166  0.00  0.00    +0.000 C 
BRANCH  19  28
ATOM     20  C   UNL     1       5.115   6.740  15.408  0.00  0.00    +0.000 C 
ATOM     21  C   UNL     1       5.706   6.146  16.656  0.00  0.00    +0.000 A 
ATOM     22  C   UNL     1       6.912   6.651  17.168  0.00  0.00    +0.000 A 
ATOM     23  C   UNL     1       7.459   6.139  18.345  0.00  0.00    +0.000 A 
ATOM     24  C   UNL     1       6.802   5.120  19.029  0.00  0.00    +0.000 A 
ATOM     25  C   UNL     1       5.611   4.601  18.511  0.00  0.00    +0.000 A 
ATOM     26  C   UNL     1       4.912   3.502  19.203  0.00  0.00    +0.000 A 
ATOM     27  O   UNL     1       5.337   3.075  20.274  0.00  0.00    +0.000 OA
ATOM     28  N   UNL     1       3.783   3.003  18.568  0.00  0.00    +0.000 N 
ATOM     29  C   UNL     1       3.338   3.545  17.385  0.00  0.00    +0.000 A 
ATOM     30  N   UNL     1       3.889   4.536  16.772  0.00  0.00    +0.000 NA
ATOM     31  C   UNL     1       5.055   5.089  17.323  0.00  0.00    +0.000 A 
ENDBRANCH  19  28
ENDBRANCH  18  19
ENDBRANCH  17  18
ENDBRANCH   1  17
TORSDOF 5
ENDMDL
MODEL 3
REMARK VINA RESULT:      -8.0      5.432      7.650
REMARK  Name = 
REMARK  6 active torsions:
REMARK  status: ('A' for Active; 'I' for Inactive)
REMARK    1  A    between atoms: C_1  and  C_2
REMARK    2  A    between atoms: N_9  and  C_10
REMARK    3  A    between atoms: C_10  and  C_11
REMARK    4  A    between atoms: C_11  and  C_12
REMARK    5  A    between atoms: C_12  and  C_13
REMARK    6  A    between atoms: N_15  and  C_16
REMARK                            x       y       z     vdW  Elec       q    Type
REMARK                         _______ _______ _______ _____ _____    ______ ____
ROOT
ATOM      1  C   UNL     1       8.327   9.180  18.228  0.00  0.00    +0.000 C 
ATOM      2  O   UNL     1       7.565   9.815  17.504  0.00  0.00    +0.000 OA
ATOM      3  N   UNL     1       9.346   9.727  18.993  0.00  0.00    +0.000 N 
ATOM      4  H   UNL     1      10.109   9.108  19.236  0.00  0.00    +0.000 HD
ENDROOT
BRANCH   3   5
ATOM      5  C   UNL     1       9.646  11.104  18.944  0.00  0.00    +0.000 A 
ATOM      6  C   UNL     1       9.520  11.845  20.144  0.00  0.00    +0.000 A 
ATOM      7  C   UNL     1       9.904  13.190  20.204  0.00  0.00    +0.000 A 
ATOM      8  C   UNL     1      10.335  13.761  19.031  0.00  0.00    +0.000 A 
ATOM      9  N   UNL     1      10.758  15.061  18.780  0.00  0.00    +0.000 N 
ATOM     10  C   UNL     1      11.059  15.180  17.416  0.00  0.00    +0.000 A 
ATOM     11  O   UNL     1      11.442  16.186  16.843  0.00  0.00    +0.000 OA
ATOM     12  N   UNL     1      10.830  13.922  16.841  0.00  0.00    +0.000 N 
ATOM     13  C   UNL     1      10.399  13.050  17.836  0.00  0.00    +0.000 A 
ATOM     14  C   UNL     1      10.078  11.716  17.760  0.00  0.00    +0.000 A 
ATOM     15  H   UNL     1      10.838  15.817  19.440  0.00  0.00    +0.000 HD
ATOM     16  H   UNL     1      10.963  13.717  15.864  0.00  0.00    +0.000 HD
ENDBRANCH   3   5
BRANCH   1  17
ATOM     17  C   UNL     1       8.259   7.667  18.310  0.00  0.00    +0.000 C 
BRANCH  17  18
ATOM     18  C   UNL     1       7.191   7.100  17.371  0.00  0.00    +0.000 C 
BRANCH  18  19
ATOM     19  C   UNL     1       7.079   5.573  17.477  0.00  0.00    +0.000 C 
BRANCH  19  28
ATOM     20  C   UNL     1       1.578   4.838  20.810  0.00  0.00    +0.000 C 
ATOM     21  C   UNL     1       2.125   4.080  19.633  0.00  0.00    +0.000 A 
ATOM     22  C   UNL     1       1.402   3.001  19.099  0.00  0.00    +0.000 A 
ATOM     23  C   UNL     1       1.873   2.305  17.986  0.00  0.00    +0.000 A 
ATOM     24  C   UNL     1       3.071   2.686  17.385  0.00  0.00    +0.000 A 
ATOM     25  C   UNL     1       3.803   3.748  17.927  0.00  0.00    +0.000 A 
ATOM     26  C   UNL     1       5.088   4.151  17.326  0.00  0.00    +0.000 A 
ATOM     27  O   UNL     1       5.496   3.598  16.306  0.00  0.00    +0.000 OA
ATOM     28  N   UNL     1       5.777   5.161  17.982  0.00  0.00    +0.000 N 
ATOM     29  C   UNL     1       5.253   5.764  19.102  0.00  0.00    +0.000 A 
ATOM     30  N   UNL     1       4.113   5.477  19.632  0.00  0.00    +0.000 NA
ATOM     31  C   UNL     1       3.356   4.446  19.054  0.00  0.00    +0.000 A 
ENDBRANCH  19  28
ENDBRANCH  18  19
ENDBRANCH  17  18
ENDBRANCH   1  17
TORSDOF 5
ENDMDL
MODEL 4
REMARK VINA RESULT:      -7.6      5.311      7.448
REMARK  Name = 
REMARK  6 active torsions:
REMARK  status: ('A' for Active; 'I' for Inactive)
REMARK    1  A    between atoms: C_1  and  C_2
REMARK    2  A    between atoms: N_9  and  C_10
REMARK    3  A    between atoms: C_10  and  C_11
REMARK    4  A    between atoms: C_11  and  C_12
REMARK    5  A    between atoms: C_12  and  C_13
REMARK    6  A    between atoms: N_15  and  C_16
REMARK                            x       y       z     vdW  Elec       q    Type
REMARK                         _______ _______ _______ _____ _____    ______ ____
ROOT
ATOM      1  C   UNL     1       8.383   9.262  18.242  0.00  0.00    +0.000 C 
ATOM      2  O   UNL     1       7.661   9.862  17.450  0.00  0.00    +0.000 OA
ATOM      3  N   UNL     1       9.410   9.832  18.979  0.00  0.00    +0.000 N 
ATOM      4  H   UNL     1      10.142   9.206  19.291  0.00  0.00    +0.000 HD
ENDROOT
BRANCH   3   5
ATOM      5  C   UNL     1       9.766  11.187  18.820  0.00  0.00    +0.000 A 
ATOM      6  C   UNL     1      10.666  11.510  17.775  0.00  0.00    +0.000 A 
ATOM      7  C   UNL     1      10.982  12.842  17.482  0.00  0.00    +0.000 A 
ATOM      8  C   UNL     1      10.434  13.799  18.301  0.00  0.00    +0.000 A 
ATOM      9  N   UNL     1      10.578  15.181  18.269  0.00  0.00    +0.000 N 
ATOM     10  C   UNL     1       9.858  15.733  19.338  0.00  0.00    +0.000 A 
ATOM     11  O   UNL     1       9.777  16.915  19.624  0.00  0.00    +0.000 OA
ATOM     12  N   UNL     1       9.256  14.663  20.013  0.00  0.00    +0.000 N 
ATOM     13  C   UNL     1       9.599  13.479  19.368  0.00  0.00    +0.000 A 
ATOM     14  C   UNL     1       9.231  12.185  19.646  0.00  0.00    +0.000 A 
ATOM     15  H   UNL     1      11.108  15.727  17.610  0.00  0.00    +0.000 HD
ATOM     16  H   UNL     1       8.677  14.767  20.831  0.00  0.00    +0.000 HD
ENDBRANCH   3   5
BRANCH   1  17
ATOM     17  C   UNL     1       8.251   7.765  18.452  0.00  0.00    +0.000 C 
BRANCH  17  18
ATOM     18  C   UNL     1       7.258   7.145  17.465  0.00  0.00    +0.000 C 
BRANCH  18  19
ATOM     19  C   UNL     1       7.179   5.618  17.608  0.00  0.00    +0.000 C 
BRANCH  19  28
ATOM     20  C   UNL     1       1.574   4.783  20.739  0.00  0.00    +0.000 C 
ATOM     21  C   UNL     1       2.168   4.047  19.570  0.00  0.00    +0.000 A 
ATOM     22  C   UNL     1       1.474   2.970  18.996  0.00  0.00    +0.000 A 
ATOM     23  C   UNL     1       1.990   2.296  17.888  0.00  0.00    +0.000 A 
ATOM     24  C   UNL     1       3.203   2.697  17.335  0.00  0.00    +0.000 A 
ATOM     25  C   UNL     1       3.906   3.757  17.917  0.00  0.00    +0.000 A 
ATOM     26  C   UNL     1       5.208   4.181  17.367  0.00  0.00    +0.000 A 
ATOM     27  O   UNL     1       5.655   3.648  16.354  0.00  0.00    +0.000 OA
ATOM     28  N   UNL     1       5.864   5.187  18.062  0.00  0.00    +0.000 N 
ATOM     29  C   UNL     1       5.296   5.768  19.172  0.00  0.00    +0.000 A 
ATOM     30  N   UNL     1       4.141   5.463  19.658  0.00  0.00    +0.000 NA
ATOM     31  C   UNL     1       3.415   4.434  19.039  0.00  0.00    +0.000 A 
ENDBRANCH  19  28
ENDBRANCH  18  19
ENDBRANCH  17  18
ENDBRANCH   1  17
TORSDOF 5
ENDMDL
MODEL 5
REMARK VINA RESULT:      -7.6      5.484      8.416
REMARK  Name = 
REMARK  6 active torsions:
REMARK  status: ('A' for Active; 'I' for Inactive)
REMARK    1  A    between atoms: C_1  and  C_2
REMARK    2  A    between atoms: N_9  and  C_10
REMARK    3  A    between atoms: C_10  and  C_11
REMARK    4  A    between atoms: C_11  and  C_12
REMARK    5  A    between atoms: C_12  and  C_13
REMARK    6  A    between atoms: N_15  and  C_16
REMARK                            x       y       z     vdW  Elec       q    Type
REMARK                         _______ _______ _______ _____ _____    ______ ____
ROOT
ATOM      1  C   UNL     1       7.134   6.654  17.978  0.00  0.00    +0.000 C 
ATOM      2  O   UNL     1       7.681   5.910  18.787  0.00  0.00    +0.000 OA
ATOM      3  N   UNL     1       5.796   6.601  17.619  0.00  0.00    +0.000 N 
ATOM      4  H   UNL     1       5.556   6.989  16.714  0.00  0.00    +0.000 HD
ENDROOT
BRANCH   3   5
ATOM      5  C   UNL     1       4.938   5.601  18.122  0.00  0.00    +0.000 A 
ATOM      6  C   UNL     1       4.845   4.391  17.394  0.00  0.00    +0.000 A 
ATOM      7  C   UNL     1       4.102   3.310  17.885  0.00  0.00    +0.000 A 
ATOM      8  C   UNL     1       3.420   3.514  19.060  0.00  0.00    +0.000 A 
ATOM      9  N   UNL     1       2.598   2.648  19.771  0.00  0.00    +0.000 N 
ATOM     10  C   UNL     1       2.093   3.324  20.891  0.00  0.00    +0.000 A 
ATOM     11  O   UNL     1       1.325   2.875  21.724  0.00  0.00    +0.000 OA
ATOM     12  N   UNL     1       2.636   4.616  20.860  0.00  0.00    +0.000 N 
ATOM     13  C   UNL     1       3.461   4.726  19.744  0.00  0.00    +0.000 A 
ATOM     14  C   UNL     1       4.222   5.785  19.313  0.00  0.00    +0.000 A 
ATOM     15  H   UNL     1       2.375   1.693  19.546  0.00  0.00    +0.000 HD
ATOM     16  H   UNL     1       2.440   5.325  21.547  0.00  0.00    +0.000 HD
ENDBRANCH   3   5
BRANCH   1  17
ATOM     17  C   UNL     1       7.918   7.710  17.221  0.00  0.00    +0.000 C 
BRANCH  17  18
ATOM     18  C   UNL     1       7.832   9.075  17.907  0.00  0.00    +0.000 C 
BRANCH  18  19
ATOM     19  C   UNL     1       8.951   9.276  18.939  0.00  0.00    +0.000 C 
BRANCH  19  28
ATOM     20  C   UNL     1      11.264  15.162  17.556  0.00  0.00    +0.000 C 
ATOM     21  C   UNL     1      10.852  14.549  18.865  0.00  0.00    +0.000 A 
ATOM     22  C   UNL     1      10.962  15.293  20.051  0.00  0.00    +0.000 A 
ATOM     23  C   UNL     1      10.551  14.756  21.272  0.00  0.00    +0.000 A 
ATOM     24  C   UNL     1      10.018  13.471  21.321  0.00  0.00    +0.000 A 
ATOM     25  C   UNL     1       9.925  12.721  20.144  0.00  0.00    +0.000 A 
ATOM     26  C   UNL     1       9.390  11.347  20.175  0.00  0.00    +0.000 A 
ATOM     27  O   UNL     1       8.962  10.872  21.225  0.00  0.00    +0.000 OA
ATOM     28  N   UNL     1       9.414  10.656  18.971  0.00  0.00    +0.000 N 
ATOM     29  C   UNL     1       9.876  11.253  17.822  0.00  0.00    +0.000 A 
ATOM     30  N   UNL     1      10.306  12.466  17.739  0.00  0.00    +0.000 NA
ATOM     31  C   UNL     1      10.348  13.234  18.913  0.00  0.00    +0.000 A 
ENDBRANCH  19  28
ENDBRANCH  18  19
ENDBRANCH  17  18
ENDBRANCH   1  17
TORSDOF 5
ENDMDL
MODEL 6
REMARK VINA RESULT:      -7.6      6.457      9.479
REMARK  Name = 
REMARK  6 active torsions:
REMARK  status: ('A' for Active; 'I' for Inactive)
REMARK    1  A    between atoms: C_1  and  C_2
REMARK    2  A    between atoms: N_9  and  C_10
REMARK    3  A    between atoms: C_10  and  C_11
REMARK    4  A    between atoms: C_11  and  C_12
REMARK    5  A    between atoms: C_12  and  C_13
REMARK    6  A    between atoms: N_15  and  C_16
REMARK                            x       y       z     vdW  Elec       q    Type
REMARK                         _______ _______ _______ _____ _____    ______ ____
ROOT
ATOM      1  C   UNL     1       7.944   8.168  17.978  0.00  0.00    +0.000 C 
ATOM      2  O   UNL     1       8.383   7.365  18.797  0.00  0.00    +0.000 OA
ATOM      3  N   UNL     1       6.909   7.920  17.089  0.00  0.00    +0.000 N 
ATOM      4  H   UNL     1       6.889   8.488  16.251  0.00  0.00    +0.000 HD
ENDROOT
BRANCH   3   5
ATOM      5  C   UNL     1       6.300   6.651  17.003  0.00  0.00    +0.000 A 
ATOM      6  C   UNL     1       7.029   5.616  16.368  0.00  0.00    +0.000 A 
ATOM      7  C   UNL     1       6.542   4.304  16.341  0.00  0.00    +0.000 A 
ATOM      8  C   UNL     1       5.301   4.096  16.893  0.00  0.00    +0.000 A 
ATOM      9  N   UNL     1       4.561   2.923  16.996  0.00  0.00    +0.000 N 
ATOM     10  C   UNL     1       3.332   3.219  17.603  0.00  0.00    +0.000 A 
ATOM     11  O   UNL     1       2.430   2.433  17.833  0.00  0.00    +0.000 OA
ATOM     12  N   UNL     1       3.343   4.592  17.885  0.00  0.00    +0.000 N 
ATOM     13  C   UNL     1       4.556   5.125  17.462  0.00  0.00    +0.000 A 
ATOM     14  C   UNL     1       5.032   6.411  17.549  0.00  0.00    +0.000 A 
ATOM     15  H   UNL     1       4.828   2.002  16.691  0.00  0.00    +0.000 HD
ATOM     16  H   UNL     1       2.579   5.082  18.322  0.00  0.00    +0.000 HD
ENDBRANCH   3   5
BRANCH   1  17
ATOM     17  C   UNL     1       8.559   9.546  17.816  0.00  0.00    +0.000 C 
BRANCH  17  18
ATOM     18  C   UNL     1       9.078  10.089  19.150  0.00  0.00    +0.000 C 
BRANCH  18  19
ATOM     19  C   UNL     1      10.369  10.903  18.979  0.00  0.00    +0.000 C 
BRANCH  19  28
ATOM     20  C   UNL     1       7.938  16.898  19.246  0.00  0.00    +0.000 C 
ATOM     21  C   UNL     1       9.085  16.335  18.455  0.00  0.00    +0.000 A 
ATOM     22  C   UNL     1       9.809  17.167  17.585  0.00  0.00    +0.000 A 
ATOM     23  C   UNL     1      10.900  16.674  16.868  0.00  0.00    +0.000 A 
ATOM     24  C   UNL     1      11.286  15.345  17.018  0.00  0.00    +0.000 A 
ATOM     25  C   UNL     1      10.555  14.509  17.869  0.00  0.00    +0.000 A 
ATOM     26  C   UNL     1      10.928  13.090  18.023  0.00  0.00    +0.000 A 
ATOM     27  O   UNL     1      11.922  12.645  17.453  0.00  0.00    +0.000 OA
ATOM     28  N   UNL     1      10.093  12.325  18.826  0.00  0.00    +0.000 N 
ATOM     29  C   UNL     1       9.013  12.888  19.463  0.00  0.00    +0.000 A 
ATOM     30  N   UNL     1       8.679  14.132  19.396  0.00  0.00    +0.000 NA
ATOM     31  C   UNL     1       9.447  14.979  18.583  0.00  0.00    +0.000 A 
ENDBRANCH  19  28
ENDBRANCH  18  19
ENDBRANCH  17  18
ENDBRANCH   1  17
TORSDOF 5
ENDMDL
MODEL 7
REMARK VINA RESULT:      -7.5      3.775      6.445
REMARK  Name = 
REMARK  6 active torsions:
REMARK  status: ('A' for Active; 'I' for Inactive)
REMARK    1  A    between atoms: C_1  and  C_2
REMARK    2  A    between atoms: N_9  and  C_10
REMARK    3  A    between atoms: C_10  and  C_11
REMARK    4  A    between atoms: C_11  and  C_12
REMARK    5  A    between atoms: C_12  and  C_13
REMARK    6  A    between atoms: N_15  and  C_16
REMARK                            x       y       z     vdW  Elec       q    Type
REMARK                         _______ _______ _______ _____ _____    ______ ____
ROOT
ATOM      1  C   UNL     1       0.208  11.099  18.301  0.00  0.00    +0.000 C 
ATOM      2  O   UNL     1      -0.069  12.164  18.846  0.00  0.00    +0.000 OA
ATOM      3  N   UNL     1      -0.659  10.350  17.521  0.00  0.00    +0.000 N 
ATOM      4  H   UNL     1      -0.456   9.361  17.444  0.00  0.00    +0.000 HD
ENDROOT
BRANCH   3   5
ATOM      5  C   UNL     1      -2.006  10.730  17.344  0.00  0.00    +0.000 A 
ATOM      6  C   UNL     1      -2.544  10.647  16.037  0.00  0.00    +0.000 A 
ATOM      7  C   UNL     1      -3.900  10.899  15.799  0.00  0.00    +0.000 A 
ATOM      8  C   UNL     1      -4.651  11.299  16.877  0.00  0.00    +0.000 A 
ATOM      9  N   UNL     1      -5.999  11.633  16.945  0.00  0.00    +0.000 N 
ATOM     10  C   UNL     1      -6.301  12.019  18.259  0.00  0.00    +0.000 A 
ATOM     11  O   UNL     1      -7.384  12.393  18.674  0.00  0.00    +0.000 OA
ATOM     12  N   UNL     1      -5.115  11.897  18.997  0.00  0.00    +0.000 N 
ATOM     13  C   UNL     1      -4.109  11.442  18.151  0.00  0.00    +0.000 A 
ATOM     14  C   UNL     1      -2.794  11.151  18.424  0.00  0.00    +0.000 A 
ATOM     15  H   UNL     1      -6.672  11.619  16.197  0.00  0.00    +0.000 HD
ATOM     16  H   UNL     1      -5.039  12.114  19.977  0.00  0.00    +0.000 HD
ENDBRANCH   3   5
BRANCH   1  17
ATOM     17  C   UNL     1       1.566  10.449  18.484  0.00  0.00    +0.000 C 
BRANCH  17  18
ATOM     18  C   UNL     1       1.585   9.021  17.933  0.00  0.00    +0.000 C 
BRANCH  18  19
ATOM     19  C   UNL     1       2.955   8.351  18.108  0.00  0.00    +0.000 C 
BRANCH  19  28
ATOM     20  C   UNL     1       3.045   1.881  17.909  0.00  0.00    +0.000 C 
ATOM     21  C   UNL     1       2.481   2.827  18.932  0.00  0.00    +0.000 A 
ATOM     22  C   UNL     1       1.830   2.320  20.069  0.00  0.00    +0.000 A 
ATOM     23  C   UNL     1       1.330   3.178  21.049  0.00  0.00    +0.000 A 
ATOM     24  C   UNL     1       1.482   4.555  20.908  0.00  0.00    +0.000 A 
ATOM     25  C   UNL     1       2.113   5.063  19.768  0.00  0.00    +0.000 A 
ATOM     26  C   UNL     1       2.262   6.519  19.583  0.00  0.00    +0.000 A 
ATOM     27  O   UNL     1       1.888   7.296  20.459  0.00  0.00    +0.000 OA
ATOM     28  N   UNL     1       2.827   6.926  18.383  0.00  0.00    +0.000 N 
ATOM     29  C   UNL     1       3.256   6.007  17.454  0.00  0.00    +0.000 A 
ATOM     30  N   UNL     1       3.191   4.727  17.595  0.00  0.00    +0.000 NA
ATOM     31  C   UNL     1       2.605   4.220  18.765  0.00  0.00    +0.000 A 
ENDBRANCH  19  28
ENDBRANCH  18  19
ENDBRANCH  17  18
ENDBRANCH   1  17
TORSDOF 5
ENDMDL
MODEL 8
REMARK VINA RESULT:      -7.5      6.735      9.888
REMARK  Name = 
REMARK  6 active torsions:
REMARK  status: ('A' for Active; 'I' for Inactive)
REMARK    1  A    between atoms: C_1  and  C_2
REMARK    2  A    between atoms: N_9  and  C_10
REMARK    3  A    between atoms: C_10  and  C_11
REMARK    4  A    between atoms: C_11  and  C_12
REMARK    5  A    between atoms: C_12  and  C_13
REMARK    6  A    between atoms: N_15  and  C_16
REMARK                            x       y       z     vdW  Elec       q    Type
REMARK                         _______ _______ _______ _____ _____    ______ ____
ROOT
ATOM      1  C   UNL     1       8.118   8.232  18.147  0.00  0.00    +0.000 C 
ATOM      2  O   UNL     1       7.373   8.597  17.241  0.00  0.00    +0.000 OA
ATOM      3  N   UNL     1       8.130   6.967  18.714  0.00  0.00    +0.000 N 
ATOM      4  H   UNL     1       8.496   6.898  19.655  0.00  0.00    +0.000 HD
ENDROOT
BRANCH   3   5
ATOM      5  C   UNL     1       7.201   5.979  18.327  0.00  0.00    +0.000 A 
ATOM      6  C   UNL     1       7.269   5.500  16.996  0.00  0.00    +0.000 A 
ATOM      7  C   UNL     1       6.458   4.442  16.568  0.00  0.00    +0.000 A 
ATOM      8  C   UNL     1       5.554   3.952  17.479  0.00  0.00    +0.000 A 
ATOM      9  N   UNL     1       4.618   2.934  17.340  0.00  0.00    +0.000 N 
ATOM     10  C   UNL     1       3.892   2.824  18.534  0.00  0.00    +0.000 A 
ATOM     11  O   UNL     1       2.980   2.047  18.759  0.00  0.00    +0.000 OA
ATOM     12  N   UNL     1       4.414   3.783  19.413  0.00  0.00    +0.000 N 
ATOM     13  C   UNL     1       5.442   4.465  18.769  0.00  0.00    +0.000 A 
ATOM     14  C   UNL     1       6.261   5.466  19.232  0.00  0.00    +0.000 A 
ATOM     15  H   UNL     1       4.456   2.357  16.531  0.00  0.00    +0.000 HD
ATOM     16  H   UNL     1       4.076   3.931  20.350  0.00  0.00    +0.000 HD
ENDBRANCH   3   5
BRANCH   1  17
ATOM     17  C   UNL     1       9.096   9.192  18.798  0.00  0.00    +0.000 C 
BRANCH  17  18
ATOM     18  C   UNL     1       8.822  10.640  18.386  0.00  0.00    +0.000 C 
BRANCH  18  19
ATOM     19  C   UNL     1      10.076  11.333  17.837  0.00  0.00    +0.000 C 
BRANCH  19  28
ATOM     20  C   UNL     1       8.062  17.456  18.449  0.00  0.00    +0.000 C 
ATOM     21  C   UNL     1       9.384  16.894  18.006  0.00  0.00    +0.000 A 
ATOM     22  C   UNL     1      10.421  17.762  17.626  0.00  0.00    +0.000 A 
ATOM     23  C   UNL     1      11.667  17.263  17.246  0.00  0.00    +0.000 A 
ATOM     24  C   UNL     1      11.896  15.890  17.250  0.00  0.00    +0.000 A 
ATOM     25  C   UNL     1      10.859  15.022  17.609  0.00  0.00    +0.000 A 
ATOM     26  C   UNL     1      11.068  13.562  17.593  0.00  0.00    +0.000 A 
ATOM     27  O   UNL     1      12.174  13.097  17.325  0.00  0.00    +0.000 OA
ATOM     28  N   UNL     1       9.957  12.784  17.887  0.00  0.00    +0.000 N 
ATOM     29  C   UNL     1       8.753  13.364  18.212  0.00  0.00    +0.000 A 
ATOM     30  N   UNL     1       8.538  14.633  18.286  0.00  0.00    +0.000 NA
ATOM     31  C   UNL     1       9.597  15.501  17.976  0.00  0.00    +0.000 A 
ENDBRANCH  19  28
ENDBRANCH  18  19
ENDBRANCH  17  18
ENDBRANCH   1  17
TORSDOF 5
ENDMDL
MODEL 9
REMARK VINA RESULT:      -7.5      6.198      8.271
REMARK  Name = 
REMARK  6 active torsions:
REMARK  status: ('A' for Active; 'I' for Inactive)
REMARK    1  A    between atoms: C_1  and  C_2
REMARK    2  A    between atoms: N_9  and  C_10
REMARK    3  A    between atoms: C_10  and  C_11
REMARK    4  A    between atoms: C_11  and  C_12
REMARK    5  A    between atoms: C_12  and  C_13
REMARK    6  A    between atoms: N_15  and  C_16
REMARK                            x       y       z     vdW  Elec       q    Type
REMARK                         _______ _______ _______ _____ _____    ______ ____
ROOT
ATOM      1  C   UNL     1       8.916  10.133  18.465  0.00  0.00    +0.000 C 
ATOM      2  O   UNL     1       9.278   9.844  19.602  0.00  0.00    +0.000 OA
ATOM      3  N   UNL     1       9.288  11.275  17.772  0.00  0.00    +0.000 N 
ATOM      4  H   UNL     1       8.663  11.581  17.037  0.00  0.00    +0.000 HD
ENDROOT
BRANCH   3   5
ATOM      5  C   UNL     1      10.089  12.270  18.370  0.00  0.00    +0.000 A 
ATOM      6  C   UNL     1      11.485  12.215  18.139  0.00  0.00    +0.000 A 
ATOM      7  C   UNL     1      12.333  13.227  18.604  0.00  0.00    +0.000 A 
ATOM      8  C   UNL     1      11.752  14.223  19.350  0.00  0.00    +0.000 A 
ATOM      9  N   UNL     1      12.332  15.334  19.952  0.00  0.00    +0.000 N 
ATOM     10  C   UNL     1      11.337  16.042  20.642  0.00  0.00    +0.000 A 
ATOM     11  O   UNL     1      11.494  17.057  21.298  0.00  0.00    +0.000 OA
ATOM     12  N   UNL     1      10.135  15.352  20.435  0.00  0.00    +0.000 N 
ATOM     13  C   UNL     1      10.389  14.245  19.631  0.00  0.00    +0.000 A 
ATOM     14  C   UNL     1       9.525  13.294  19.144  0.00  0.00    +0.000 A 
ATOM     15  H   UNL     1      13.299  15.610  19.924  0.00  0.00    +0.000 HD
ATOM     16  H   UNL     1       9.250  15.637  20.822  0.00  0.00    +0.000 HD
ENDBRANCH   3   5
BRANCH   1  17
ATOM     17  C   UNL     1       7.938   9.259  17.701  0.00  0.00    +0.000 C 
BRANCH  17  18
ATOM     18  C   UNL     1       8.013   7.800  18.159  0.00  0.00    +0.000 C 
BRANCH  18  19
ATOM     19  C   UNL     1       7.399   6.839  17.131  0.00  0.00    +0.000 C 
BRANCH  19  28
ATOM     20  C   UNL     1       4.184   2.250  20.375  0.00  0.00    +0.000 C 
ATOM     21  C   UNL     1       3.691   3.348  19.474  0.00  0.00    +0.000 A 
ATOM     22  C   UNL     1       2.317   3.476  19.217  0.00  0.00    +0.000 A 
ATOM     23  C   UNL     1       1.834   4.509  18.412  0.00  0.00    +0.000 A 
ATOM     24  C   UNL     1       2.719   5.432  17.862  0.00  0.00    +0.000 A 
ATOM     25  C   UNL     1       4.090   5.295  18.101  0.00  0.00    +0.000 A 
ATOM     26  C   UNL     1       5.050   6.244  17.505  0.00  0.00    +0.000 A 
ATOM     27  O   UNL     1       4.648   7.200  16.845  0.00  0.00    +0.000 OA
ATOM     28  N   UNL     1       6.393   5.976  17.734  0.00  0.00    +0.000 N 
ATOM     29  C   UNL     1       6.780   4.908  18.509  0.00  0.00    +0.000 A 
ATOM     30  N   UNL     1       5.975   4.084  19.089  0.00  0.00    +0.000 NA
ATOM     31  C   UNL     1       4.596   4.256  18.890  0.00  0.00    +0.000 A 
ENDBRANCH  19  28
ENDBRANCH  18  19
ENDBRANCH  17  18
ENDBRANCH   1  17
TORSDOF 5
ENDMDL
