MODEL 1
REMARK VINA RESULT:      -8.8      0.000      0.000
REMARK  Name = 
REMARK  8 active torsions:
REMARK  status: ('A' for Active; 'I' for Inactive)
REMARK    1  A    between atoms: C_1  and  C_2
REMARK    2  A    between atoms: C_2  and  C_4
REMARK    3  A    between atoms: C_8  and  C_9
REMARK    4  A    between atoms: N_11  and  C_12
REMARK    5  A    between atoms: C_16  and  C_17
REMARK    6  A    between atoms: C_17  and  C_18
REMARK    7  A    between atoms: C_18  and  C_19
REMARK    8  A    between atoms: N_23  and  C_24
REMARK                            x       y       z     vdW  Elec       q    Type
REMARK                         _______ _______ _______ _____ _____    ______ ____
ROOT
ATOM      1  C   UNL     1       2.597   5.923  18.331  0.00  0.00    +0.000 A 
ATOM      2  C   UNL     1       1.953   4.702  18.520  0.00  0.00    +0.000 A 
ATOM      3  C   UNL     1       2.452   3.544  17.932  0.00  0.00    +0.000 A 
ATOM      4  C   UNL     1       3.588   3.608  17.134  0.00  0.00    +0.000 A 
ATOM      5  C   UNL     1       4.257   4.823  16.879  0.00  0.00    +0.000 A 
ATOM      6  C   UNL     1       3.737   5.973  17.513  0.00  0.00    +0.000 A 
ENDROOT
BRANCH   1   9
ATOM      7  C   UNL     1       2.013   8.350  18.284  0.00  0.00    +0.000 C 
ATOM      8  O   UNL     1       2.239   8.610  17.109  0.00  0.00    +0.000 OA
ATOM      9  N   UNL     1       2.151   7.126  18.915  0.00  0.00    +0.000 N 
ATOM     10  H   UNL     1       1.833   7.100  19.881  0.00  0.00    +0.000 HD
BRANCH   7  15
ATOM     11  C   UNL     1       0.471  10.122  21.248  0.00  0.00    +0.000 A 
ATOM     12  C   UNL     1       0.576  11.437  20.784  0.00  0.00    +0.000 A 
ATOM     13  C   UNL     1       1.139  11.677  19.538  0.00  0.00    +0.000 A 
ATOM     14  N   UNL     1       1.610  10.708  18.725  0.00  0.00    +0.000 NA
ATOM     15  C   UNL     1       1.489   9.433  19.182  0.00  0.00    +0.000 A 
ATOM     16  C   UNL     1       0.929   9.095  20.415  0.00  0.00    +0.000 A 
BRANCH  11  18
ATOM     17  C   UNL     1      -1.156  10.891  23.031  0.00  0.00    +0.000 C 
ATOM     18  C   UNL     1      -0.150   9.834  22.596  0.00  0.00    +0.000 C 
ATOM     19  F   UNL     1      -0.806   8.633  22.611  0.00  0.00    +0.000 F 
ENDBRANCH  11  18
ENDBRANCH   7  15
ENDBRANCH   1   9
BRANCH   5  20
ATOM     20  C   UNL     1       5.515   4.876  15.874  0.00  0.00    +0.000 C 
ATOM     21  C   UNL     1       5.103   4.882  14.347  0.00  0.00    +0.000 C 
ATOM     22  C   UNL     1       6.310   3.989  14.049  0.00  0.00    +0.000 C 
ATOM     23  C   UNL     1       6.269   3.540  15.524  0.00  0.00    +0.000 C 
BRANCH  20  24
ATOM     24  C   UNL     1       6.431   6.067  16.264  0.00  0.00    +0.000 C 
BRANCH  24  25
ATOM     25  C   UNL     1       7.109   5.921  17.593  0.00  0.00    +0.000 A 
ATOM     26  N   UNL     1       7.181   4.814  18.310  0.00  0.00    +0.000 NA
ATOM     27  N   UNL     1       7.918   5.079  19.447  0.00  0.00    +0.000 NA
ATOM     28  C   UNL     1       8.287   6.334  19.393  0.00  0.00    +0.000 A 
ATOM     29  N   UNL     1       7.800   6.907  18.258  0.00  0.00    +0.000 N 
ATOM     30  C   UNL     1       8.008   8.274  17.868  0.00  0.00    +0.000 C 
ENDBRANCH  24  25
ENDBRANCH  20  24
ENDBRANCH   5  20
TORSDOF 6
ENDMDL
MODEL 2
REMARK VINA RESULT:      -8.6      1.094      1.504
REMARK  Name = 
REMARK  8 active torsions:
REMARK  status: ('A' for Active; 'I' for Inactive)
REMARK    1  A    between atoms: C_1  and  C_2
REMARK    2  A    between atoms: C_2  and  C_4
REMARK    3  A    between atoms: C_8  and  C_9
REMARK    4  A    between atoms: N_11  and  C_12
REMARK    5  A    between atoms: C_16  and  C_17
REMARK    6  A    between atoms: C_17  and  C_18
REMARK    7  A    between atoms: C_18  and  C_19
REMARK    8  A    between atoms: N_23  and  C_24
REMARK                            x       y       z     vdW  Elec       q    Type
REMARK                         _______ _______ _______ _____ _____    ______ ____
ROOT
ATOM      1  C   UNL     1       3.018   5.545  19.236  0.00  0.00    +0.000 A 
ATOM      2  C   UNL     1       2.889   4.377  19.984  0.00  0.00    +0.000 A 
ATOM      3  C   UNL     1       3.669   3.263  19.690  0.00  0.00    +0.000 A 
ATOM      4  C   UNL     1       4.566   3.308  18.630  0.00  0.00    +0.000 A 
ATOM      5  C   UNL     1       4.710   4.452  17.817  0.00  0.00    +0.000 A 
ATOM      6  C   UNL     1       3.920   5.571  18.161  0.00  0.00    +0.000 A 
ENDROOT
BRANCH   1   9
ATOM      7  C   UNL     1       2.302   7.894  18.779  0.00  0.00    +0.000 C 
ATOM      8  O   UNL     1       2.971   8.139  17.783  0.00  0.00    +0.000 OA
ATOM      9  N   UNL     1       2.269   6.711  19.498  0.00  0.00    +0.000 N 
ATOM     10  H   UNL     1       1.584   6.682  20.249  0.00  0.00    +0.000 HD
BRANCH   7  15
ATOM     11  C   UNL     1       0.201   9.974  21.136  0.00  0.00    +0.000 A 
ATOM     12  C   UNL     1      -0.323  10.878  20.207  0.00  0.00    +0.000 A 
ATOM     13  C   UNL     1       0.032  10.765  18.870  0.00  0.00    +0.000 A 
ATOM     14  N   UNL     1       0.873   9.823  18.392  0.00  0.00    +0.000 NA
ATOM     15  C   UNL     1       1.364   8.942  19.303  0.00  0.00    +0.000 A 
ATOM     16  C   UNL     1       1.057   8.972  20.664  0.00  0.00    +0.000 A 
BRANCH  11  18
ATOM     17  C   UNL     1      -1.142  11.214  22.891  0.00  0.00    +0.000 C 
ATOM     18  C   UNL     1      -0.180  10.070  22.596  0.00  0.00    +0.000 C 
ATOM     19  F   UNL     1      -0.779   8.924  23.045  0.00  0.00    +0.000 F 
ENDBRANCH  11  18
ENDBRANCH   7  15
ENDBRANCH   1   9
BRANCH   5  20
ATOM     20  C   UNL     1       5.691   4.437  16.539  0.00  0.00    +0.000 C 
ATOM     21  C   UNL     1       5.294   5.487  15.426  0.00  0.00    +0.000 C 
ATOM     22  C   UNL     1       5.695   4.465  14.360  0.00  0.00    +0.000 C 
ATOM     23  C   UNL     1       5.461   3.362  15.413  0.00  0.00    +0.000 C 
BRANCH  20  24
ATOM     24  C   UNL     1       7.159   4.583  17.021  0.00  0.00    +0.000 C 
BRANCH  24  25
ATOM     25  C   UNL     1       7.548   5.976  17.414  0.00  0.00    +0.000 A 
ATOM     26  N   UNL     1       7.588   7.026  16.614  0.00  0.00    +0.000 NA
ATOM     27  N   UNL     1       7.956   8.128  17.359  0.00  0.00    +0.000 NA
ATOM     28  C   UNL     1       8.120   7.731  18.596  0.00  0.00    +0.000 A 
ATOM     29  N   UNL     1       7.885   6.392  18.681  0.00  0.00    +0.000 N 
ATOM     30  C   UNL     1       7.970   5.614  19.887  0.00  0.00    +0.000 C 
ENDBRANCH  24  25
ENDBRANCH  20  24
ENDBRANCH   5  20
TORSDOF 6
ENDMDL
MODEL 3
REMARK VINA RESULT:      -8.5      1.290      1.647
REMARK  Name = 
REMARK  8 active torsions:
REMARK  status: ('A' for Active; 'I' for Inactive)
REMARK    1  A    between atoms: C_1  and  C_2
REMARK    2  A    between atoms: C_2  and  C_4
REMARK    3  A    between atoms: C_8  and  C_9
REMARK    4  A    between atoms: N_11  and  C_12
REMARK    5  A    between atoms: C_16  and  C_17
REMARK    6  A    between atoms: C_17  and  C_18
REMARK    7  A    between atoms: C_18  and  C_19
REMARK    8  A    between atoms: N_23  and  C_24
REMARK                            x       y       z     vdW  Elec       q    Type
REMARK                         _______ _______ _______ _____ _____    ______ ____
ROOT
ATOM      1  C   UNL     1       2.784   5.536  18.272  0.00  0.00    +0.000 A 
ATOM      2  C   UNL     1       2.211   4.306  18.586  0.00  0.00    +0.000 A 
ATOM      3  C   UNL     1       2.803   3.123  18.154  0.00  0.00    +0.000 A 
ATOM      4  C   UNL     1       3.960   3.169  17.385  0.00  0.00    +0.000 A 
ATOM      5  C   UNL     1       4.560   4.388  17.008  0.00  0.00    +0.000 A 
ATOM      6  C   UNL     1       3.947   5.567  17.486  0.00  0.00    +0.000 A 
ENDROOT
BRANCH   1   9
ATOM      7  C   UNL     1       1.836   7.093  19.979  0.00  0.00    +0.000 C 
ATOM      8  O   UNL     1       1.885   6.385  20.976  0.00  0.00    +0.000 OA
ATOM      9  N   UNL     1       2.242   6.766  18.696  0.00  0.00    +0.000 N 
ATOM     10  H   UNL     1       2.193   7.526  18.022  0.00  0.00    +0.000 HD
BRANCH   7  15
ATOM     11  C   UNL     1       0.262  10.223  21.402  0.00  0.00    +0.000 A 
ATOM     12  C   UNL     1       0.432  11.064  20.299  0.00  0.00    +0.000 A 
ATOM     13  C   UNL     1       1.047  10.572  19.155  0.00  0.00    +0.000 A 
ATOM     14  N   UNL     1       1.508   9.310  19.033  0.00  0.00    +0.000 NA
ATOM     15  C   UNL     1       1.323   8.498  20.107  0.00  0.00    +0.000 A 
ATOM     16  C   UNL     1       0.709   8.901  21.294  0.00  0.00    +0.000 A 
BRANCH  11  18
ATOM     17  C   UNL     1      -1.497  11.767  22.372  0.00  0.00    +0.000 C 
ATOM     18  C   UNL     1      -0.416  10.732  22.654  0.00  0.00    +0.000 C 
ATOM     19  F   UNL     1      -1.010   9.722  23.362  0.00  0.00    +0.000 F 
ENDBRANCH  11  18
ENDBRANCH   7  15
ENDBRANCH   1   9
BRANCH   5  20
ATOM     20  C   UNL     1       5.848   4.406  16.039  0.00  0.00    +0.000 C 
ATOM     21  C   UNL     1       5.769   5.507  14.906  0.00  0.00    +0.000 C 
ATOM     22  C   UNL     1       6.435   4.521  13.943  0.00  0.00    +0.000 C 
ATOM     23  C   UNL     1       5.921   3.381  14.848  0.00  0.00    +0.000 C 
BRANCH  20  24
ATOM     24  C   UNL     1       7.134   4.508  16.902  0.00  0.00    +0.000 C 
BRANCH  24  25
ATOM     25  C   UNL     1       7.499   5.903  17.311  0.00  0.00    +0.000 A 
ATOM     26  N   UNL     1       7.528   6.962  16.522  0.00  0.00    +0.000 NA
ATOM     27  N   UNL     1       7.873   8.062  17.281  0.00  0.00    +0.000 NA
ATOM     28  C   UNL     1       8.034   7.654  18.515  0.00  0.00    +0.000 A 
ATOM     29  N   UNL     1       7.820   6.311  18.585  0.00  0.00    +0.000 N 
ATOM     30  C   UNL     1       7.909   5.523  19.784  0.00  0.00    +0.000 C 
ENDBRANCH  24  25
ENDBRANCH  20  24
ENDBRANCH   5  20
TORSDOF 6
ENDMDL
MODEL 4
REMARK VINA RESULT:      -8.3      1.864      2.509
REMARK  Name = 
REMARK  8 active torsions:
REMARK  status: ('A' for Active; 'I' for Inactive)
REMARK    1  A    between atoms: C_1  and  C_2
REMARK    2  A    between atoms: C_2  and  C_4
REMARK    3  A    between atoms: C_8  and  C_9
REMARK    4  A    between atoms: N_11  and  C_12
REMARK    5  A    between atoms: C_16  and  C_17
REMARK    6  A    between atoms: C_17  and  C_18
REMARK    7  A    between atoms: C_18  and  C_19
REMARK    8  A    between atoms: N_23  and  C_24
REMARK                            x       y       z     vdW  Elec       q    Type
REMARK                         _______ _______ _______ _____ _____    ______ ____
ROOT
ATOM      1  C   UNL     1       2.638   5.509  18.233  0.00  0.00    +0.000 A 
ATOM      2  C   UNL     1       1.915   4.320  18.282  0.00  0.00    +0.000 A 
ATOM      3  C   UNL     1       2.418   3.164  17.692  0.00  0.00    +0.000 A 
ATOM      4  C   UNL     1       3.639   3.202  17.029  0.00  0.00    +0.000 A 
ATOM      5  C   UNL     1       4.394   4.388  16.917  0.00  0.00    +0.000 A 
ATOM      6  C   UNL     1       3.865   5.534  17.550  0.00  0.00    +0.000 A 
ENDROOT
BRANCH   1   9
ATOM      7  C   UNL     1       1.805   6.881  20.145  0.00  0.00    +0.000 C 
ATOM      8  O   UNL     1       1.795   6.040  21.035  0.00  0.00    +0.000 OA
ATOM      9  N   UNL     1       2.189   6.706  18.827  0.00  0.00    +0.000 N 
ATOM     10  H   UNL     1       2.200   7.554  18.265  0.00  0.00    +0.000 HD
BRANCH   7  15
ATOM     11  C   UNL     1       1.005  10.560  19.787  0.00  0.00    +0.000 A 
ATOM     12  C   UNL     1       0.631  10.823  21.108  0.00  0.00    +0.000 A 
ATOM     13  C   UNL     1       0.658   9.796  22.042  0.00  0.00    +0.000 A 
ATOM     14  N   UNL     1       1.024   8.529  21.756  0.00  0.00    +0.000 NA
ATOM     15  C   UNL     1       1.399   8.289  20.471  0.00  0.00    +0.000 A 
ATOM     16  C   UNL     1       1.413   9.259  19.468  0.00  0.00    +0.000 A 
BRANCH  11  18
ATOM     17  C   UNL     1       0.788  13.047  19.358  0.00  0.00    +0.000 C 
ATOM     18  C   UNL     1       0.996  11.665  18.755  0.00  0.00    +0.000 C 
ATOM     19  F   UNL     1       2.166  11.713  18.046  0.00  0.00    +0.000 F 
ENDBRANCH  11  18
ENDBRANCH   7  15
ENDBRANCH   1   9
BRANCH   5  20
ATOM     20  C   UNL     1       5.760   4.418  16.062  0.00  0.00    +0.000 C 
ATOM     21  C   UNL     1       5.788   5.548  14.957  0.00  0.00    +0.000 C 
ATOM     22  C   UNL     1       6.525   4.580  14.028  0.00  0.00    +0.000 C 
ATOM     23  C   UNL     1       5.926   3.423  14.854  0.00  0.00    +0.000 C 
BRANCH  20  24
ATOM     24  C   UNL     1       6.969   4.483  17.034  0.00  0.00    +0.000 C 
BRANCH  24  25
ATOM     25  C   UNL     1       7.412   5.871  17.382  0.00  0.00    +0.000 A 
ATOM     26  N   UNL     1       7.439   6.907  16.563  0.00  0.00    +0.000 NA
ATOM     27  N   UNL     1       7.871   8.010  17.270  0.00  0.00    +0.000 NA
ATOM     28  C   UNL     1       8.087   7.629  18.503  0.00  0.00    +0.000 A 
ATOM     29  N   UNL     1       7.823   6.298  18.624  0.00  0.00    +0.000 N 
ATOM     30  C   UNL     1       7.949   5.539  19.837  0.00  0.00    +0.000 C 
ENDBRANCH  24  25
ENDBRANCH  20  24
ENDBRANCH   5  20
TORSDOF 6
ENDMDL
MODEL 5
REMARK VINA RESULT:      -8.3      4.540      7.004
REMARK  Name = 
REMARK  8 active torsions:
REMARK  status: ('A' for Active; 'I' for Inactive)
REMARK    1  A    between atoms: C_1  and  C_2
REMARK    2  A    between atoms: C_2  and  C_4
REMARK    3  A    between atoms: C_8  and  C_9
REMARK    4  A    between atoms: N_11  and  C_12
REMARK    5  A    between atoms: C_16  and  C_17
REMARK    6  A    between atoms: C_17  and  C_18
REMARK    7  A    between atoms: C_18  and  C_19
REMARK    8  A    between atoms: N_23  and  C_24
REMARK                            x       y       z     vdW  Elec       q    Type
REMARK                         _______ _______ _______ _____ _____    ______ ____
ROOT
ATOM      1  C   UNL     1       6.672   6.972  16.985  0.00  0.00    +0.000 A 
ATOM      2  C   UNL     1       7.313   5.996  16.226  0.00  0.00    +0.000 A 
ATOM      3  C   UNL     1       6.710   4.761  16.012  0.00  0.00    +0.000 A 
ATOM      4  C   UNL     1       5.470   4.489  16.579  0.00  0.00    +0.000 A 
ATOM      5  C   UNL     1       4.794   5.427  17.387  0.00  0.00    +0.000 A 
ATOM      6  C   UNL     1       5.425   6.679  17.560  0.00  0.00    +0.000 A 
ENDROOT
BRANCH   1   9
ATOM      7  C   UNL     1       8.173   8.576  18.173  0.00  0.00    +0.000 C 
ATOM      8  O   UNL     1       8.715   7.822  18.972  0.00  0.00    +0.000 OA
ATOM      9  N   UNL     1       7.223   8.248  17.221  0.00  0.00    +0.000 N 
ATOM     10  H   UNL     1       6.958   9.007  16.598  0.00  0.00    +0.000 HD
BRANCH   7  15
ATOM     11  C   UNL     1      10.064  11.787  18.813  0.00  0.00    +0.000 A 
ATOM     12  C   UNL     1       9.265  12.655  18.061  0.00  0.00    +0.000 A 
ATOM     13  C   UNL     1       8.158  12.152  17.390  0.00  0.00    +0.000 A 
ATOM     14  N   UNL     1       7.794  10.852  17.406  0.00  0.00    +0.000 NA
ATOM     15  C   UNL     1       8.571  10.023  18.152  0.00  0.00    +0.000 A 
ATOM     16  C   UNL     1       9.695  10.438  18.868  0.00  0.00    +0.000 A 
BRANCH  11  18
ATOM     17  C   UNL     1      11.095  13.750  20.039  0.00  0.00    +0.000 C 
ATOM     18  C   UNL     1      11.266  12.313  19.564  0.00  0.00    +0.000 C 
ATOM     19  F   UNL     1      11.548  11.560  20.671  0.00  0.00    +0.000 F 
ENDBRANCH  11  18
ENDBRANCH   7  15
ENDBRANCH   1   9
BRANCH   5  20
ATOM     20  C   UNL     1       3.402   5.046  18.104  0.00  0.00    +0.000 C 
ATOM     21  C   UNL     1       2.705   3.768  17.487  0.00  0.00    +0.000 C 
ATOM     22  C   UNL     1       1.348   4.449  17.688  0.00  0.00    +0.000 C 
ATOM     23  C   UNL     1       2.091   5.801  17.674  0.00  0.00    +0.000 C 
BRANCH  20  24
ATOM     24  C   UNL     1       3.630   4.938  19.635  0.00  0.00    +0.000 C 
BRANCH  24  25
ATOM     25  C   UNL     1       3.989   3.564  20.115  0.00  0.00    +0.000 A 
ATOM     26  N   UNL     1       5.122   2.929  19.876  0.00  0.00    +0.000 NA
ATOM     27  N   UNL     1       5.082   1.709  20.520  0.00  0.00    +0.000 NA
ATOM     28  C   UNL     1       3.934   1.631  21.146  0.00  0.00    +0.000 A 
ATOM     29  N   UNL     1       3.211   2.763  20.918  0.00  0.00    +0.000 N 
ATOM     30  C   UNL     1       1.901   3.025  21.448  0.00  0.00    +0.000 C 
ENDBRANCH  24  25
ENDBRANCH  20  24
ENDBRANCH   5  20
TORSDOF 6
ENDMDL
MODEL 6
REMARK VINA RESULT:      -8.2      1.534      2.251
REMARK  Name = 
REMARK  8 active torsions:
REMARK  status: ('A' for Active; 'I' for Inactive)
REMARK    1  A    between atoms: C_1  and  C_2
REMARK    2  A    between atoms: C_2  and  C_4
REMARK    3  A    between atoms: C_8  and  C_9
REMARK    4  A    between atoms: N_11  and  C_12
REMARK    5  A    between atoms: C_16  and  C_17
REMARK    6  A    between atoms: C_17  and  C_18
REMARK    7  A    between atoms: C_18  and  C_19
REMARK    8  A    between atoms: N_23  and  C_24
REMARK                            x       y       z     vdW  Elec       q    Type
REMARK                         _______ _______ _______ _____ _____    ______ ____
ROOT
ATOM      1  C   UNL     1       2.744   5.317  18.664  0.00  0.00    +0.000 A 
ATOM      2  C   UNL     1       2.127   4.077  18.815  0.00  0.00    +0.000 A 
ATOM      3  C   UNL     1       2.661   2.946  18.205  0.00  0.00    +0.000 A 
ATOM      4  C   UNL     1       3.805   3.057  17.423  0.00  0.00    +0.000 A 
ATOM      5  C   UNL     1       4.448   4.293  17.207  0.00  0.00    +0.000 A 
ATOM      6  C   UNL     1       3.892   5.415  17.862  0.00  0.00    +0.000 A 
ENDROOT
BRANCH   1   9
ATOM      7  C   UNL     1       2.158   7.744  18.685  0.00  0.00    +0.000 C 
ATOM      8  O   UNL     1       2.451   8.054  17.538  0.00  0.00    +0.000 OA
ATOM      9  N   UNL     1       2.261   6.494  19.271  0.00  0.00    +0.000 N 
ATOM     10  H   UNL     1       1.888   6.428  20.215  0.00  0.00    +0.000 HD
BRANCH   7  15
ATOM     11  C   UNL     1       0.600  10.959  19.927  0.00  0.00    +0.000 A 
ATOM     12  C   UNL     1       0.516  10.640  21.286  0.00  0.00    +0.000 A 
ATOM     13  C   UNL     1       0.968   9.403  21.725  0.00  0.00    +0.000 A 
ATOM     14  N   UNL     1       1.490   8.460  20.912  0.00  0.00    +0.000 NA
ATOM     15  C   UNL     1       1.580   8.789  19.596  0.00  0.00    +0.000 A 
ATOM     16  C   UNL     1       1.161  10.009  19.065  0.00  0.00    +0.000 A 
BRANCH  11  18
ATOM     17  C   UNL     1       1.245  13.151  18.834  0.00  0.00    +0.000 C 
ATOM     18  C   UNL     1       0.126  12.304  19.427  0.00  0.00    +0.000 C 
ATOM     19  F   UNL     1      -0.834  12.182  18.459  0.00  0.00    +0.000 F 
ENDBRANCH  11  18
ENDBRANCH   7  15
ENDBRANCH   1   9
BRANCH   5  20
ATOM     20  C   UNL     1       5.717   4.400  16.219  0.00  0.00    +0.000 C 
ATOM     21  C   UNL     1       5.589   5.559  15.151  0.00  0.00    +0.000 C 
ATOM     22  C   UNL     1       6.263   4.646  14.124  0.00  0.00    +0.000 C 
ATOM     23  C   UNL     1       5.795   3.445  14.972  0.00  0.00    +0.000 C 
BRANCH  20  24
ATOM     24  C   UNL     1       7.015   4.490  17.065  0.00  0.00    +0.000 C 
BRANCH  24  25
ATOM     25  C   UNL     1       7.440   5.886  17.406  0.00  0.00    +0.000 A 
ATOM     26  N   UNL     1       7.466   6.914  16.577  0.00  0.00    +0.000 NA
ATOM     27  N   UNL     1       7.878   8.029  17.278  0.00  0.00    +0.000 NA
ATOM     28  C   UNL     1       8.084   7.661  18.518  0.00  0.00    +0.000 A 
ATOM     29  N   UNL     1       7.832   6.329  18.648  0.00  0.00    +0.000 N 
ATOM     30  C   UNL     1       7.952   5.582  19.869  0.00  0.00    +0.000 C 
ENDBRANCH  24  25
ENDBRANCH  20  24
ENDBRANCH   5  20
TORSDOF 6
ENDMDL
MODEL 7
REMARK VINA RESULT:      -8.2      2.045      3.606
REMARK  Name = 
REMARK  8 active torsions:
REMARK  status: ('A' for Active; 'I' for Inactive)
REMARK    1  A    between atoms: C_1  and  C_2
REMARK    2  A    between atoms: C_2  and  C_4
REMARK    3  A    between atoms: C_8  and  C_9
REMARK    4  A    between atoms: N_11  and  C_12
REMARK    5  A    between atoms: C_16  and  C_17
REMARK    6  A    between atoms: C_17  and  C_18
REMARK    7  A    between atoms: C_18  and  C_19
REMARK    8  A    between atoms: N_23  and  C_24
REMARK                            x       y       z     vdW  Elec       q    Type
REMARK                         _______ _______ _______ _____ _____    ______ ____
ROOT
ATOM      1  C   UNL     1       2.151   7.871  19.120  0.00  0.00    +0.000 A 
ATOM      2  C   UNL     1       2.812   8.438  18.033  0.00  0.00    +0.000 A 
ATOM      3  C   UNL     1       3.536   7.640  17.153  0.00  0.00    +0.000 A 
ATOM      4  C   UNL     1       3.618   6.269  17.372  0.00  0.00    +0.000 A 
ATOM      5  C   UNL     1       2.999   5.648  18.476  0.00  0.00    +0.000 A 
ATOM      6  C   UNL     1       2.252   6.487  19.333  0.00  0.00    +0.000 A 
ENDROOT
BRANCH   1   9
ATOM      7  C   UNL     1       0.439   9.585  19.726  0.00  0.00    +0.000 C 
ATOM      8  O   UNL     1       0.079   9.943  18.612  0.00  0.00    +0.000 OA
ATOM      9  N   UNL     1       1.388   8.625  20.034  0.00  0.00    +0.000 N 
ATOM     10  H   UNL     1       1.483   8.416  21.025  0.00  0.00    +0.000 HD
BRANCH   7  15
ATOM     11  C   UNL     1      -1.512  11.946  21.944  0.00  0.00    +0.000 A 
ATOM     12  C   UNL     1      -1.408  11.239  23.146  0.00  0.00    +0.000 A 
ATOM     13  C   UNL     1      -0.712  10.038  23.172  0.00  0.00    +0.000 A 
ATOM     14  N   UNL     1      -0.120   9.487  22.091  0.00  0.00    +0.000 NA
ATOM     15  C   UNL     1      -0.216  10.192  20.933  0.00  0.00    +0.000 A 
ATOM     16  C   UNL     1      -0.885  11.410  20.813  0.00  0.00    +0.000 A 
BRANCH  11  18
ATOM     17  C   UNL     1      -3.073  13.537  23.147  0.00  0.00    +0.000 C 
ATOM     18  C   UNL     1      -2.253  13.262  21.893  0.00  0.00    +0.000 C 
ATOM     19  F   UNL     1      -1.403  14.323  21.735  0.00  0.00    +0.000 F 
ENDBRANCH  11  18
ENDBRANCH   7  15
ENDBRANCH   1   9
BRANCH   5  20
ATOM     20  C   UNL     1       3.192   4.072  18.750  0.00  0.00    +0.000 C 
ATOM     21  C   UNL     1       1.952   3.198  18.305  0.00  0.00    +0.000 C 
ATOM     22  C   UNL     1       2.171   2.314  19.536  0.00  0.00    +0.000 C 
ATOM     23  C   UNL     1       2.900   3.507  20.189  0.00  0.00    +0.000 C 
BRANCH  20  24
ATOM     24  C   UNL     1       4.529   3.604  18.116  0.00  0.00    +0.000 C 
BRANCH  24  25
ATOM     25  C   UNL     1       5.733   4.378  18.561  0.00  0.00    +0.000 A 
ATOM     26  N   UNL     1       5.989   4.774  19.795  0.00  0.00    +0.000 NA
ATOM     27  N   UNL     1       7.208   5.421  19.801  0.00  0.00    +0.000 NA
ATOM     28  C   UNL     1       7.673   5.396  18.577  0.00  0.00    +0.000 A 
ATOM     29  N   UNL     1       6.784   4.763  17.762  0.00  0.00    +0.000 N 
ATOM     30  C   UNL     1       6.964   4.549  16.352  0.00  0.00    +0.000 C 
ENDBRANCH  24  25
ENDBRANCH  20  24
ENDBRANCH   5  20
TORSDOF 6
ENDMDL
MODEL 8
REMARK VINA RESULT:      -8.2      1.406      2.073
REMARK  Name = 
REMARK  8 active torsions:
REMARK  status: ('A' for Active; 'I' for Inactive)
REMARK    1  A    between atoms: C_1  and  C_2
REMARK    2  A    between atoms: C_2  and  C_4
REMARK    3  A    between atoms: C_8  and  C_9
REMARK    4  A    between atoms: N_11  and  C_12
REMARK    5  A    between atoms: C_16  and  C_17
REMARK    6  A    between atoms: C_17  and  C_18
REMARK    7  A    between atoms: C_18  and  C_19
REMARK    8  A    between atoms: N_23  and  C_24
REMARK                            x       y       z     vdW  Elec       q    Type
REMARK                         _______ _______ _______ _____ _____    ______ ____
ROOT
ATOM      1  C   UNL     1       2.527   5.859  18.277  0.00  0.00    +0.000 A 
ATOM      2  C   UNL     1       1.864   4.641  18.418  0.00  0.00    +0.000 A 
ATOM      3  C   UNL     1       2.367   3.492  17.816  0.00  0.00    +0.000 A 
ATOM      4  C   UNL     1       3.526   3.562  17.052  0.00  0.00    +0.000 A 
ATOM      5  C   UNL     1       4.215   4.775  16.846  0.00  0.00    +0.000 A 
ATOM      6  C   UNL     1       3.690   5.916  17.493  0.00  0.00    +0.000 A 
ENDROOT
BRANCH   1   9
ATOM      7  C   UNL     1       2.045   8.309  18.297  0.00  0.00    +0.000 C 
ATOM      8  O   UNL     1       2.387   8.612  17.162  0.00  0.00    +0.000 OA
ATOM      9  N   UNL     1       2.077   7.052  18.877  0.00  0.00    +0.000 N 
ATOM     10  H   UNL     1       1.671   6.997  19.809  0.00  0.00    +0.000 HD
BRANCH   7  15
ATOM     11  C   UNL     1       0.801  11.647  19.567  0.00  0.00    +0.000 A 
ATOM     12  C   UNL     1       0.440  11.258  20.860  0.00  0.00    +0.000 A 
ATOM     13  C   UNL     1       0.620   9.938  21.251  0.00  0.00    +0.000 A 
ATOM     14  N   UNL     1       1.124   8.978  20.447  0.00  0.00    +0.000 NA
ATOM     15  C   UNL     1       1.485   9.372  19.197  0.00  0.00    +0.000 A 
ATOM     16  C   UNL     1       1.351  10.677  18.721  0.00  0.00    +0.000 A 
BRANCH  11  18
ATOM     17  C   UNL     1       1.811  13.609  18.323  0.00  0.00    +0.000 C 
ATOM     18  C   UNL     1       0.628  13.082  19.123  0.00  0.00    +0.000 C 
ATOM     19  F   UNL     1      -0.484  13.245  18.341  0.00  0.00    +0.000 F 
ENDBRANCH  11  18
ENDBRANCH   7  15
ENDBRANCH   1   9
BRANCH   5  20
ATOM     20  C   UNL     1       5.502   4.837  15.878  0.00  0.00    +0.000 C 
ATOM     21  C   UNL     1       5.136   4.801  14.340  0.00  0.00    +0.000 C 
ATOM     22  C   UNL     1       6.373   3.932  14.097  0.00  0.00    +0.000 C 
ATOM     23  C   UNL     1       6.297   3.513  15.580  0.00  0.00    +0.000 C 
BRANCH  20  24
ATOM     24  C   UNL     1       6.376   6.059  16.269  0.00  0.00    +0.000 C 
BRANCH  24  25
ATOM     25  C   UNL     1       7.084   5.921  17.583  0.00  0.00    +0.000 A 
ATOM     26  N   UNL     1       7.185   4.815  18.298  0.00  0.00    +0.000 NA
ATOM     27  N   UNL     1       7.943   5.089  19.419  0.00  0.00    +0.000 NA
ATOM     28  C   UNL     1       8.296   6.349  19.358  0.00  0.00    +0.000 A 
ATOM     29  N   UNL     1       7.777   6.915  18.233  0.00  0.00    +0.000 N 
ATOM     30  C   UNL     1       7.960   8.285  17.840  0.00  0.00    +0.000 C 
ENDBRANCH  24  25
ENDBRANCH  20  24
ENDBRANCH   5  20
TORSDOF 6
ENDMDL
MODEL 9
REMARK VINA RESULT:      -8.1      3.506      7.155
REMARK  Name = 
REMARK  8 active torsions:
REMARK  status: ('A' for Active; 'I' for Inactive)
REMARK    1  A    between atoms: C_1  and  C_2
REMARK    2  A    between atoms: C_2  and  C_4
REMARK    3  A    between atoms: C_8  and  C_9
REMARK    4  A    between atoms: N_11  and  C_12
REMARK    5  A    between atoms: C_16  and  C_17
REMARK    6  A    between atoms: C_17  and  C_18
REMARK    7  A    between atoms: C_18  and  C_19
REMARK    8  A    between atoms: N_23  and  C_24
REMARK                            x       y       z     vdW  Elec       q    Type
REMARK                         _______ _______ _______ _____ _____    ______ ____
ROOT
ATOM      1  C   UNL     1       6.351   6.882  17.067  0.00  0.00    +0.000 A 
ATOM      2  C   UNL     1       6.840   5.938  16.167  0.00  0.00    +0.000 A 
ATOM      3  C   UNL     1       6.126   4.772  15.911  0.00  0.00    +0.000 A 
ATOM      4  C   UNL     1       4.928   4.536  16.575  0.00  0.00    +0.000 A 
ATOM      5  C   UNL     1       4.405   5.440  17.523  0.00  0.00    +0.000 A 
ATOM      6  C   UNL     1       5.144   6.624  17.737  0.00  0.00    +0.000 A 
ENDROOT
BRANCH   1   9
ATOM      7  C   UNL     1       8.062   8.267  18.246  0.00  0.00    +0.000 C 
ATOM      8  O   UNL     1       8.602   7.412  18.936  0.00  0.00    +0.000 OA
ATOM      9  N   UNL     1       7.019   8.090  17.353  0.00  0.00    +0.000 N 
ATOM     10  H   UNL     1       6.768   8.916  16.815  0.00  0.00    +0.000 HD
BRANCH   7  15
ATOM     11  C   UNL     1      10.079  11.318  19.205  0.00  0.00    +0.000 A 
ATOM     12  C   UNL     1       9.477  12.246  18.350  0.00  0.00    +0.000 A 
ATOM     13  C   UNL     1       8.452  11.833  17.510  0.00  0.00    +0.000 A 
ATOM     14  N   UNL     1       7.988  10.566  17.455  0.00  0.00    +0.000 NA
ATOM     15  C   UNL     1       8.572   9.678  18.303  0.00  0.00    +0.000 A 
ATOM     16  C   UNL     1       9.601  10.003  19.188  0.00  0.00    +0.000 A 
BRANCH  11  18
ATOM     17  C   UNL     1      12.185  12.697  19.488  0.00  0.00    +0.000 C 
ATOM     18  C   UNL     1      11.189  11.747  20.139  0.00  0.00    +0.000 C 
ATOM     19  F   UNL     1      10.706  12.380  21.252  0.00  0.00    +0.000 F 
ENDBRANCH  11  18
ENDBRANCH   7  15
ENDBRANCH   1   9
BRANCH   5  20
ATOM     20  C   UNL     1       3.062   5.091  18.341  0.00  0.00    +0.000 C 
ATOM     21  C   UNL     1       2.998   3.592  18.839  0.00  0.00    +0.000 C 
ATOM     22  C   UNL     1       1.497   3.586  18.538  0.00  0.00    +0.000 C 
ATOM     23  C   UNL     1       1.753   4.737  17.543  0.00  0.00    +0.000 C 
BRANCH  20  24
ATOM     24  C   UNL     1       2.878   6.123  19.485  0.00  0.00    +0.000 C 
BRANCH  24  25
ATOM     25  C   UNL     1       2.278   7.427  19.055  0.00  0.00    +0.000 A 
ATOM     26  N   UNL     1       2.279   7.916  17.828  0.00  0.00    +0.000 NA
ATOM     27  N   UNL     1       1.595   9.115  17.836  0.00  0.00    +0.000 NA
ATOM     28  C   UNL     1       1.184   9.326  19.061  0.00  0.00    +0.000 A 
ATOM     29  N   UNL     1       1.592   8.304  19.864  0.00  0.00    +0.000 N 
ATOM     30  C   UNL     1       1.319   8.201  21.271  0.00  0.00    +0.000 C 
ENDBRANCH  24  25
ENDBRANCH  20  24
ENDBRANCH   5  20
TORSDOF 6
ENDMDL
