MODEL 1
REMARK VINA RESULT:      -7.8      0.000      0.000
REMARK  Name = 
REMARK  4 active torsions:
REMARK  status: ('A' for Active; 'I' for Inactive)
REMARK    1  A    between atoms: C_2  and  C_16
REMARK    2  A    between atoms: N_3  and  C_4
REMARK    3  A    between atoms: C_10  and  N_11
REMARK    4  A    between atoms: N_19  and  C_20
REMARK                            x       y       z     vdW  Elec       q    Type
REMARK                         _______ _______ _______ _____ _____    ______ ____
ROOT
ATOM      1  O   UNL     1       1.896   7.870  17.558  0.00  0.00    +0.000 OA
ATOM      2  C   UNL     1       2.251   7.644  18.714  0.00  0.00    +0.000 C 
ATOM      3  N   UNL     1       3.176   6.672  19.067  0.00  0.00    +0.000 N 
ATOM      4  H   UNL     1       2.999   6.257  19.984  0.00  0.00    +0.000 HD
ENDROOT
BRANCH   3   5
ATOM      5  C   UNL     1       3.786   5.843  18.087  0.00  0.00    +0.000 A 
ATOM      6  C   UNL     1       4.761   6.387  17.227  0.00  0.00    +0.000 A 
ATOM      7  F   UNL     1       5.187   7.649  17.390  0.00  0.00    +0.000 F 
ATOM      8  C   UNL     1       5.362   5.632  16.225  0.00  0.00    +0.000 A 
ATOM      9  C   UNL     1       5.010   4.299  16.066  0.00  0.00    +0.000 A 
ATOM     10  C   UNL     1       4.065   3.724  16.920  0.00  0.00    +0.000 A 
ATOM     11  C   UNL     1       3.445   4.479  17.940  0.00  0.00    +0.000 A 
BRANCH  11  12
ATOM     12  N   UNL     1       2.434   3.863  18.740  0.00  0.00    +0.000 N 
ATOM     13  C   UNL     1       1.379   3.075  18.318  0.00  0.00    +0.000 A 
ATOM     14  C   UNL     1       0.626   2.766  19.425  0.00  0.00    +0.000 A 
ATOM     15  C   UNL     1       1.297   3.383  20.486  0.00  0.00    +0.000 A 
ATOM     16  N   UNL     1       2.395   4.026  20.092  0.00  0.00    +0.000 NA
ENDBRANCH  11  12
ENDBRANCH   3   5
BRANCH   2  17
ATOM     17  C   UNL     1       1.594   8.336  19.840  0.00  0.00    +0.000 A 
ATOM     18  C   UNL     1       1.664   7.893  21.183  0.00  0.00    +0.000 A 
ATOM     19  C   UNL     1       0.908   8.778  21.900  0.00  0.00    +0.000 A 
ATOM     20  N   UNL     1       0.392   9.691  21.008  0.00  0.00    +0.000 N 
ATOM     21  N   UNL     1       0.852   9.458  19.740  0.00  0.00    +0.000 NA
BRANCH  20  22
ATOM     22  C   UNL     1      -0.498  10.768  21.313  0.00  0.00    +0.000 A 
ATOM     23  C   UNL     1      -1.051  11.553  20.285  0.00  0.00    +0.000 A 
ATOM     24  C   UNL     1      -1.935  12.594  20.584  0.00  0.00    +0.000 A 
ATOM     25  C   UNL     1      -2.269  12.864  21.907  0.00  0.00    +0.000 A 
ATOM     26  C   UNL     1      -1.714  12.099  22.935  0.00  0.00    +0.000 A 
ATOM     27  C   UNL     1      -0.830  11.053  22.640  0.00  0.00    +0.000 A 
ENDBRANCH  20  22
ENDBRANCH   2  17
TORSDOF 4
ENDMDL
MODEL 2
REMARK VINA RESULT:      -7.7      1.362      1.880
REMARK  Name = 
REMARK  4 active torsions:
REMARK  status: ('A' for Active; 'I' for Inactive)
REMARK    1  A    between atoms: C_2  and  C_16
REMARK    2  A    between atoms: N_3  and  C_4
REMARK    3  A    between atoms: C_10  and  N_11
REMARK    4  A    between atoms: N_19  and  C_20
REMARK                            x       y       z     vdW  Elec       q    Type
REMARK                         _______ _______ _______ _____ _____    ______ ____
ROOT
ATOM      1  O   UNL     1       3.902   6.395  19.534  0.00  0.00    +0.000 OA
ATOM      2  C   UNL     1       3.141   6.803  18.658  0.00  0.00    +0.000 C 
ATOM      3  N   UNL     1       3.175   6.376  17.339  0.00  0.00    +0.000 N 
ATOM      4  H   UNL     1       2.897   7.099  16.671  0.00  0.00    +0.000 HD
ENDROOT
BRANCH   3   5
ATOM      5  C   UNL     1       4.125   5.416  16.898  0.00  0.00    +0.000 A 
ATOM      6  C   UNL     1       5.197   5.825  16.080  0.00  0.00    +0.000 A 
ATOM      7  F   UNL     1       5.383   7.124  15.797  0.00  0.00    +0.000 F 
ATOM      8  C   UNL     1       6.133   4.921  15.588  0.00  0.00    +0.000 A 
ATOM      9  C   UNL     1       6.028   3.577  15.916  0.00  0.00    +0.000 A 
ATOM     10  C   UNL     1       4.990   3.144  16.745  0.00  0.00    +0.000 A 
ATOM     11  C   UNL     1       4.031   4.050  17.251  0.00  0.00    +0.000 A 
BRANCH  11  12
ATOM     12  N   UNL     1       2.950   3.546  18.037  0.00  0.00    +0.000 N 
ATOM     13  C   UNL     1       3.013   2.930  19.273  0.00  0.00    +0.000 A 
ATOM     14  C   UNL     1       1.737   2.549  19.611  0.00  0.00    +0.000 A 
ATOM     15  C   UNL     1       0.948   2.986  18.541  0.00  0.00    +0.000 A 
ATOM     16  N   UNL     1       1.660   3.605  17.600  0.00  0.00    +0.000 NA
ENDBRANCH  11  12
ENDBRANCH   3   5
BRANCH   2  17
ATOM     17  C   UNL     1       2.198   7.902  18.947  0.00  0.00    +0.000 A 
ATOM     18  C   UNL     1       1.799   8.867  17.992  0.00  0.00    +0.000 A 
ATOM     19  C   UNL     1       0.957   9.715  18.656  0.00  0.00    +0.000 A 
ATOM     20  N   UNL     1       0.886   9.279  19.961  0.00  0.00    +0.000 N 
ATOM     21  N   UNL     1       1.608   8.130  20.139  0.00  0.00    +0.000 NA
BRANCH  20  22
ATOM     22  C   UNL     1       0.158   9.898  21.025  0.00  0.00    +0.000 A 
ATOM     23  C   UNL     1      -0.447  11.155  20.842  0.00  0.00    +0.000 A 
ATOM     24  C   UNL     1      -1.172  11.751  21.877  0.00  0.00    +0.000 A 
ATOM     25  C   UNL     1      -1.295  11.103  23.103  0.00  0.00    +0.000 A 
ATOM     26  C   UNL     1      -0.685   9.862  23.298  0.00  0.00    +0.000 A 
ATOM     27  C   UNL     1       0.040   9.259  22.263  0.00  0.00    +0.000 A 
ENDBRANCH  20  22
ENDBRANCH   2  17
TORSDOF 4
ENDMDL
MODEL 3
REMARK VINA RESULT:      -7.7      0.862      1.344
REMARK  Name = 
REMARK  4 active torsions:
REMARK  status: ('A' for Active; 'I' for Inactive)
REMARK    1  A    between atoms: C_2  and  C_16
REMARK    2  A    between atoms: N_3  and  C_4
REMARK    3  A    between atoms: C_10  and  N_11
REMARK    4  A    between atoms: N_19  and  C_20
REMARK                            x       y       z     vdW  Elec       q    Type
REMARK                         _______ _______ _______ _____ _____    ______ ____
ROOT
ATOM      1  O   UNL     1       2.474   7.810  17.263  0.00  0.00    +0.000 OA
ATOM      2  C   UNL     1       2.694   7.414  18.407  0.00  0.00    +0.000 C 
ATOM      3  N   UNL     1       3.566   6.381  18.718  0.00  0.00    +0.000 N 
ATOM      4  H   UNL     1       3.283   5.845  19.541  0.00  0.00    +0.000 HD
ENDROOT
BRANCH   3   5
ATOM      5  C   UNL     1       4.278   5.685  17.703  0.00  0.00    +0.000 A 
ATOM      6  C   UNL     1       5.306   6.344  17.001  0.00  0.00    +0.000 A 
ATOM      7  F   UNL     1       5.684   7.584  17.347  0.00  0.00    +0.000 F 
ATOM      8  C   UNL     1       6.008   5.723  15.973  0.00  0.00    +0.000 A 
ATOM      9  C   UNL     1       5.706   4.413  15.628  0.00  0.00    +0.000 A 
ATOM     10  C   UNL     1       4.708   3.725  16.323  0.00  0.00    +0.000 A 
ATOM     11  C   UNL     1       3.985   4.343  17.368  0.00  0.00    +0.000 A 
BRANCH  11  12
ATOM     12  N   UNL     1       2.927   3.620  17.999  0.00  0.00    +0.000 N 
ATOM     13  C   UNL     1       3.000   2.403  18.651  0.00  0.00    +0.000 A 
ATOM     14  C   UNL     1       1.726   2.062  19.035  0.00  0.00    +0.000 A 
ATOM     15  C   UNL     1       0.934   3.131  18.600  0.00  0.00    +0.000 A 
ATOM     16  N   UNL     1       1.645   4.082  17.997  0.00  0.00    +0.000 NA
ENDBRANCH  11  12
ENDBRANCH   3   5
BRANCH   2  17
ATOM     17  C   UNL     1       1.918   7.955  19.541  0.00  0.00    +0.000 A 
ATOM     18  C   UNL     1       1.767   7.286  20.779  0.00  0.00    +0.000 A 
ATOM     19  C   UNL     1       0.964   8.094  21.536  0.00  0.00    +0.000 A 
ATOM     20  N   UNL     1       0.635   9.184  20.761  0.00  0.00    +0.000 N 
ATOM     21  N   UNL     1       1.262   9.133  19.545  0.00  0.00    +0.000 NA
BRANCH  20  22
ATOM     22  C   UNL     1      -0.230  10.260  21.132  0.00  0.00    +0.000 A 
ATOM     23  C   UNL     1      -0.484  10.540  22.487  0.00  0.00    +0.000 A 
ATOM     24  C   UNL     1      -1.315  11.604  22.848  0.00  0.00    +0.000 A 
ATOM     25  C   UNL     1      -1.905  12.392  21.864  0.00  0.00    +0.000 A 
ATOM     26  C   UNL     1      -1.669  12.112  20.516  0.00  0.00    +0.000 A 
ATOM     27  C   UNL     1      -0.834  11.050  20.149  0.00  0.00    +0.000 A 
ENDBRANCH  20  22
ENDBRANCH   2  17
TORSDOF 4
ENDMDL
MODEL 4
REMARK VINA RESULT:      -7.7      2.209      3.700
REMARK  Name = 
REMARK  4 active torsions:
REMARK  status: ('A' for Active; 'I' for Inactive)
REMARK    1  A    between atoms: C_2  and  C_16
REMARK    2  A    between atoms: N_3  and  C_4
REMARK    3  A    between atoms: C_10  and  N_11
REMARK    4  A    between atoms: N_19  and  C_20
REMARK                            x       y       z     vdW  Elec       q    Type
REMARK                         _______ _______ _______ _____ _____    ______ ____
ROOT
ATOM      1  O   UNL     1       1.856   6.236  17.827  0.00  0.00    +0.000 OA
ATOM      2  C   UNL     1       2.283   6.912  18.762  0.00  0.00    +0.000 C 
ATOM      3  N   UNL     1       3.073   6.411  19.785  0.00  0.00    +0.000 N 
ATOM      4  H   UNL     1       2.924   6.881  20.681  0.00  0.00    +0.000 HD
ENDROOT
BRANCH   3   5
ATOM      5  C   UNL     1       3.447   5.041  19.826  0.00  0.00    +0.000 A 
ATOM      6  C   UNL     1       2.613   4.113  20.480  0.00  0.00    +0.000 A 
ATOM      7  F   UNL     1       1.425   4.493  20.976  0.00  0.00    +0.000 F 
ATOM      8  C   UNL     1       2.949   2.767  20.584  0.00  0.00    +0.000 A 
ATOM      9  C   UNL     1       4.132   2.309  20.020  0.00  0.00    +0.000 A 
ATOM     10  C   UNL     1       4.968   3.201  19.343  0.00  0.00    +0.000 A 
ATOM     11  C   UNL     1       4.641   4.570  19.232  0.00  0.00    +0.000 A 
BRANCH  11  12
ATOM     12  N   UNL     1       5.564   5.453  18.591  0.00  0.00    +0.000 N 
ATOM     13  C   UNL     1       6.867   5.734  18.959  0.00  0.00    +0.000 A 
ATOM     14  C   UNL     1       7.343   6.691  18.095  0.00  0.00    +0.000 A 
ATOM     15  C   UNL     1       6.280   6.926  17.216  0.00  0.00    +0.000 A 
ATOM     16  N   UNL     1       5.215   6.174  17.488  0.00  0.00    +0.000 NA
ENDBRANCH  11  12
ENDBRANCH   3   5
BRANCH   2  17
ATOM     17  C   UNL     1       1.856   8.317  18.917  0.00  0.00    +0.000 A 
ATOM     18  C   UNL     1       2.089   9.320  17.945  0.00  0.00    +0.000 A 
ATOM     19  C   UNL     1       1.574  10.470  18.476  0.00  0.00    +0.000 A 
ATOM     20  N   UNL     1       1.081  10.159  19.724  0.00  0.00    +0.000 N 
ATOM     21  N   UNL     1       1.203   8.821  19.984  0.00  0.00    +0.000 NA
BRANCH  20  22
ATOM     22  C   UNL     1       0.497  11.070  20.658  0.00  0.00    +0.000 A 
ATOM     23  C   UNL     1       0.693  12.457  20.524  0.00  0.00    +0.000 A 
ATOM     24  C   UNL     1       0.106  13.347  21.427  0.00  0.00    +0.000 A 
ATOM     25  C   UNL     1      -0.673  12.864  22.474  0.00  0.00    +0.000 A 
ATOM     26  C   UNL     1      -0.860  11.488  22.624  0.00  0.00    +0.000 A 
ATOM     27  C   UNL     1      -0.278  10.592  21.719  0.00  0.00    +0.000 A 
ENDBRANCH  20  22
ENDBRANCH   2  17
TORSDOF 4
ENDMDL
MODEL 5
REMARK VINA RESULT:      -7.6      1.910      2.106
REMARK  Name = 
REMARK  4 active torsions:
REMARK  status: ('A' for Active; 'I' for Inactive)
REMARK    1  A    between atoms: C_2  and  C_16
REMARK    2  A    between atoms: N_3  and  C_4
REMARK    3  A    between atoms: C_10  and  N_11
REMARK    4  A    between atoms: N_19  and  C_20
REMARK                            x       y       z     vdW  Elec       q    Type
REMARK                         _______ _______ _______ _____ _____    ______ ____
ROOT
ATOM      1  O   UNL     1       3.910   5.872  19.848  0.00  0.00    +0.000 OA
ATOM      2  C   UNL     1       3.138   6.442  19.077  0.00  0.00    +0.000 C 
ATOM      3  N   UNL     1       3.131   6.251  17.704  0.00  0.00    +0.000 N 
ATOM      4  H   UNL     1       2.855   7.084  17.179  0.00  0.00    +0.000 HD
ENDROOT
BRANCH   3   5
ATOM      5  C   UNL     1       4.047   5.363  17.076  0.00  0.00    +0.000 A 
ATOM      6  C   UNL     1       5.080   5.885  16.273  0.00  0.00    +0.000 A 
ATOM      7  F   UNL     1       5.265   7.211  16.176  0.00  0.00    +0.000 F 
ATOM      8  C   UNL     1       5.979   5.061  15.605  0.00  0.00    +0.000 A 
ATOM      9  C   UNL     1       5.876   3.684  15.736  0.00  0.00    +0.000 A 
ATOM     10  C   UNL     1       4.877   3.136  16.545  0.00  0.00    +0.000 A 
ATOM     11  C   UNL     1       3.955   3.960  17.228  0.00  0.00    +0.000 A 
BRANCH  11  12
ATOM     12  N   UNL     1       2.910   3.349  17.987  0.00  0.00    +0.000 N 
ATOM     13  C   UNL     1       3.032   2.516  19.083  0.00  0.00    +0.000 A 
ATOM     14  C   UNL     1       1.767   2.112  19.438  0.00  0.00    +0.000 A 
ATOM     15  C   UNL     1       0.926   2.758  18.524  0.00  0.00    +0.000 A 
ATOM     16  N   UNL     1       1.598   3.520  17.662  0.00  0.00    +0.000 NA
ENDBRANCH  11  12
ENDBRANCH   3   5
BRANCH   2  17
ATOM     17  C   UNL     1       2.230   7.492  19.579  0.00  0.00    +0.000 A 
ATOM     18  C   UNL     1       1.623   7.461  20.857  0.00  0.00    +0.000 A 
ATOM     19  C   UNL     1       0.844   8.583  20.921  0.00  0.00    +0.000 A 
ATOM     20  N   UNL     1       0.969   9.235  19.714  0.00  0.00    +0.000 N 
ATOM     21  N   UNL     1       1.863   8.597  18.897  0.00  0.00    +0.000 NA
BRANCH  20  22
ATOM     22  C   UNL     1       0.289  10.429  19.320  0.00  0.00    +0.000 A 
ATOM     23  C   UNL     1       0.973  11.658  19.266  0.00  0.00    +0.000 A 
ATOM     24  C   UNL     1       0.311  12.821  18.863  0.00  0.00    +0.000 A 
ATOM     25  C   UNL     1      -1.036  12.771  18.518  0.00  0.00    +0.000 A 
ATOM     26  C   UNL     1      -1.726  11.559  18.582  0.00  0.00    +0.000 A 
ATOM     27  C   UNL     1      -1.067  10.390  18.981  0.00  0.00    +0.000 A 
ENDBRANCH  20  22
ENDBRANCH   2  17
TORSDOF 4
ENDMDL
MODEL 6
REMARK VINA RESULT:      -7.5      2.152      3.656
REMARK  Name = 
REMARK  4 active torsions:
REMARK  status: ('A' for Active; 'I' for Inactive)
REMARK    1  A    between atoms: C_2  and  C_16
REMARK    2  A    between atoms: N_3  and  C_4
REMARK    3  A    between atoms: C_10  and  N_11
REMARK    4  A    between atoms: N_19  and  C_20
REMARK                            x       y       z     vdW  Elec       q    Type
REMARK                         _______ _______ _______ _____ _____    ______ ____
ROOT
ATOM      1  O   UNL     1       2.882   6.183  20.301  0.00  0.00    +0.000 OA
ATOM      2  C   UNL     1       2.335   6.508  19.248  0.00  0.00    +0.000 C 
ATOM      3  N   UNL     1       2.088   5.635  18.199  0.00  0.00    +0.000 N 
ATOM      4  H   UNL     1       2.126   6.083  17.281  0.00  0.00    +0.000 HD
ENDROOT
BRANCH   3   5
ATOM      5  C   UNL     1       2.470   4.268  18.271  0.00  0.00    +0.000 A 
ATOM      6  C   UNL     1       1.701   3.372  19.038  0.00  0.00    +0.000 A 
ATOM      7  F   UNL     1       0.559   3.774  19.618  0.00  0.00    +0.000 F 
ATOM      8  C   UNL     1       2.051   2.032  19.174  0.00  0.00    +0.000 A 
ATOM      9  C   UNL     1       3.181   1.549  18.530  0.00  0.00    +0.000 A 
ATOM     10  C   UNL     1       3.951   2.408  17.742  0.00  0.00    +0.000 A 
ATOM     11  C   UNL     1       3.609   3.771  17.596  0.00  0.00    +0.000 A 
BRANCH  11  12
ATOM     12  N   UNL     1       4.468   4.622  16.836  0.00  0.00    +0.000 N 
ATOM     13  C   UNL     1       5.031   4.375  15.598  0.00  0.00    +0.000 A 
ATOM     14  C   UNL     1       5.841   5.442  15.291  0.00  0.00    +0.000 A 
ATOM     15  C   UNL     1       5.703   6.308  16.382  0.00  0.00    +0.000 A 
ATOM     16  N   UNL     1       4.865   5.839  17.305  0.00  0.00    +0.000 NA
ENDBRANCH  11  12
ENDBRANCH   3   5
BRANCH   2  17
ATOM     17  C   UNL     1       2.013   7.925  18.986  0.00  0.00    +0.000 A 
ATOM     18  C   UNL     1       2.328   8.591  17.778  0.00  0.00    +0.000 A 
ATOM     19  C   UNL     1       1.897   9.878  17.946  0.00  0.00    +0.000 A 
ATOM     20  N   UNL     1       1.373   9.970  19.216  0.00  0.00    +0.000 N 
ATOM     21  N   UNL     1       1.392   8.756  19.849  0.00  0.00    +0.000 NA
BRANCH  20  22
ATOM     22  C   UNL     1       0.851  11.148  19.837  0.00  0.00    +0.000 A 
ATOM     23  C   UNL     1       1.139  12.421  19.313  0.00  0.00    +0.000 A 
ATOM     24  C   UNL     1       0.614  13.570  19.910  0.00  0.00    +0.000 A 
ATOM     25  C   UNL     1      -0.196  13.460  21.037  0.00  0.00    +0.000 A 
ATOM     26  C   UNL     1      -0.475  12.201  21.573  0.00  0.00    +0.000 A 
ATOM     27  C   UNL     1       0.046  11.047  20.976  0.00  0.00    +0.000 A 
ENDBRANCH  20  22
ENDBRANCH   2  17
TORSDOF 4
ENDMDL
MODEL 7
REMARK VINA RESULT:      -7.4      2.728      8.087
REMARK  Name = 
REMARK  4 active torsions:
REMARK  status: ('A' for Active; 'I' for Inactive)
REMARK    1  A    between atoms: C_2  and  C_16
REMARK    2  A    between atoms: N_3  and  C_4
REMARK    3  A    between atoms: C_10  and  N_11
REMARK    4  A    between atoms: N_19  and  C_20
REMARK                            x       y       z     vdW  Elec       q    Type
REMARK                         _______ _______ _______ _____ _____    ______ ____
ROOT
ATOM      1  O   UNL     1       1.491  11.027  19.046  0.00  0.00    +0.000 OA
ATOM      2  C   UNL     1       0.969   9.944  19.310  0.00  0.00    +0.000 C 
ATOM      3  N   UNL     1      -0.257   9.807  19.943  0.00  0.00    +0.000 N 
ATOM      4  H   UNL     1      -0.320   8.971  20.530  0.00  0.00    +0.000 HD
ENDROOT
BRANCH   3   5
ATOM      5  C   UNL     1      -1.010  10.942  20.349  0.00  0.00    +0.000 A 
ATOM      6  C   UNL     1      -0.814  11.481  21.636  0.00  0.00    +0.000 A 
ATOM      7  F   UNL     1       0.143  10.996  22.441  0.00  0.00    +0.000 F 
ATOM      8  C   UNL     1      -1.552  12.567  22.098  0.00  0.00    +0.000 A 
ATOM      9  C   UNL     1      -2.501  13.153  21.273  0.00  0.00    +0.000 A 
ATOM     10  C   UNL     1      -2.701  12.656  19.982  0.00  0.00    +0.000 A 
ATOM     11  C   UNL     1      -1.961  11.554  19.500  0.00  0.00    +0.000 A 
BRANCH  11  12
ATOM     12  N   UNL     1      -2.253  11.041  18.199  0.00  0.00    +0.000 N 
ATOM     13  C   UNL     1      -2.165  11.699  16.986  0.00  0.00    +0.000 A 
ATOM     14  C   UNL     1      -2.612  10.837  16.014  0.00  0.00    +0.000 A 
ATOM     15  C   UNL     1      -2.936   9.666  16.709  0.00  0.00    +0.000 A 
ATOM     16  N   UNL     1      -2.705   9.768  18.018  0.00  0.00    +0.000 NA
ENDBRANCH  11  12
ENDBRANCH   3   5
BRANCH   2  17
ATOM     17  C   UNL     1       1.706   8.688  19.069  0.00  0.00    +0.000 A 
ATOM     18  C   UNL     1       2.481   8.441  17.911  0.00  0.00    +0.000 A 
ATOM     19  C   UNL     1       2.965   7.171  18.058  0.00  0.00    +0.000 A 
ATOM     20  N   UNL     1       2.471   6.681  19.246  0.00  0.00    +0.000 N 
ATOM     21  N   UNL     1       1.734   7.628  19.904  0.00  0.00    +0.000 NA
BRANCH  20  22
ATOM     22  C   UNL     1       2.679   5.369  19.776  0.00  0.00    +0.000 A 
ATOM     23  C   UNL     1       1.880   4.887  20.829  0.00  0.00    +0.000 A 
ATOM     24  C   UNL     1       2.073   3.598  21.334  0.00  0.00    +0.000 A 
ATOM     25  C   UNL     1       3.068   2.784  20.801  0.00  0.00    +0.000 A 
ATOM     26  C   UNL     1       3.876   3.260  19.766  0.00  0.00    +0.000 A 
ATOM     27  C   UNL     1       3.684   4.549  19.254  0.00  0.00    +0.000 A 
ENDBRANCH  20  22
ENDBRANCH   2  17
TORSDOF 4
ENDMDL
MODEL 8
REMARK VINA RESULT:      -7.4      2.184      3.604
REMARK  Name = 
REMARK  4 active torsions:
REMARK  status: ('A' for Active; 'I' for Inactive)
REMARK    1  A    between atoms: C_2  and  C_16
REMARK    2  A    between atoms: N_3  and  C_4
REMARK    3  A    between atoms: C_10  and  N_11
REMARK    4  A    between atoms: N_19  and  C_20
REMARK                            x       y       z     vdW  Elec       q    Type
REMARK                         _______ _______ _______ _____ _____    ______ ____
ROOT
ATOM      1  O   UNL     1       2.457   6.080  20.262  0.00  0.00    +0.000 OA
ATOM      2  C   UNL     1       2.241   6.595  19.166  0.00  0.00    +0.000 C 
ATOM      3  N   UNL     1       2.392   5.936  17.955  0.00  0.00    +0.000 N 
ATOM      4  H   UNL     1       2.682   6.550  17.191  0.00  0.00    +0.000 HD
ENDROOT
BRANCH   3   5
ATOM      5  C   UNL     1       2.827   4.583  17.899  0.00  0.00    +0.000 A 
ATOM      6  C   UNL     1       1.883   3.545  18.017  0.00  0.00    +0.000 A 
ATOM      7  F   UNL     1       0.571   3.819  18.080  0.00  0.00    +0.000 F 
ATOM      8  C   UNL     1       2.258   2.205  18.008  0.00  0.00    +0.000 A 
ATOM      9  C   UNL     1       3.597   1.868  17.867  0.00  0.00    +0.000 A 
ATOM     10  C   UNL     1       4.554   2.875  17.724  0.00  0.00    +0.000 A 
ATOM     11  C   UNL     1       4.189   4.240  17.733  0.00  0.00    +0.000 A 
BRANCH  11  12
ATOM     12  N   UNL     1       5.214   5.232  17.653  0.00  0.00    +0.000 N 
ATOM     13  C   UNL     1       6.436   5.244  18.299  0.00  0.00    +0.000 A 
ATOM     14  C   UNL     1       7.060   6.426  17.980  0.00  0.00    +0.000 A 
ATOM     15  C   UNL     1       6.165   7.071  17.119  0.00  0.00    +0.000 A 
ATOM     16  N   UNL     1       5.064   6.355  16.897  0.00  0.00    +0.000 NA
ENDBRANCH  11  12
ENDBRANCH   3   5
BRANCH   2  17
ATOM     17  C   UNL     1       1.918   8.032  19.072  0.00  0.00    +0.000 A 
ATOM     18  C   UNL     1       2.162   8.818  17.920  0.00  0.00    +0.000 A 
ATOM     19  C   UNL     1       1.757  10.083  18.247  0.00  0.00    +0.000 A 
ATOM     20  N   UNL     1       1.316  10.045  19.551  0.00  0.00    +0.000 N 
ATOM     21  N   UNL     1       1.364   8.773  20.053  0.00  0.00    +0.000 NA
BRANCH  20  22
ATOM     22  C   UNL     1       0.849  11.155  20.322  0.00  0.00    +0.000 A 
ATOM     23  C   UNL     1       1.343  12.451  20.085  0.00  0.00    +0.000 A 
ATOM     24  C   UNL     1       0.872  13.537  20.827  0.00  0.00    +0.000 A 
ATOM     25  C   UNL     1      -0.089  13.341  21.815  0.00  0.00    +0.000 A 
ATOM     26  C   UNL     1      -0.574  12.056  22.067  0.00  0.00    +0.000 A 
ATOM     27  C   UNL     1      -0.108  10.965  21.324  0.00  0.00    +0.000 A 
ENDBRANCH  20  22
ENDBRANCH   2  17
TORSDOF 4
ENDMDL
MODEL 9
REMARK VINA RESULT:      -7.3      3.538      8.655
REMARK  Name = 
REMARK  4 active torsions:
REMARK  status: ('A' for Active; 'I' for Inactive)
REMARK    1  A    between atoms: C_2  and  C_16
REMARK    2  A    between atoms: N_3  and  C_4
REMARK    3  A    between atoms: C_10  and  N_11
REMARK    4  A    between atoms: N_19  and  C_20
REMARK                            x       y       z     vdW  Elec       q    Type
REMARK                         _______ _______ _______ _____ _____    ______ ____
ROOT
ATOM      1  O   UNL     1       5.753   5.880  18.400  0.00  0.00    +0.000 OA
ATOM      2  C   UNL     1       5.081   5.707  17.384  0.00  0.00    +0.000 C 
ATOM      3  N   UNL     1       3.697   5.795  17.344  0.00  0.00    +0.000 N 
ATOM      4  H   UNL     1       3.270   5.168  16.658  0.00  0.00    +0.000 HD
ENDROOT
BRANCH   3   5
ATOM      5  C   UNL     1       2.942   6.090  18.511  0.00  0.00    +0.000 A 
ATOM      6  C   UNL     1       2.579   7.423  18.784  0.00  0.00    +0.000 A 
ATOM      7  F   UNL     1       2.854   8.400  17.905  0.00  0.00    +0.000 F 
ATOM      8  C   UNL     1       1.874   7.773  19.931  0.00  0.00    +0.000 A 
ATOM      9  C   UNL     1       1.499   6.789  20.834  0.00  0.00    +0.000 A 
ATOM     10  C   UNL     1       1.823   5.453  20.579  0.00  0.00    +0.000 A 
ATOM     11  C   UNL     1       2.540   5.083  19.420  0.00  0.00    +0.000 A 
BRANCH  11  12
ATOM     12  N   UNL     1       2.907   3.714  19.241  0.00  0.00    +0.000 N 
ATOM     13  C   UNL     1       3.656   2.917  20.086  0.00  0.00    +0.000 A 
ATOM     14  C   UNL     1       3.815   1.698  19.473  0.00  0.00    +0.000 A 
ATOM     15  C   UNL     1       3.117   1.822  18.266  0.00  0.00    +0.000 A 
ATOM     16  N   UNL     1       2.549   3.019  18.124  0.00  0.00    +0.000 NA
ENDBRANCH  11  12
ENDBRANCH   3   5
BRANCH   2  17
ATOM     17  C   UNL     1       5.727   5.259  16.135  0.00  0.00    +0.000 A 
ATOM     18  C   UNL     1       7.019   5.669  15.728  0.00  0.00    +0.000 A 
ATOM     19  C   UNL     1       7.232   5.064  14.520  0.00  0.00    +0.000 A 
ATOM     20  N   UNL     1       6.096   4.347  14.217  0.00  0.00    +0.000 N 
ATOM     21  N   UNL     1       5.180   4.418  15.232  0.00  0.00    +0.000 NA
BRANCH  20  22
ATOM     22  C   UNL     1       5.857   3.598  13.023  0.00  0.00    +0.000 A 
ATOM     23  C   UNL     1       6.890   2.851  12.427  0.00  0.00    +0.000 A 
ATOM     24  C   UNL     1       6.650   2.105  11.270  0.00  0.00    +0.000 A 
ATOM     25  C   UNL     1       5.383   2.103  10.693  0.00  0.00    +0.000 A 
ATOM     26  C   UNL     1       4.356   2.853  11.270  0.00  0.00    +0.000 A 
ATOM     27  C   UNL     1       4.590   3.599  12.431  0.00  0.00    +0.000 A 
ENDBRANCH  20  22
ENDBRANCH   2  17
TORSDOF 4
ENDMDL
