MODEL 1
REMARK VINA RESULT:      -8.4      0.000      0.000
REMARK  Name = 
REMARK  5 active torsions:
REMARK  status: ('A' for Active; 'I' for Inactive)
REMARK    1  A    between atoms: C_1  and  C_2
REMARK    2  A    between atoms: C_2  and  N_3
REMARK    3  A    between atoms: C_2  and  C_19
REMARK    4  A    between atoms: C_4  and  C_6
REMARK    5  A    between atoms: C_6  and  N_7
REMARK                            x       y       z     vdW  Elec       q    Type
REMARK                         _______ _______ _______ _____ _____    ______ ____
ROOT
ATOM      1  N   UNL     1       2.206   6.842  20.351  0.00  0.00    +0.000 N 
ATOM      2  C   UNL     1       1.233   7.638  20.927  0.00  0.00    +0.000 C 
ATOM      3  O   UNL     1       0.140   7.210  21.293  0.00  0.00    +0.000 OA
ATOM      4  H   UNL     1       3.127   7.237  20.190  0.00  0.00    +0.000 HD
ENDROOT
BRANCH   1   6
ATOM      5  C   UNL     1       2.237   4.545  21.269  0.00  0.00    +0.000 C 
ATOM      6  C   UNL     1       1.995   5.431  20.044  0.00  0.00    +0.000 C 
BRANCH   6   7
ATOM      7  C   UNL     1       2.856   4.989  18.870  0.00  0.00    +0.000 A 
ATOM      8  C   UNL     1       3.016   3.621  18.610  0.00  0.00    +0.000 A 
ATOM      9  C   UNL     1       3.856   3.179  17.584  0.00  0.00    +0.000 A 
ATOM     10  C   UNL     1       4.548   4.092  16.778  0.00  0.00    +0.000 A 
ATOM     11  C   UNL     1       5.396   3.660  15.745  0.00  0.00    +0.000 A 
ATOM     12  C   UNL     1       6.066   4.579  14.940  0.00  0.00    +0.000 A 
ATOM     13  C   UNL     1       5.909   5.945  15.166  0.00  0.00    +0.000 A 
ATOM     14  C   UNL     1       5.079   6.389  16.198  0.00  0.00    +0.000 A 
ATOM     15  C   UNL     1       4.386   5.476  17.012  0.00  0.00    +0.000 A 
ATOM     16  C   UNL     1       3.541   5.907  18.053  0.00  0.00    +0.000 A 
ENDBRANCH   6   7
ENDBRANCH   1   6
BRANCH   2  17
ATOM     17  C   UNL     1       1.627   9.109  21.122  0.00  0.00    +0.000 C 
BRANCH  17  18
ATOM     18  N   UNL     1       0.767  10.025  20.368  0.00  0.00    +0.000 N 
ATOM     19  C   UNL     1       0.985  10.083  19.001  0.00  0.00    +0.000 A 
ATOM     20  O   UNL     1       1.873   9.445  18.434  0.00  0.00    +0.000 OA
ATOM     21  N   UNL     1       0.165  10.896  18.277  0.00  0.00    +0.000 N 
ATOM     22  C   UNL     1      -0.828  11.702  18.759  0.00  0.00    +0.000 A 
ATOM     23  O   UNL     1      -1.492  12.424  18.023  0.00  0.00    +0.000 OA
ATOM     24  C   UNL     1      -1.053  11.647  20.211  0.00  0.00    +0.000 A 
ATOM     25  C   UNL     1      -2.075  12.431  20.770  0.00  0.00    +0.000 A 
ATOM     26  C   UNL     1      -2.316  12.375  22.137  0.00  0.00    +0.000 A 
ATOM     27  C   UNL     1      -1.536  11.543  22.936  0.00  0.00    +0.000 A 
ATOM     28  C   UNL     1      -0.509  10.770  22.375  0.00  0.00    +0.000 A 
ATOM     29  C   UNL     1      -0.252  10.804  20.997  0.00  0.00    +0.000 A 
ATOM     30  H   UNL     1       0.322  10.922  17.282  0.00  0.00    +0.000 HD
ENDBRANCH  17  18
ENDBRANCH   2  17
TORSDOF 4
ENDMDL
MODEL 2
REMARK VINA RESULT:      -8.3      3.472      7.462
REMARK  Name = 
REMARK  5 active torsions:
REMARK  status: ('A' for Active; 'I' for Inactive)
REMARK    1  A    between atoms: C_1  and  C_2
REMARK    2  A    between atoms: C_2  and  N_3
REMARK    3  A    between atoms: C_2  and  C_19
REMARK    4  A    between atoms: C_4  and  C_6
REMARK    5  A    between atoms: C_6  and  N_7
REMARK                            x       y       z     vdW  Elec       q    Type
REMARK                         _______ _______ _______ _____ _____    ______ ____
ROOT
ATOM      1  N   UNL     1       3.124   4.464  19.792  0.00  0.00    +0.000 N 
ATOM      2  C   UNL     1       3.823   3.297  20.035  0.00  0.00    +0.000 C 
ATOM      3  O   UNL     1       3.530   2.508  20.931  0.00  0.00    +0.000 OA
ATOM      4  H   UNL     1       3.345   5.001  18.959  0.00  0.00    +0.000 HD
ENDROOT
BRANCH   1   6
ATOM      5  C   UNL     1       0.751   4.092  20.384  0.00  0.00    +0.000 C 
ATOM      6  C   UNL     1       2.019   4.914  20.631  0.00  0.00    +0.000 C 
BRANCH   6   7
ATOM      7  C   UNL     1       1.753   6.400  20.441  0.00  0.00    +0.000 A 
ATOM      8  C   UNL     1       1.016   7.097  21.408  0.00  0.00    +0.000 A 
ATOM      9  C   UNL     1       0.694   8.446  21.231  0.00  0.00    +0.000 A 
ATOM     10  C   UNL     1       1.111   9.140  20.088  0.00  0.00    +0.000 A 
ATOM     11  C   UNL     1       0.792  10.495  19.898  0.00  0.00    +0.000 A 
ATOM     12  C   UNL     1       1.228  11.178  18.763  0.00  0.00    +0.000 A 
ATOM     13  C   UNL     1       1.977  10.512  17.797  0.00  0.00    +0.000 A 
ATOM     14  C   UNL     1       2.291   9.162  17.966  0.00  0.00    +0.000 A 
ATOM     15  C   UNL     1       1.871   8.460  19.109  0.00  0.00    +0.000 A 
ATOM     16  C   UNL     1       2.183   7.100  19.299  0.00  0.00    +0.000 A 
ENDBRANCH   6   7
ENDBRANCH   1   6
BRANCH   2  17
ATOM     17  C   UNL     1       4.987   3.022  19.072  0.00  0.00    +0.000 C 
BRANCH  17  18
ATOM     18  N   UNL     1       5.151   4.081  18.073  0.00  0.00    +0.000 N 
ATOM     19  C   UNL     1       4.269   4.055  17.003  0.00  0.00    +0.000 A 
ATOM     20  O   UNL     1       3.418   3.177  16.855  0.00  0.00    +0.000 OA
ATOM     21  N   UNL     1       4.378   5.058  16.087  0.00  0.00    +0.000 N 
ATOM     22  C   UNL     1       5.295   6.070  16.081  0.00  0.00    +0.000 A 
ATOM     23  O   UNL     1       5.329   6.910  15.187  0.00  0.00    +0.000 OA
ATOM     24  C   UNL     1       6.236   6.093  17.210  0.00  0.00    +0.000 A 
ATOM     25  C   UNL     1       7.190   7.120  17.280  0.00  0.00    +0.000 A 
ATOM     26  C   UNL     1       8.072   7.171  18.352  0.00  0.00    +0.000 A 
ATOM     27  C   UNL     1       8.001   6.195  19.342  0.00  0.00    +0.000 A 
ATOM     28  C   UNL     1       7.054   5.163  19.263  0.00  0.00    +0.000 A 
ATOM     29  C   UNL     1       6.148   5.096  18.195  0.00  0.00    +0.000 A 
ATOM     30  H   UNL     1       3.724   5.038  15.319  0.00  0.00    +0.000 HD
ENDBRANCH  17  18
ENDBRANCH   2  17
TORSDOF 4
ENDMDL
MODEL 3
REMARK VINA RESULT:      -8.3      1.538      2.467
REMARK  Name = 
REMARK  5 active torsions:
REMARK  status: ('A' for Active; 'I' for Inactive)
REMARK    1  A    between atoms: C_1  and  C_2
REMARK    2  A    between atoms: C_2  and  N_3
REMARK    3  A    between atoms: C_2  and  C_19
REMARK    4  A    between atoms: C_4  and  C_6
REMARK    5  A    between atoms: C_6  and  N_7
REMARK                            x       y       z     vdW  Elec       q    Type
REMARK                         _______ _______ _______ _____ _____    ______ ____
ROOT
ATOM      1  N   UNL     1       2.104   6.998  20.546  0.00  0.00    +0.000 N 
ATOM      2  C   UNL     1       1.085   7.775  21.064  0.00  0.00    +0.000 C 
ATOM      3  O   UNL     1      -0.055   7.356  21.253  0.00  0.00    +0.000 OA
ATOM      4  H   UNL     1       3.047   7.373  20.537  0.00  0.00    +0.000 HD
ENDROOT
BRANCH   1   6
ATOM      5  C   UNL     1       2.060   4.623  21.238  0.00  0.00    +0.000 C 
ATOM      6  C   UNL     1       1.901   5.626  20.092  0.00  0.00    +0.000 C 
BRANCH   6   7
ATOM      7  C   UNL     1       2.829   5.287  18.935  0.00  0.00    +0.000 A 
ATOM      8  C   UNL     1       2.505   4.222  18.082  0.00  0.00    +0.000 A 
ATOM      9  C   UNL     1       3.370   3.838  17.053  0.00  0.00    +0.000 A 
ATOM     10  C   UNL     1       4.576   4.517  16.838  0.00  0.00    +0.000 A 
ATOM     11  C   UNL     1       5.454   4.140  15.807  0.00  0.00    +0.000 A 
ATOM     12  C   UNL     1       6.644   4.834  15.594  0.00  0.00    +0.000 A 
ATOM     13  C   UNL     1       6.979   5.908  16.416  0.00  0.00    +0.000 A 
ATOM     14  C   UNL     1       6.122   6.286  17.452  0.00  0.00    +0.000 A 
ATOM     15  C   UNL     1       4.912   5.605  17.675  0.00  0.00    +0.000 A 
ATOM     16  C   UNL     1       4.034   5.976  18.712  0.00  0.00    +0.000 A 
ENDBRANCH   6   7
ENDBRANCH   1   6
BRANCH   2  17
ATOM     17  C   UNL     1       1.485   9.210  21.436  0.00  0.00    +0.000 C 
BRANCH  17  18
ATOM     18  N   UNL     1       0.326  10.084  21.626  0.00  0.00    +0.000 N 
ATOM     19  C   UNL     1      -0.132  10.219  22.928  0.00  0.00    +0.000 A 
ATOM     20  O   UNL     1       0.362   9.615  23.881  0.00  0.00    +0.000 OA
ATOM     21  N   UNL     1      -1.184  11.063  23.130  0.00  0.00    +0.000 N 
ATOM     22  C   UNL     1      -1.871  11.763  22.178  0.00  0.00    +0.000 A 
ATOM     23  O   UNL     1      -2.828  12.475  22.462  0.00  0.00    +0.000 OA
ATOM     24  C   UNL     1      -1.391  11.613  20.797  0.00  0.00    +0.000 A 
ATOM     25  C   UNL     1      -2.036  12.323  19.772  0.00  0.00    +0.000 A 
ATOM     26  C   UNL     1      -1.581  12.211  18.464  0.00  0.00    +0.000 A 
ATOM     27  C   UNL     1      -0.492  11.389  18.187  0.00  0.00    +0.000 A 
ATOM     28  C   UNL     1       0.142  10.671  19.212  0.00  0.00    +0.000 A 
ATOM     29  C   UNL     1      -0.294  10.775  20.541  0.00  0.00    +0.000 A 
ATOM     30  H   UNL     1      -1.502  11.165  24.081  0.00  0.00    +0.000 HD
ENDBRANCH  17  18
ENDBRANCH   2  17
TORSDOF 4
ENDMDL
MODEL 4
REMARK VINA RESULT:      -8.2      3.273      7.758
REMARK  Name = 
REMARK  5 active torsions:
REMARK  status: ('A' for Active; 'I' for Inactive)
REMARK    1  A    between atoms: C_1  and  C_2
REMARK    2  A    between atoms: C_2  and  N_3
REMARK    3  A    between atoms: C_2  and  C_19
REMARK    4  A    between atoms: C_4  and  C_6
REMARK    5  A    between atoms: C_6  and  N_7
REMARK                            x       y       z     vdW  Elec       q    Type
REMARK                         _______ _______ _______ _____ _____    ______ ____
ROOT
ATOM      1  N   UNL     1       3.133   4.671  19.790  0.00  0.00    +0.000 N 
ATOM      2  C   UNL     1       3.716   3.458  20.101  0.00  0.00    +0.000 C 
ATOM      3  O   UNL     1       3.323   2.733  21.014  0.00  0.00    +0.000 OA
ATOM      4  H   UNL     1       3.430   5.153  18.947  0.00  0.00    +0.000 HD
ENDROOT
BRANCH   1   6
ATOM      5  C   UNL     1       0.777   4.398  20.492  0.00  0.00    +0.000 C 
ATOM      6  C   UNL     1       2.046   5.251  20.571  0.00  0.00    +0.000 C 
BRANCH   6   7
ATOM      7  C   UNL     1       1.769   6.686  20.148  0.00  0.00    +0.000 A 
ATOM      8  C   UNL     1       2.187   7.124  18.884  0.00  0.00    +0.000 A 
ATOM      9  C   UNL     1       2.011   8.454  18.491  0.00  0.00    +0.000 A 
ATOM     10  C   UNL     1       1.399   9.381  19.345  0.00  0.00    +0.000 A 
ATOM     11  C   UNL     1       1.218  10.720  18.962  0.00  0.00    +0.000 A 
ATOM     12  C   UNL     1       0.594  11.629  19.815  0.00  0.00    +0.000 A 
ATOM     13  C   UNL     1       0.152  11.213  21.069  0.00  0.00    +0.000 A 
ATOM     14  C   UNL     1       0.337   9.887  21.469  0.00  0.00    +0.000 A 
ATOM     15  C   UNL     1       0.954   8.955  20.616  0.00  0.00    +0.000 A 
ATOM     16  C   UNL     1       1.144   7.613  21.001  0.00  0.00    +0.000 A 
ENDBRANCH   6   7
ENDBRANCH   1   6
BRANCH   2  17
ATOM     17  C   UNL     1       4.882   3.042  19.191  0.00  0.00    +0.000 C 
BRANCH  17  18
ATOM     18  N   UNL     1       5.133   4.011  18.123  0.00  0.00    +0.000 N 
ATOM     19  C   UNL     1       4.322   3.911  17.003  0.00  0.00    +0.000 A 
ATOM     20  O   UNL     1       3.464   3.038  16.870  0.00  0.00    +0.000 OA
ATOM     21  N   UNL     1       4.512   4.833  16.016  0.00  0.00    +0.000 N 
ATOM     22  C   UNL     1       5.450   5.827  15.989  0.00  0.00    +0.000 A 
ATOM     23  O   UNL     1       5.559   6.589  15.035  0.00  0.00    +0.000 OA
ATOM     24  C   UNL     1       6.315   5.927  17.173  0.00  0.00    +0.000 A 
ATOM     25  C   UNL     1       7.285   6.941  17.222  0.00  0.00    +0.000 A 
ATOM     26  C   UNL     1       8.096   7.066  18.343  0.00  0.00    +0.000 A 
ATOM     27  C   UNL     1       7.939   6.176  19.403  0.00  0.00    +0.000 A 
ATOM     28  C   UNL     1       6.977   5.157  19.345  0.00  0.00    +0.000 A 
ATOM     29  C   UNL     1       6.141   5.017  18.228  0.00  0.00    +0.000 A 
ATOM     30  H   UNL     1       3.910   4.761  15.211  0.00  0.00    +0.000 HD
ENDBRANCH  17  18
ENDBRANCH   2  17
TORSDOF 4
ENDMDL
MODEL 5
REMARK VINA RESULT:      -8.1      1.580      2.846
REMARK  Name = 
REMARK  5 active torsions:
REMARK  status: ('A' for Active; 'I' for Inactive)
REMARK    1  A    between atoms: C_1  and  C_2
REMARK    2  A    between atoms: C_2  and  N_3
REMARK    3  A    between atoms: C_2  and  C_19
REMARK    4  A    between atoms: C_4  and  C_6
REMARK    5  A    between atoms: C_6  and  N_7
REMARK                            x       y       z     vdW  Elec       q    Type
REMARK                         _______ _______ _______ _____ _____    ______ ____
ROOT
ATOM      1  N   UNL     1       2.148   7.463  20.630  0.00  0.00    +0.000 N 
ATOM      2  C   UNL     1       1.071   8.116  21.199  0.00  0.00    +0.000 C 
ATOM      3  O   UNL     1      -0.070   7.658  21.208  0.00  0.00    +0.000 OA
ATOM      4  H   UNL     1       3.079   7.842  20.770  0.00  0.00    +0.000 HD
ENDROOT
BRANCH   1   6
ATOM      5  C   UNL     1       2.174   4.999  20.843  0.00  0.00    +0.000 C 
ATOM      6  C   UNL     1       2.017   6.201  19.909  0.00  0.00    +0.000 C 
BRANCH   6   7
ATOM      7  C   UNL     1       2.999   6.126  18.749  0.00  0.00    +0.000 A 
ATOM      8  C   UNL     1       3.386   7.304  18.096  0.00  0.00    +0.000 A 
ATOM      9  C   UNL     1       4.231   7.264  16.983  0.00  0.00    +0.000 A 
ATOM     10  C   UNL     1       4.725   6.046  16.500  0.00  0.00    +0.000 A 
ATOM     11  C   UNL     1       5.574   5.993  15.381  0.00  0.00    +0.000 A 
ATOM     12  C   UNL     1       6.071   4.775  14.920  0.00  0.00    +0.000 A 
ATOM     13  C   UNL     1       5.716   3.592  15.563  0.00  0.00    +0.000 A 
ATOM     14  C   UNL     1       4.863   3.627  16.669  0.00  0.00    +0.000 A 
ATOM     15  C   UNL     1       4.361   4.848  17.155  0.00  0.00    +0.000 A 
ATOM     16  C   UNL     1       3.505   4.903  18.271  0.00  0.00    +0.000 A 
ENDBRANCH   6   7
ENDBRANCH   1   6
BRANCH   2  17
ATOM     17  C   UNL     1       1.403   9.458  21.868  0.00  0.00    +0.000 C 
BRANCH  17  18
ATOM     18  N   UNL     1       0.249  10.359  21.921  0.00  0.00    +0.000 N 
ATOM     19  C   UNL     1      -0.483  10.347  23.098  0.00  0.00    +0.000 A 
ATOM     20  O   UNL     1      -0.226   9.600  24.042  0.00  0.00    +0.000 OA
ATOM     21  N   UNL     1      -1.534  11.212  23.182  0.00  0.00    +0.000 N 
ATOM     22  C   UNL     1      -1.977  12.064  22.210  0.00  0.00    +0.000 A 
ATOM     23  O   UNL     1      -2.958  12.781  22.375  0.00  0.00    +0.000 OA
ATOM     24  C   UNL     1      -1.206  12.070  20.959  0.00  0.00    +0.000 A 
ATOM     25  C   UNL     1      -1.592  12.939  19.926  0.00  0.00    +0.000 A 
ATOM     26  C   UNL     1      -0.861  12.975  18.746  0.00  0.00    +0.000 A 
ATOM     27  C   UNL     1       0.244  12.140  18.600  0.00  0.00    +0.000 A 
ATOM     28  C   UNL     1       0.619  11.263  19.629  0.00  0.00    +0.000 A 
ATOM     29  C   UNL     1      -0.098  11.216  20.833  0.00  0.00    +0.000 A 
ATOM     30  H   UNL     1      -2.053  11.205  24.046  0.00  0.00    +0.000 HD
ENDBRANCH  17  18
ENDBRANCH   2  17
TORSDOF 4
ENDMDL
MODEL 6
REMARK VINA RESULT:      -7.9      2.841      8.225
REMARK  Name = 
REMARK  5 active torsions:
REMARK  status: ('A' for Active; 'I' for Inactive)
REMARK    1  A    between atoms: C_1  and  C_2
REMARK    2  A    between atoms: C_2  and  N_3
REMARK    3  A    between atoms: C_2  and  C_19
REMARK    4  A    between atoms: C_4  and  C_6
REMARK    5  A    between atoms: C_6  and  N_7
REMARK                            x       y       z     vdW  Elec       q    Type
REMARK                         _______ _______ _______ _____ _____    ______ ____
ROOT
ATOM      1  N   UNL     1       1.705   7.690  18.689  0.00  0.00    +0.000 N 
ATOM      2  C   UNL     1       2.883   7.233  18.130  0.00  0.00    +0.000 C 
ATOM      3  O   UNL     1       3.945   7.849  18.194  0.00  0.00    +0.000 OA
ATOM      4  H   UNL     1       0.901   7.071  18.706  0.00  0.00    +0.000 HD
ENDROOT
BRANCH   1   6
ATOM      5  C   UNL     1       1.693   8.876  20.860  0.00  0.00    +0.000 C 
ATOM      6  C   UNL     1       1.589   8.992  19.337  0.00  0.00    +0.000 C 
BRANCH   6   7
ATOM      7  C   UNL     1       0.305   9.698  18.928  0.00  0.00    +0.000 A 
ATOM      8  C   UNL     1      -0.290  10.611  19.810  0.00  0.00    +0.000 A 
ATOM      9  C   UNL     1      -1.507  11.223  19.496  0.00  0.00    +0.000 A 
ATOM     10  C   UNL     1      -2.156  10.952  18.284  0.00  0.00    +0.000 A 
ATOM     11  C   UNL     1      -3.380  11.561  17.958  0.00  0.00    +0.000 A 
ATOM     12  C   UNL     1      -4.008  11.294  16.742  0.00  0.00    +0.000 A 
ATOM     13  C   UNL     1      -3.427  10.405  15.841  0.00  0.00    +0.000 A 
ATOM     14  C   UNL     1      -2.217   9.783  16.157  0.00  0.00    +0.000 A 
ATOM     15  C   UNL     1      -1.563  10.049  17.374  0.00  0.00    +0.000 A 
ATOM     16  C   UNL     1      -0.340   9.435  17.707  0.00  0.00    +0.000 A 
ENDBRANCH   6   7
ENDBRANCH   1   6
BRANCH   2  17
ATOM     17  C   UNL     1       2.790   5.860  17.447  0.00  0.00    +0.000 C 
BRANCH  17  18
ATOM     18  N   UNL     1       3.366   4.788  18.263  0.00  0.00    +0.000 N 
ATOM     19  C   UNL     1       4.681   4.447  17.986  0.00  0.00    +0.000 A 
ATOM     20  O   UNL     1       5.335   4.970  17.083  0.00  0.00    +0.000 OA
ATOM     21  N   UNL     1       5.247   3.482  18.765  0.00  0.00    +0.000 N 
ATOM     22  C   UNL     1       4.643   2.775  19.767  0.00  0.00    +0.000 A 
ATOM     23  O   UNL     1       5.235   1.899  20.389  0.00  0.00    +0.000 OA
ATOM     24  C   UNL     1       3.246   3.131  20.054  0.00  0.00    +0.000 A 
ATOM     25  C   UNL     1       2.573   2.460  21.087  0.00  0.00    +0.000 A 
ATOM     26  C   UNL     1       1.259   2.799  21.388  0.00  0.00    +0.000 A 
ATOM     27  C   UNL     1       0.625   3.797  20.653  0.00  0.00    +0.000 A 
ATOM     28  C   UNL     1       1.298   4.456  19.612  0.00  0.00    +0.000 A 
ATOM     29  C   UNL     1       2.626   4.137  19.297  0.00  0.00    +0.000 A 
ATOM     30  H   UNL     1       6.207   3.249  18.565  0.00  0.00    +0.000 HD
ENDBRANCH  17  18
ENDBRANCH   2  17
TORSDOF 4
ENDMDL
MODEL 7
REMARK VINA RESULT:      -7.8      2.529      4.366
REMARK  Name = 
REMARK  5 active torsions:
REMARK  status: ('A' for Active; 'I' for Inactive)
REMARK    1  A    between atoms: C_1  and  C_2
REMARK    2  A    between atoms: C_2  and  N_3
REMARK    3  A    between atoms: C_2  and  C_19
REMARK    4  A    between atoms: C_4  and  C_6
REMARK    5  A    between atoms: C_6  and  N_7
REMARK                            x       y       z     vdW  Elec       q    Type
REMARK                         _______ _______ _______ _____ _____    ______ ____
ROOT
ATOM      1  N   UNL     1       0.487   9.965  20.104  0.00  0.00    +0.000 N 
ATOM      2  C   UNL     1      -0.404  10.842  20.693  0.00  0.00    +0.000 C 
ATOM      3  O   UNL     1      -0.887  10.666  21.810  0.00  0.00    +0.000 OA
ATOM      4  H   UNL     1       0.940  10.238  19.237  0.00  0.00    +0.000 HD
ENDROOT
BRANCH   1   6
ATOM      5  C   UNL     1       1.484   8.910  22.107  0.00  0.00    +0.000 C 
ATOM      6  C   UNL     1       0.875   8.700  20.718  0.00  0.00    +0.000 C 
BRANCH   6   7
ATOM      7  C   UNL     1       1.821   7.919  19.818  0.00  0.00    +0.000 A 
ATOM      8  C   UNL     1       2.222   8.473  18.594  0.00  0.00    +0.000 A 
ATOM      9  C   UNL     1       3.033   7.753  17.712  0.00  0.00    +0.000 A 
ATOM     10  C   UNL     1       3.479   6.465  18.035  0.00  0.00    +0.000 A 
ATOM     11  C   UNL     1       4.294   5.731  17.156  0.00  0.00    +0.000 A 
ATOM     12  C   UNL     1       4.744   4.457  17.496  0.00  0.00    +0.000 A 
ATOM     13  C   UNL     1       4.375   3.892  18.714  0.00  0.00    +0.000 A 
ATOM     14  C   UNL     1       3.555   4.604  19.593  0.00  0.00    +0.000 A 
ATOM     15  C   UNL     1       3.102   5.896  19.272  0.00  0.00    +0.000 A 
ATOM     16  C   UNL     1       2.279   6.630  20.147  0.00  0.00    +0.000 A 
ENDBRANCH   6   7
ENDBRANCH   1   6
BRANCH   2  17
ATOM     17  C   UNL     1      -0.727  12.096  19.866  0.00  0.00    +0.000 C 
BRANCH  17  18
ATOM     18  N   UNL     1      -2.135  12.158  19.468  0.00  0.00    +0.000 N 
ATOM     19  C   UNL     1      -2.970  12.902  20.287  0.00  0.00    +0.000 A 
ATOM     20  O   UNL     1      -2.584  13.452  21.319  0.00  0.00    +0.000 OA
ATOM     21  N   UNL     1      -4.276  13.008  19.908  0.00  0.00    +0.000 N 
ATOM     22  C   UNL     1      -4.867  12.419  18.826  0.00  0.00    +0.000 A 
ATOM     23  O   UNL     1      -6.063  12.552  18.589  0.00  0.00    +0.000 OA
ATOM     24  C   UNL     1      -3.983  11.623  17.962  0.00  0.00    +0.000 A 
ATOM     25  C   UNL     1      -4.521  11.010  16.819  0.00  0.00    +0.000 A 
ATOM     26  C   UNL     1      -3.696  10.272  15.980  0.00  0.00    +0.000 A 
ATOM     27  C   UNL     1      -2.344  10.146  16.289  0.00  0.00    +0.000 A 
ATOM     28  C   UNL     1      -1.813  10.749  17.439  0.00  0.00    +0.000 A 
ATOM     29  C   UNL     1      -2.625  11.505  18.296  0.00  0.00    +0.000 A 
ATOM     30  H   UNL     1      -4.873  13.561  20.502  0.00  0.00    +0.000 HD
ENDBRANCH  17  18
ENDBRANCH   2  17
TORSDOF 4
ENDMDL
MODEL 8
REMARK VINA RESULT:      -7.7      0.984      1.677
REMARK  Name = 
REMARK  5 active torsions:
REMARK  status: ('A' for Active; 'I' for Inactive)
REMARK    1  A    between atoms: C_1  and  C_2
REMARK    2  A    between atoms: C_2  and  N_3
REMARK    3  A    between atoms: C_2  and  C_19
REMARK    4  A    between atoms: C_4  and  C_6
REMARK    5  A    between atoms: C_6  and  N_7
REMARK                            x       y       z     vdW  Elec       q    Type
REMARK                         _______ _______ _______ _____ _____    ______ ____
ROOT
ATOM      1  N   UNL     1       1.834   7.465  20.873  0.00  0.00    +0.000 N 
ATOM      2  C   UNL     1       0.697   8.106  21.327  0.00  0.00    +0.000 C 
ATOM      3  O   UNL     1      -0.428   7.614  21.262  0.00  0.00    +0.000 OA
ATOM      4  H   UNL     1       2.739   7.878  21.073  0.00  0.00    +0.000 HD
ENDROOT
BRANCH   1   6
ATOM      5  C   UNL     1       2.056   5.019  21.163  0.00  0.00    +0.000 C 
ATOM      6  C   UNL     1       1.797   6.175  20.193  0.00  0.00    +0.000 C 
BRANCH   6   7
ATOM      7  C   UNL     1       2.773   6.139  19.026  0.00  0.00    +0.000 A 
ATOM      8  C   UNL     1       3.114   7.334  18.377  0.00  0.00    +0.000 A 
ATOM      9  C   UNL     1       3.951   7.328  17.258  0.00  0.00    +0.000 A 
ATOM     10  C   UNL     1       4.485   6.130  16.765  0.00  0.00    +0.000 A 
ATOM     11  C   UNL     1       5.327   6.112  15.641  0.00  0.00    +0.000 A 
ATOM     12  C   UNL     1       5.863   4.915  15.170  0.00  0.00    +0.000 A 
ATOM     13  C   UNL     1       5.555   3.717  15.810  0.00  0.00    +0.000 A 
ATOM     14  C   UNL     1       4.709   3.717  16.922  0.00  0.00    +0.000 A 
ATOM     15  C   UNL     1       4.168   4.917  17.417  0.00  0.00    +0.000 A 
ATOM     16  C   UNL     1       3.318   4.938  18.540  0.00  0.00    +0.000 A 
ENDBRANCH   6   7
ENDBRANCH   1   6
BRANCH   2  17
ATOM     17  C   UNL     1       0.936   9.481  21.968  0.00  0.00    +0.000 C 
BRANCH  17  18
ATOM     18  N   UNL     1       0.290  10.566  21.226  0.00  0.00    +0.000 N 
ATOM     19  C   UNL     1       0.796  10.829  19.963  0.00  0.00    +0.000 A 
ATOM     20  O   UNL     1       1.760  10.230  19.486  0.00  0.00    +0.000 OA
ATOM     21  N   UNL     1       0.178  11.807  19.240  0.00  0.00    +0.000 N 
ATOM     22  C   UNL     1      -0.864  12.593  19.643  0.00  0.00    +0.000 A 
ATOM     23  O   UNL     1      -1.329  13.471  18.924  0.00  0.00    +0.000 OA
ATOM     24  C   UNL     1      -1.394  12.320  20.987  0.00  0.00    +0.000 A 
ATOM     25  C   UNL     1      -2.481  13.075  21.455  0.00  0.00    +0.000 A 
ATOM     26  C   UNL     1      -3.010  12.815  22.713  0.00  0.00    +0.000 A 
ATOM     27  C   UNL     1      -2.448  11.811  23.497  0.00  0.00    +0.000 A 
ATOM     28  C   UNL     1      -1.354  11.067  23.030  0.00  0.00    +0.000 A 
ATOM     29  C   UNL     1      -0.809  11.305  21.760  0.00  0.00    +0.000 A 
ATOM     30  H   UNL     1       0.544  11.982  18.317  0.00  0.00    +0.000 HD
ENDBRANCH  17  18
ENDBRANCH   2  17
TORSDOF 4
ENDMDL
MODEL 9
REMARK VINA RESULT:      -7.7      1.912      9.202
REMARK  Name = 
REMARK  5 active torsions:
REMARK  status: ('A' for Active; 'I' for Inactive)
REMARK    1  A    between atoms: C_1  and  C_2
REMARK    2  A    between atoms: C_2  and  N_3
REMARK    3  A    between atoms: C_2  and  C_19
REMARK    4  A    between atoms: C_4  and  C_6
REMARK    5  A    between atoms: C_6  and  N_7
REMARK                            x       y       z     vdW  Elec       q    Type
REMARK                         _______ _______ _______ _____ _____    ______ ____
ROOT
ATOM      1  N   UNL     1       1.405   9.092  19.910  0.00  0.00    +0.000 N 
ATOM      2  C   UNL     1       1.904   8.081  19.111  0.00  0.00    +0.000 C 
ATOM      3  O   UNL     1       1.729   8.031  17.895  0.00  0.00    +0.000 OA
ATOM      4  H   UNL     1       1.696   9.135  20.882  0.00  0.00    +0.000 HD
ENDROOT
BRANCH   1   6
ATOM      5  C   UNL     1       1.360  11.240  18.684  0.00  0.00    +0.000 C 
ATOM      6  C   UNL     1       0.548  10.156  19.397  0.00  0.00    +0.000 C 
BRANCH   6   7
ATOM      7  C   UNL     1      -0.309  10.753  20.503  0.00  0.00    +0.000 A 
ATOM      8  C   UNL     1      -0.142  10.306  21.822  0.00  0.00    +0.000 A 
ATOM      9  C   UNL     1      -0.961  10.782  22.850  0.00  0.00    +0.000 A 
ATOM     10  C   UNL     1      -1.961  11.728  22.592  0.00  0.00    +0.000 A 
ATOM     11  C   UNL     1      -2.791  12.213  23.617  0.00  0.00    +0.000 A 
ATOM     12  C   UNL     1      -3.772  13.166  23.350  0.00  0.00    +0.000 A 
ATOM     13  C   UNL     1      -3.945  13.640  22.052  0.00  0.00    +0.000 A 
ATOM     14  C   UNL     1      -3.136  13.158  21.020  0.00  0.00    +0.000 A 
ATOM     15  C   UNL     1      -2.134  12.205  21.273  0.00  0.00    +0.000 A 
ATOM     16  C   UNL     1      -1.305  11.712  20.247  0.00  0.00    +0.000 A 
ENDBRANCH   6   7
ENDBRANCH   1   6
BRANCH   2  17
ATOM     17  C   UNL     1       2.743   7.025  19.846  0.00  0.00    +0.000 C 
BRANCH  17  18
ATOM     18  N   UNL     1       2.753   5.735  19.152  0.00  0.00    +0.000 N 
ATOM     19  C   UNL     1       1.827   4.799  19.586  0.00  0.00    +0.000 A 
ATOM     20  O   UNL     1       1.059   5.000  20.528  0.00  0.00    +0.000 OA
ATOM     21  N   UNL     1       1.791   3.609  18.922  0.00  0.00    +0.000 N 
ATOM     22  C   UNL     1       2.604   3.214  17.897  0.00  0.00    +0.000 A 
ATOM     23  O   UNL     1       2.512   2.103  17.387  0.00  0.00    +0.000 OA
ATOM     24  C   UNL     1       3.593   4.204  17.443  0.00  0.00    +0.000 A 
ATOM     25  C   UNL     1       4.444   3.873  16.377  0.00  0.00    +0.000 A 
ATOM     26  C   UNL     1       5.368   4.804  15.919  0.00  0.00    +0.000 A 
ATOM     27  C   UNL     1       5.442   6.053  16.530  0.00  0.00    +0.000 A 
ATOM     28  C   UNL     1       4.597   6.374  17.603  0.00  0.00    +0.000 A 
ATOM     29  C   UNL     1       3.651   5.455  18.077  0.00  0.00    +0.000 A 
ATOM     30  H   UNL     1       1.106   2.939  19.237  0.00  0.00    +0.000 HD
ENDBRANCH  17  18
ENDBRANCH   2  17
TORSDOF 4
ENDMDL
