MODEL 1
REMARK VINA RESULT:      -9.0      0.000      0.000
REMARK  Name = 
REMARK  6 active torsions:
REMARK  status: ('A' for Active; 'I' for Inactive)
REMARK    1  A    between atoms: C_2  and  C_17
REMARK    2  A    between atoms: N_3  and  C_4
REMARK    3  A    between atoms: C_4  and  C_5
REMARK    4  A    between atoms: C_8  and  C_9
REMARK    5  A    between atoms: C_9  and  N_10
REMARK    6  A    between atoms: C_19  and  C_20
REMARK                            x       y       z     vdW  Elec       q    Type
REMARK                         _______ _______ _______ _____ _____    ______ ____
ROOT
ATOM      1  O   UNL     1       1.690   8.188  20.929  0.00  0.00    +0.000 OA
ATOM      2  C   UNL     1       1.803   8.111  19.710  0.00  0.00    +0.000 C 
ATOM      3  N   UNL     1       1.262   9.108  18.895  0.00  0.00    +0.000 N 
ATOM      4  H   UNL     1       1.483   9.172  17.918  0.00  0.00    +0.000 HD
ENDROOT
BRANCH   2   5
ATOM      5  C   UNL     1       2.517   6.953  19.031  0.00  0.00    +0.000 A 
ATOM      6  C   UNL     1       3.353   7.208  17.931  0.00  0.00    +0.000 A 
ATOM      7  C   UNL     1       4.054   6.180  17.315  0.00  0.00    +0.000 A 
ATOM      8  N   UNL     1       3.833   4.897  17.660  0.00  0.00    +0.000 NA
ATOM      9  C   UNL     1       2.961   4.611  18.632  0.00  0.00    +0.000 A 
ATOM     10  C   UNL     1       2.672   3.266  18.813  0.00  0.00    +0.000 A 
ATOM     11  C   UNL     1       1.771   2.829  19.780  0.00  0.00    +0.000 A 
ATOM     12  C   UNL     1       1.227   3.753  20.655  0.00  0.00    +0.000 A 
ATOM     13  C   UNL     1       1.518   5.111  20.499  0.00  0.00    +0.000 A 
ATOM     14  C   UNL     1       2.320   5.590  19.426  0.00  0.00    +0.000 A 
BRANCH   7  15
ATOM     15  C   UNL     1       5.128   6.481  16.297  0.00  0.00    +0.000 C 
ATOM     16  C   UNL     1       5.596   5.429  15.325  0.00  0.00    +0.000 C 
ATOM     17  C   UNL     1       6.506   5.878  16.430  0.00  0.00    +0.000 C 
ENDBRANCH   7  15
ENDBRANCH   2   5
BRANCH   3  18
ATOM     18  C   UNL     1       0.585  10.257  19.462  0.00  0.00    +0.000 C 
BRANCH  18  19
ATOM     19  C   UNL     1      -0.723  10.539  18.752  0.00  0.00    +0.000 A 
ATOM     20  C   UNL     1      -1.090   9.818  17.608  0.00  0.00    +0.000 A 
ATOM     21  C   UNL     1      -2.304  10.079  16.951  0.00  0.00    +0.000 A 
ATOM     22  C   UNL     1      -3.173  11.078  17.417  0.00  0.00    +0.000 A 
ATOM     23  C   UNL     1      -2.805  11.797  18.563  0.00  0.00    +0.000 A 
ATOM     24  C   UNL     1      -1.593  11.537  19.214  0.00  0.00    +0.000 A 
BRANCH  22  25
ATOM     25  C   UNL     1      -4.457  11.396  16.686  0.00  0.00    +0.000 C 
BRANCH  25  26
ATOM     26  N   UNL     1      -5.620  11.508  17.560  0.00  0.00    +0.000 N 
ATOM     27  C   UNL     1      -6.360  12.634  17.804  0.00  0.00    +0.000 A 
ATOM     28  C   UNL     1      -7.233  12.310  18.816  0.00  0.00    +0.000 A 
ATOM     29  C   UNL     1      -6.931  10.975  19.134  0.00  0.00    +0.000 A 
ATOM     30  N   UNL     1      -5.944  10.482  18.380  0.00  0.00    +0.000 NA
ENDBRANCH  25  26
ENDBRANCH  22  25
ENDBRANCH  18  19
ENDBRANCH   3  18
TORSDOF 6
ENDMDL
MODEL 2
REMARK VINA RESULT:      -8.5      3.215      3.888
REMARK  Name = 
REMARK  6 active torsions:
REMARK  status: ('A' for Active; 'I' for Inactive)
REMARK    1  A    between atoms: C_2  and  C_17
REMARK    2  A    between atoms: N_3  and  C_4
REMARK    3  A    between atoms: C_4  and  C_5
REMARK    4  A    between atoms: C_8  and  C_9
REMARK    5  A    between atoms: C_9  and  N_10
REMARK    6  A    between atoms: C_19  and  C_20
REMARK                            x       y       z     vdW  Elec       q    Type
REMARK                         _______ _______ _______ _____ _____    ______ ____
ROOT
ATOM      1  O   UNL     1       4.112   8.332  17.895  0.00  0.00    +0.000 OA
ATOM      2  C   UNL     1       3.230   7.480  17.839  0.00  0.00    +0.000 C 
ATOM      3  N   UNL     1       1.887   7.861  17.888  0.00  0.00    +0.000 N 
ATOM      4  H   UNL     1       1.146   7.220  17.671  0.00  0.00    +0.000 HD
ENDROOT
BRANCH   2   5
ATOM      5  C   UNL     1       3.540   5.996  17.722  0.00  0.00    +0.000 A 
ATOM      6  C   UNL     1       4.451   5.557  16.747  0.00  0.00    +0.000 A 
ATOM      7  C   UNL     1       4.790   4.214  16.640  0.00  0.00    +0.000 A 
ATOM      8  N   UNL     1       4.142   3.285  17.367  0.00  0.00    +0.000 NA
ATOM      9  C   UNL     1       3.191   3.659  18.230  0.00  0.00    +0.000 A 
ATOM     10  C   UNL     1       2.465   2.633  18.816  0.00  0.00    +0.000 A 
ATOM     11  C   UNL     1       1.437   2.882  19.722  0.00  0.00    +0.000 A 
ATOM     12  C   UNL     1       1.202   4.183  20.128  0.00  0.00    +0.000 A 
ATOM     13  C   UNL     1       1.934   5.229  19.561  0.00  0.00    +0.000 A 
ATOM     14  C   UNL     1       2.887   5.008  18.527  0.00  0.00    +0.000 A 
BRANCH   7  15
ATOM     15  C   UNL     1       5.937   3.776  15.761  0.00  0.00    +0.000 C 
ATOM     16  C   UNL     1       6.844   4.784  15.105  0.00  0.00    +0.000 C 
ATOM     17  C   UNL     1       5.887   3.989  14.267  0.00  0.00    +0.000 C 
ENDBRANCH   7  15
ENDBRANCH   2   5
BRANCH   3  18
ATOM     18  C   UNL     1       1.505   9.256  17.978  0.00  0.00    +0.000 C 
BRANCH  18  19
ATOM     19  C   UNL     1       0.872   9.575  19.316  0.00  0.00    +0.000 A 
ATOM     20  C   UNL     1       1.197   8.834  20.460  0.00  0.00    +0.000 A 
ATOM     21  C   UNL     1       0.610   9.132  21.701  0.00  0.00    +0.000 A 
ATOM     22  C   UNL     1      -0.324  10.172  21.823  0.00  0.00    +0.000 A 
ATOM     23  C   UNL     1      -0.647  10.914  20.678  0.00  0.00    +0.000 A 
ATOM     24  C   UNL     1      -0.064  10.612  19.441  0.00  0.00    +0.000 A 
BRANCH  22  25
ATOM     25  C   UNL     1      -0.994  10.466  23.146  0.00  0.00    +0.000 C 
BRANCH  25  26
ATOM     26  N   UNL     1      -1.707  11.738  23.176  0.00  0.00    +0.000 N 
ATOM     27  C   UNL     1      -1.153  12.991  23.180  0.00  0.00    +0.000 A 
ATOM     28  C   UNL     1      -2.189  13.870  23.392  0.00  0.00    +0.000 A 
ATOM     29  C   UNL     1      -3.326  13.055  23.529  0.00  0.00    +0.000 A 
ATOM     30  N   UNL     1      -3.039  11.756  23.408  0.00  0.00    +0.000 NA
ENDBRANCH  25  26
ENDBRANCH  22  25
ENDBRANCH  18  19
ENDBRANCH   3  18
TORSDOF 6
ENDMDL
MODEL 3
REMARK VINA RESULT:      -8.5      1.158      3.317
REMARK  Name = 
REMARK  6 active torsions:
REMARK  status: ('A' for Active; 'I' for Inactive)
REMARK    1  A    between atoms: C_2  and  C_17
REMARK    2  A    between atoms: N_3  and  C_4
REMARK    3  A    between atoms: C_4  and  C_5
REMARK    4  A    between atoms: C_8  and  C_9
REMARK    5  A    between atoms: C_9  and  N_10
REMARK    6  A    between atoms: C_19  and  C_20
REMARK                            x       y       z     vdW  Elec       q    Type
REMARK                         _______ _______ _______ _____ _____    ______ ____
ROOT
ATOM      1  O   UNL     1       2.599   9.370  17.381  0.00  0.00    +0.000 OA
ATOM      2  C   UNL     1       2.174   8.719  18.330  0.00  0.00    +0.000 C 
ATOM      3  N   UNL     1       1.283   9.304  19.233  0.00  0.00    +0.000 N 
ATOM      4  H   UNL     1       0.782   8.760  19.912  0.00  0.00    +0.000 HD
ENDROOT
BRANCH   2   5
ATOM      5  C   UNL     1       2.584   7.275  18.575  0.00  0.00    +0.000 A 
ATOM      6  C   UNL     1       2.062   6.589  19.685  0.00  0.00    +0.000 A 
ATOM      7  C   UNL     1       2.381   5.257  19.914  0.00  0.00    +0.000 A 
ATOM      8  N   UNL     1       3.313   4.638  19.167  0.00  0.00    +0.000 NA
ATOM      9  C   UNL     1       3.910   5.297  18.168  0.00  0.00    +0.000 A 
ATOM     10  C   UNL     1       4.969   4.642  17.555  0.00  0.00    +0.000 A 
ATOM     11  C   UNL     1       5.687   5.219  16.511  0.00  0.00    +0.000 A 
ATOM     12  C   UNL     1       5.268   6.435  16.000  0.00  0.00    +0.000 A 
ATOM     13  C   UNL     1       4.193   7.103  16.593  0.00  0.00    +0.000 A 
ATOM     14  C   UNL     1       3.541   6.597  17.753  0.00  0.00    +0.000 A 
BRANCH   7  15
ATOM     15  C   UNL     1       1.641   4.456  20.958  0.00  0.00    +0.000 C 
ATOM     16  C   UNL     1       2.204   3.166  21.493  0.00  0.00    +0.000 C 
ATOM     17  C   UNL     1       0.997   3.137  20.603  0.00  0.00    +0.000 C 
ENDBRANCH   7  15
ENDBRANCH   2   5
BRANCH   3  18
ATOM     18  C   UNL     1       0.825  10.667  19.060  0.00  0.00    +0.000 C 
BRANCH  18  19
ATOM     19  C   UNL     1      -0.607  10.716  18.568  0.00  0.00    +0.000 A 
ATOM     20  C   UNL     1      -1.039   9.876  17.533  0.00  0.00    +0.000 A 
ATOM     21  C   UNL     1      -2.368   9.921  17.078  0.00  0.00    +0.000 A 
ATOM     22  C   UNL     1      -3.291  10.815  17.642  0.00  0.00    +0.000 A 
ATOM     23  C   UNL     1      -2.857  11.653  18.678  0.00  0.00    +0.000 A 
ATOM     24  C   UNL     1      -1.531  11.610  19.127  0.00  0.00    +0.000 A 
BRANCH  22  25
ATOM     25  C   UNL     1      -4.709  10.901  17.124  0.00  0.00    +0.000 C 
BRANCH  25  26
ATOM     26  N   UNL     1      -5.681  11.304  18.133  0.00  0.00    +0.000 N 
ATOM     27  C   UNL     1      -6.422  10.480  18.937  0.00  0.00    +0.000 A 
ATOM     28  C   UNL     1      -7.321  11.287  19.594  0.00  0.00    +0.000 A 
ATOM     29  C   UNL     1      -7.063  12.580  19.105  0.00  0.00    +0.000 A 
ATOM     30  N   UNL     1      -6.073  12.597  18.208  0.00  0.00    +0.000 NA
ENDBRANCH  25  26
ENDBRANCH  22  25
ENDBRANCH  18  19
ENDBRANCH   3  18
TORSDOF 6
ENDMDL
MODEL 4
REMARK VINA RESULT:      -8.4      3.325      5.084
REMARK  Name = 
REMARK  6 active torsions:
REMARK  status: ('A' for Active; 'I' for Inactive)
REMARK    1  A    between atoms: C_2  and  C_17
REMARK    2  A    between atoms: N_3  and  C_4
REMARK    3  A    between atoms: C_4  and  C_5
REMARK    4  A    between atoms: C_8  and  C_9
REMARK    5  A    between atoms: C_9  and  N_10
REMARK    6  A    between atoms: C_19  and  C_20
REMARK                            x       y       z     vdW  Elec       q    Type
REMARK                         _______ _______ _______ _____ _____    ______ ____
ROOT
ATOM      1  O   UNL     1       2.905   8.266  16.882  0.00  0.00    +0.000 OA
ATOM      2  C   UNL     1       2.737   7.750  17.982  0.00  0.00    +0.000 C 
ATOM      3  N   UNL     1       1.918   8.371  18.927  0.00  0.00    +0.000 N 
ATOM      4  H   UNL     1       1.618   7.900  19.761  0.00  0.00    +0.000 HD
ENDROOT
BRANCH   2   5
ATOM      5  C   UNL     1       3.399   6.437  18.374  0.00  0.00    +0.000 A 
ATOM      6  C   UNL     1       2.676   5.499  19.129  0.00  0.00    +0.000 A 
ATOM      7  C   UNL     1       3.234   4.273  19.467  0.00  0.00    +0.000 A 
ATOM      8  N   UNL     1       4.530   4.017  19.209  0.00  0.00    +0.000 NA
ATOM      9  C   UNL     1       5.279   4.933  18.586  0.00  0.00    +0.000 A 
ATOM     10  C   UNL     1       6.636   4.657  18.504  0.00  0.00    +0.000 A 
ATOM     11  C   UNL     1       7.531   5.531  17.894  0.00  0.00    +0.000 A 
ATOM     12  C   UNL     1       7.039   6.658  17.259  0.00  0.00    +0.000 A 
ATOM     13  C   UNL     1       5.673   6.946  17.316  0.00  0.00    +0.000 A 
ATOM     14  C   UNL     1       4.764   6.141  18.060  0.00  0.00    +0.000 A 
BRANCH   7  15
ATOM     15  C   UNL     1       2.385   3.178  20.066  0.00  0.00    +0.000 C 
ATOM     16  C   UNL     1       1.040   3.480  20.674  0.00  0.00    +0.000 C 
ATOM     17  C   UNL     1       2.186   3.088  21.560  0.00  0.00    +0.000 C 
ENDBRANCH   7  15
ENDBRANCH   2   5
BRANCH   3  18
ATOM     18  C   UNL     1       1.233   9.612  18.627  0.00  0.00    +0.000 C 
BRANCH  18  19
ATOM     19  C   UNL     1       0.463  10.127  19.826  0.00  0.00    +0.000 A 
ATOM     20  C   UNL     1       0.649   9.564  21.096  0.00  0.00    +0.000 A 
ATOM     21  C   UNL     1      -0.063  10.044  22.207  0.00  0.00    +0.000 A 
ATOM     22  C   UNL     1      -0.987  11.092  22.071  0.00  0.00    +0.000 A 
ATOM     23  C   UNL     1      -1.171  11.655  20.800  0.00  0.00    +0.000 A 
ATOM     24  C   UNL     1      -0.462  11.172  19.693  0.00  0.00    +0.000 A 
BRANCH  22  25
ATOM     25  C   UNL     1      -1.792  11.579  23.254  0.00  0.00    +0.000 C 
BRANCH  25  26
ATOM     26  N   UNL     1      -1.883  13.032  23.346  0.00  0.00    +0.000 N 
ATOM     27  C   UNL     1      -2.958  13.811  23.009  0.00  0.00    +0.000 A 
ATOM     28  C   UNL     1      -2.529  15.115  23.090  0.00  0.00    +0.000 A 
ATOM     29  C   UNL     1      -1.176  15.024  23.458  0.00  0.00    +0.000 A 
ATOM     30  N   UNL     1      -0.773  13.759  23.607  0.00  0.00    +0.000 NA
ENDBRANCH  25  26
ENDBRANCH  22  25
ENDBRANCH  18  19
ENDBRANCH   3  18
TORSDOF 6
ENDMDL
MODEL 5
REMARK VINA RESULT:      -8.4      2.957      4.609
REMARK  Name = 
REMARK  6 active torsions:
REMARK  status: ('A' for Active; 'I' for Inactive)
REMARK    1  A    between atoms: C_2  and  C_17
REMARK    2  A    between atoms: N_3  and  C_4
REMARK    3  A    between atoms: C_4  and  C_5
REMARK    4  A    between atoms: C_8  and  C_9
REMARK    5  A    between atoms: C_9  and  N_10
REMARK    6  A    between atoms: C_19  and  C_20
REMARK                            x       y       z     vdW  Elec       q    Type
REMARK                         _______ _______ _______ _____ _____    ______ ____
ROOT
ATOM      1  O   UNL     1       2.603   8.783  17.249  0.00  0.00    +0.000 OA
ATOM      2  C   UNL     1       2.330   8.254  18.321  0.00  0.00    +0.000 C 
ATOM      3  N   UNL     1       1.503   8.912  19.235  0.00  0.00    +0.000 N 
ATOM      4  H   UNL     1       1.119   8.444  20.035  0.00  0.00    +0.000 HD
ENDROOT
BRANCH   2   5
ATOM      5  C   UNL     1       2.866   6.885  18.711  0.00  0.00    +0.000 A 
ATOM      6  C   UNL     1       2.327   6.227  19.830  0.00  0.00    +0.000 A 
ATOM      7  C   UNL     1       2.763   4.958  20.189  0.00  0.00    +0.000 A 
ATOM      8  N   UNL     1       3.814   4.393  19.566  0.00  0.00    +0.000 NA
ATOM      9  C   UNL     1       4.420   5.040  18.565  0.00  0.00    +0.000 A 
ATOM     10  C   UNL     1       5.589   4.464  18.088  0.00  0.00    +0.000 A 
ATOM     11  C   UNL     1       6.328   5.040  17.058  0.00  0.00    +0.000 A 
ATOM     12  C   UNL     1       5.829   6.163  16.422  0.00  0.00    +0.000 A 
ATOM     13  C   UNL     1       4.645   6.749  16.877  0.00  0.00    +0.000 A 
ATOM     14  C   UNL     1       3.953   6.259  18.021  0.00  0.00    +0.000 A 
BRANCH   7  15
ATOM     15  C   UNL     1       2.025   4.157  21.235  0.00  0.00    +0.000 C 
ATOM     16  C   UNL     1       2.439   2.748  21.571  0.00  0.00    +0.000 C 
ATOM     17  C   UNL     1       1.152   2.990  20.837  0.00  0.00    +0.000 C 
ENDBRANCH   7  15
ENDBRANCH   2   5
BRANCH   3  18
ATOM     18  C   UNL     1       0.933  10.209  18.932  0.00  0.00    +0.000 C 
BRANCH  18  19
ATOM     19  C   UNL     1       0.165  10.769  20.111  0.00  0.00    +0.000 A 
ATOM     20  C   UNL     1      -0.298  12.092  20.105  0.00  0.00    +0.000 A 
ATOM     21  C   UNL     1      -1.012  12.610  21.198  0.00  0.00    +0.000 A 
ATOM     22  C   UNL     1      -1.270  11.818  22.329  0.00  0.00    +0.000 A 
ATOM     23  C   UNL     1      -0.808  10.495  22.333  0.00  0.00    +0.000 A 
ATOM     24  C   UNL     1      -0.093   9.982  21.243  0.00  0.00    +0.000 A 
BRANCH  22  25
ATOM     25  C   UNL     1      -1.996  12.385  23.527  0.00  0.00    +0.000 C 
BRANCH  25  26
ATOM     26  N   UNL     1      -3.440  12.484  23.349  0.00  0.00    +0.000 N 
ATOM     27  C   UNL     1      -4.101  13.011  22.272  0.00  0.00    +0.000 A 
ATOM     28  C   UNL     1      -5.431  13.054  22.619  0.00  0.00    +0.000 A 
ATOM     29  C   UNL     1      -5.473  12.555  23.933  0.00  0.00    +0.000 A 
ATOM     30  N   UNL     1      -4.264  12.214  24.387  0.00  0.00    +0.000 NA
ENDBRANCH  25  26
ENDBRANCH  22  25
ENDBRANCH  18  19
ENDBRANCH   3  18
TORSDOF 6
ENDMDL
MODEL 6
REMARK VINA RESULT:      -8.4      1.127      3.354
REMARK  Name = 
REMARK  6 active torsions:
REMARK  status: ('A' for Active; 'I' for Inactive)
REMARK    1  A    between atoms: C_2  and  C_17
REMARK    2  A    between atoms: N_3  and  C_4
REMARK    3  A    between atoms: C_4  and  C_5
REMARK    4  A    between atoms: C_8  and  C_9
REMARK    5  A    between atoms: C_9  and  N_10
REMARK    6  A    between atoms: C_19  and  C_20
REMARK                            x       y       z     vdW  Elec       q    Type
REMARK                         _______ _______ _______ _____ _____    ______ ____
ROOT
ATOM      1  O   UNL     1       2.763   9.351  17.552  0.00  0.00    +0.000 OA
ATOM      2  C   UNL     1       2.293   8.667  18.455  0.00  0.00    +0.000 C 
ATOM      3  N   UNL     1       1.392   9.229  19.362  0.00  0.00    +0.000 N 
ATOM      4  H   UNL     1       0.858   8.666  19.998  0.00  0.00    +0.000 HD
ENDROOT
BRANCH   2   5
ATOM      5  C   UNL     1       2.659   7.202  18.639  0.00  0.00    +0.000 A 
ATOM      6  C   UNL     1       2.155   6.499  19.746  0.00  0.00    +0.000 A 
ATOM      7  C   UNL     1       2.433   5.150  19.921  0.00  0.00    +0.000 A 
ATOM      8  N   UNL     1       3.313   4.522  19.119  0.00  0.00    +0.000 NA
ATOM      9  C   UNL     1       3.896   5.192  18.118  0.00  0.00    +0.000 A 
ATOM     10  C   UNL     1       4.905   4.521  17.444  0.00  0.00    +0.000 A 
ATOM     11  C   UNL     1       5.604   5.105  16.391  0.00  0.00    +0.000 A 
ATOM     12  C   UNL     1       5.211   6.351  15.936  0.00  0.00    +0.000 A 
ATOM     13  C   UNL     1       4.185   7.037  16.591  0.00  0.00    +0.000 A 
ATOM     14  C   UNL     1       3.559   6.518  17.759  0.00  0.00    +0.000 A 
BRANCH   7  15
ATOM     15  C   UNL     1       1.704   4.342  20.967  0.00  0.00    +0.000 C 
ATOM     16  C   UNL     1       2.244   3.019  21.446  0.00  0.00    +0.000 C 
ATOM     17  C   UNL     1       1.007   3.054  20.598  0.00  0.00    +0.000 C 
ENDBRANCH   7  15
ENDBRANCH   2   5
BRANCH   3  18
ATOM     18  C   UNL     1       0.974  10.612  19.245  0.00  0.00    +0.000 C 
BRANCH  18  19
ATOM     19  C   UNL     1      -0.338  10.736  18.498  0.00  0.00    +0.000 A 
ATOM     20  C   UNL     1      -1.107  11.905  18.588  0.00  0.00    +0.000 A 
ATOM     21  C   UNL     1      -2.323  12.020  17.894  0.00  0.00    +0.000 A 
ATOM     22  C   UNL     1      -2.803  10.963  17.103  0.00  0.00    +0.000 A 
ATOM     23  C   UNL     1      -2.031   9.797  17.013  0.00  0.00    +0.000 A 
ATOM     24  C   UNL     1      -0.821   9.683  17.709  0.00  0.00    +0.000 A 
BRANCH  22  25
ATOM     25  C   UNL     1      -4.134  11.064  16.393  0.00  0.00    +0.000 C 
BRANCH  25  26
ATOM     26  N   UNL     1      -5.263  11.286  17.289  0.00  0.00    +0.000 N 
ATOM     27  C   UNL     1      -6.133  12.343  17.270  0.00  0.00    +0.000 A 
ATOM     28  C   UNL     1      -6.913  12.221  18.395  0.00  0.00    +0.000 A 
ATOM     29  C   UNL     1      -6.426  11.074  19.045  0.00  0.00    +0.000 A 
ATOM     30  N   UNL     1      -5.415  10.504  18.382  0.00  0.00    +0.000 NA
ENDBRANCH  25  26
ENDBRANCH  22  25
ENDBRANCH  18  19
ENDBRANCH   3  18
TORSDOF 6
ENDMDL
MODEL 7
REMARK VINA RESULT:      -8.3      2.778      9.719
REMARK  Name = 
REMARK  6 active torsions:
REMARK  status: ('A' for Active; 'I' for Inactive)
REMARK    1  A    between atoms: C_2  and  C_17
REMARK    2  A    between atoms: N_3  and  C_4
REMARK    3  A    between atoms: C_4  and  C_5
REMARK    4  A    between atoms: C_8  and  C_9
REMARK    5  A    between atoms: C_9  and  N_10
REMARK    6  A    between atoms: C_19  and  C_20
REMARK                            x       y       z     vdW  Elec       q    Type
REMARK                         _______ _______ _______ _____ _____    ______ ____
ROOT
ATOM      1  O   UNL     1      -1.019  13.426  18.992  0.00  0.00    +0.000 OA
ATOM      2  C   UNL     1      -1.540  12.408  19.434  0.00  0.00    +0.000 C 
ATOM      3  N   UNL     1      -0.865  11.187  19.357  0.00  0.00    +0.000 N 
ATOM      4  H   UNL     1      -1.177  10.376  19.858  0.00  0.00    +0.000 HD
ENDROOT
BRANCH   2   5
ATOM      5  C   UNL     1      -2.920  12.413  20.074  0.00  0.00    +0.000 A 
ATOM      6  C   UNL     1      -3.046  12.719  21.439  0.00  0.00    +0.000 A 
ATOM      7  C   UNL     1      -4.294  12.775  22.045  0.00  0.00    +0.000 A 
ATOM      8  N   UNL     1      -5.398  12.391  21.377  0.00  0.00    +0.000 NA
ATOM      9  C   UNL     1      -5.299  11.990  20.105  0.00  0.00    +0.000 A 
ATOM     10  C   UNL     1      -6.452  11.460  19.544  0.00  0.00    +0.000 A 
ATOM     11  C   UNL     1      -6.485  10.991  18.233  0.00  0.00    +0.000 A 
ATOM     12  C   UNL     1      -5.368  11.155  17.434  0.00  0.00    +0.000 A 
ATOM     13  C   UNL     1      -4.202  11.701  17.976  0.00  0.00    +0.000 A 
ATOM     14  C   UNL     1      -4.103  12.050  19.353  0.00  0.00    +0.000 A 
BRANCH   7  15
ATOM     15  C   UNL     1      -4.450  13.333  23.439  0.00  0.00    +0.000 C 
ATOM     16  C   UNL     1      -3.299  13.332  24.412  0.00  0.00    +0.000 C 
ATOM     17  C   UNL     1      -4.465  12.415  24.639  0.00  0.00    +0.000 C 
ENDBRANCH   7  15
ENDBRANCH   2   5
BRANCH   3  18
ATOM     18  C   UNL     1       0.462  11.099  18.782  0.00  0.00    +0.000 C 
BRANCH  18  19
ATOM     19  C   UNL     1       1.087   9.741  19.029  0.00  0.00    +0.000 A 
ATOM     20  C   UNL     1       1.035   9.146  20.298  0.00  0.00    +0.000 A 
ATOM     21  C   UNL     1       1.613   7.886  20.525  0.00  0.00    +0.000 A 
ATOM     22  C   UNL     1       2.266   7.197  19.491  0.00  0.00    +0.000 A 
ATOM     23  C   UNL     1       2.315   7.793  18.223  0.00  0.00    +0.000 A 
ATOM     24  C   UNL     1       1.742   9.051  18.000  0.00  0.00    +0.000 A 
BRANCH  22  25
ATOM     25  C   UNL     1       2.931   5.863  19.743  0.00  0.00    +0.000 C 
BRANCH  25  26
ATOM     26  N   UNL     1       2.080   4.716  19.450  0.00  0.00    +0.000 N 
ATOM     27  C   UNL     1       1.230   4.080  20.315  0.00  0.00    +0.000 A 
ATOM     28  C   UNL     1       0.779   2.959  19.658  0.00  0.00    +0.000 A 
ATOM     29  C   UNL     1       1.429   2.989  18.413  0.00  0.00    +0.000 A 
ATOM     30  N   UNL     1       2.230   4.051  18.282  0.00  0.00    +0.000 NA
ENDBRANCH  25  26
ENDBRANCH  22  25
ENDBRANCH  18  19
ENDBRANCH   3  18
TORSDOF 6
ENDMDL
MODEL 8
REMARK VINA RESULT:      -8.3      2.260      9.524
REMARK  Name = 
REMARK  6 active torsions:
REMARK  status: ('A' for Active; 'I' for Inactive)
REMARK    1  A    between atoms: C_2  and  C_17
REMARK    2  A    between atoms: N_3  and  C_4
REMARK    3  A    between atoms: C_4  and  C_5
REMARK    4  A    between atoms: C_8  and  C_9
REMARK    5  A    between atoms: C_9  and  N_10
REMARK    6  A    between atoms: C_19  and  C_20
REMARK                            x       y       z     vdW  Elec       q    Type
REMARK                         _______ _______ _______ _____ _____    ______ ____
ROOT
ATOM      1  O   UNL     1      -0.426   9.122  21.555  0.00  0.00    +0.000 OA
ATOM      2  C   UNL     1       0.128   9.437  20.506  0.00  0.00    +0.000 C 
ATOM      3  N   UNL     1       1.239   8.719  20.060  0.00  0.00    +0.000 N 
ATOM      4  H   UNL     1       1.607   8.832  19.133  0.00  0.00    +0.000 HD
ENDROOT
BRANCH   2   5
ATOM      5  C   UNL     1      -0.348  10.604  19.654  0.00  0.00    +0.000 A 
ATOM      6  C   UNL     1      -1.307  10.379  18.652  0.00  0.00    +0.000 A 
ATOM      7  C   UNL     1      -1.796  11.428  17.885  0.00  0.00    +0.000 A 
ATOM      8  N   UNL     1      -1.254  12.657  17.981  0.00  0.00    +0.000 NA
ATOM      9  C   UNL     1      -0.264  12.881  18.851  0.00  0.00    +0.000 A 
ATOM     10  C   UNL     1       0.345  14.126  18.773  0.00  0.00    +0.000 A 
ATOM     11  C   UNL     1       1.397  14.486  19.609  0.00  0.00    +0.000 A 
ATOM     12  C   UNL     1       1.779  13.618  20.617  0.00  0.00    +0.000 A 
ATOM     13  C   UNL     1       1.168  12.367  20.723  0.00  0.00    +0.000 A 
ATOM     14  C   UNL     1       0.192  11.923  19.786  0.00  0.00    +0.000 A 
BRANCH   7  15
ATOM     15  C   UNL     1      -2.988  11.232  16.980  0.00  0.00    +0.000 C 
ATOM     16  C   UNL     1      -3.383   9.860  16.500  0.00  0.00    +0.000 C 
ATOM     17  C   UNL     1      -2.800  10.846  15.532  0.00  0.00    +0.000 C 
ENDBRANCH   7  15
ENDBRANCH   2   5
BRANCH   3  18
ATOM     18  C   UNL     1       1.744   7.580  20.800  0.00  0.00    +0.000 C 
BRANCH  18  19
ATOM     19  C   UNL     1       2.325   6.528  19.878  0.00  0.00    +0.000 A 
ATOM     20  C   UNL     1       2.372   5.182  20.264  0.00  0.00    +0.000 A 
ATOM     21  C   UNL     1       2.909   4.206  19.407  0.00  0.00    +0.000 A 
ATOM     22  C   UNL     1       3.421   4.559  18.148  0.00  0.00    +0.000 A 
ATOM     23  C   UNL     1       3.371   5.906  17.764  0.00  0.00    +0.000 A 
ATOM     24  C   UNL     1       2.839   6.877  18.621  0.00  0.00    +0.000 A 
BRANCH  22  25
ATOM     25  C   UNL     1       4.044   3.520  17.243  0.00  0.00    +0.000 C 
BRANCH  25  26
ATOM     26  N   UNL     1       5.298   3.948  16.632  0.00  0.00    +0.000 N 
ATOM     27  C   UNL     1       6.434   4.351  17.282  0.00  0.00    +0.000 A 
ATOM     28  C   UNL     1       7.285   4.825  16.312  0.00  0.00    +0.000 A 
ATOM     29  C   UNL     1       6.569   4.690  15.110  0.00  0.00    +0.000 A 
ATOM     30  N   UNL     1       5.354   4.165  15.298  0.00  0.00    +0.000 NA
ENDBRANCH  25  26
ENDBRANCH  22  25
ENDBRANCH  18  19
ENDBRANCH   3  18
TORSDOF 6
ENDMDL
MODEL 9
REMARK VINA RESULT:      -8.3      3.352      4.059
REMARK  Name = 
REMARK  6 active torsions:
REMARK  status: ('A' for Active; 'I' for Inactive)
REMARK    1  A    between atoms: C_2  and  C_17
REMARK    2  A    between atoms: N_3  and  C_4
REMARK    3  A    between atoms: C_4  and  C_5
REMARK    4  A    between atoms: C_8  and  C_9
REMARK    5  A    between atoms: C_9  and  N_10
REMARK    6  A    between atoms: C_19  and  C_20
REMARK                            x       y       z     vdW  Elec       q    Type
REMARK                         _______ _______ _______ _____ _____    ______ ____
ROOT
ATOM      1  O   UNL     1       4.081   8.314  17.438  0.00  0.00    +0.000 OA
ATOM      2  C   UNL     1       3.251   7.448  17.698  0.00  0.00    +0.000 C 
ATOM      3  N   UNL     1       1.953   7.812  18.061  0.00  0.00    +0.000 N 
ATOM      4  H   UNL     1       1.207   7.141  18.108  0.00  0.00    +0.000 HD
ENDROOT
BRANCH   2   5
ATOM      5  C   UNL     1       3.581   5.964  17.646  0.00  0.00    +0.000 A 
ATOM      6  C   UNL     1       4.483   5.492  16.677  0.00  0.00    +0.000 A 
ATOM      7  C   UNL     1       4.840   4.151  16.629  0.00  0.00    +0.000 A 
ATOM      8  N   UNL     1       4.218   3.248  17.410  0.00  0.00    +0.000 NA
ATOM      9  C   UNL     1       3.275   3.650  18.269  0.00  0.00    +0.000 A 
ATOM     10  C   UNL     1       2.574   2.642  18.916  0.00  0.00    +0.000 A 
ATOM     11  C   UNL     1       1.557   2.920  19.826  0.00  0.00    +0.000 A 
ATOM     12  C   UNL     1       1.309   4.236  20.174  0.00  0.00    +0.000 A 
ATOM     13  C   UNL     1       2.017   5.264  19.545  0.00  0.00    +0.000 A 
ATOM     14  C   UNL     1       2.956   5.007  18.507  0.00  0.00    +0.000 A 
BRANCH   7  15
ATOM     15  C   UNL     1       5.979   3.688  15.753  0.00  0.00    +0.000 C 
ATOM     16  C   UNL     1       7.013   4.657  15.242  0.00  0.00    +0.000 C 
ATOM     17  C   UNL     1       6.023   4.055  14.288  0.00  0.00    +0.000 C 
ENDBRANCH   7  15
ENDBRANCH   2   5
BRANCH   3  18
ATOM     18  C   UNL     1       1.549   9.202  18.113  0.00  0.00    +0.000 C 
BRANCH  18  19
ATOM     19  C   UNL     1       0.866   9.535  19.423  0.00  0.00    +0.000 A 
ATOM     20  C   UNL     1      -0.095  10.554  19.494  0.00  0.00    +0.000 A 
ATOM     21  C   UNL     1      -0.730  10.861  20.709  0.00  0.00    +0.000 A 
ATOM     22  C   UNL     1      -0.409  10.163  21.884  0.00  0.00    +0.000 A 
ATOM     23  C   UNL     1       0.550   9.143  21.811  0.00  0.00    +0.000 A 
ATOM     24  C   UNL     1       1.185   8.842  20.599  0.00  0.00    +0.000 A 
BRANCH  22  25
ATOM     25  C   UNL     1      -1.054  10.522  23.204  0.00  0.00    +0.000 C 
BRANCH  25  26
ATOM     26  N   UNL     1      -1.491  11.911  23.287  0.00  0.00    +0.000 N 
ATOM     27  C   UNL     1      -2.781  12.369  23.280  0.00  0.00    +0.000 A 
ATOM     28  C   UNL     1      -2.703  13.739  23.196  0.00  0.00    +0.000 A 
ATOM     29  C   UNL     1      -1.327  14.016  23.133  0.00  0.00    +0.000 A 
ATOM     30  N   UNL     1      -0.582  12.907  23.178  0.00  0.00    +0.000 NA
ENDBRANCH  25  26
ENDBRANCH  22  25
ENDBRANCH  18  19
ENDBRANCH   3  18
TORSDOF 6
ENDMDL
