MODEL 1
REMARK VINA RESULT:      -7.9      0.000      0.000
REMARK  Name = 
REMARK  3 active torsions:
REMARK  status: ('A' for Active; 'I' for Inactive)
REMARK    1  A    between atoms: C_2  and  C_16
REMARK    2  A    between atoms: N_3  and  C_4
REMARK    3  A    between atoms: C_7  and  N_8
REMARK                            x       y       z     vdW  Elec       q    Type
REMARK                         _______ _______ _______ _____ _____    ______ ____
ROOT
ATOM      1  O   UNL     1       1.537   5.555  20.584  0.00  0.00    +0.000 OA
ATOM      2  C   UNL     1       2.160   6.169  19.726  0.00  0.00    +0.000 C 
ATOM      3  N   UNL     1       2.241   7.538  19.574  0.00  0.00    +0.000 N 
ATOM      4  H   UNL     1       2.824   7.837  18.794  0.00  0.00    +0.000 HD
ENDROOT
BRANCH   2   5
ATOM      5  C   UNL     1       2.925   5.407  18.685  0.00  0.00    +0.000 A 
ATOM      6  C   UNL     1       2.929   4.022  18.733  0.00  0.00    +0.000 A 
ATOM      7  C   UNL     1       3.705   3.341  17.807  0.00  0.00    +0.000 A 
ATOM      8  C   UNL     1       4.499   4.062  16.910  0.00  0.00    +0.000 A 
ATOM      9  C   UNL     1       5.412   3.406  16.070  0.00  0.00    +0.000 A 
ATOM     10  C   UNL     1       6.245   4.141  15.232  0.00  0.00    +0.000 A 
ATOM     11  C   UNL     1       6.127   5.524  15.188  0.00  0.00    +0.000 A 
ATOM     12  C   UNL     1       5.195   6.173  16.006  0.00  0.00    +0.000 A 
ATOM     13  C   UNL     1       4.397   5.473  16.903  0.00  0.00    +0.000 A 
ATOM     14  N   UNL     1       3.596   6.144  17.754  0.00  0.00    +0.000 NA
ENDBRANCH   2   5
BRANCH   3  15
ATOM     15  C   UNL     1       1.568   8.525  20.310  0.00  0.00    +0.000 A 
ATOM     16  C   UNL     1       1.466   8.539  21.701  0.00  0.00    +0.000 A 
ATOM     17  C   UNL     1       0.733   9.541  22.358  0.00  0.00    +0.000 A 
ATOM     18  C   UNL     1       0.059  10.538  21.644  0.00  0.00    +0.000 A 
ATOM     19  C   UNL     1       0.184  10.524  20.248  0.00  0.00    +0.000 A 
ATOM     20  C   UNL     1       0.934   9.539  19.591  0.00  0.00    +0.000 A 
BRANCH  18  21
ATOM     21  N   UNL     1      -0.750  11.516  22.288  0.00  0.00    +0.000 N 
ATOM     22  C   UNL     1      -1.883  11.156  23.110  0.00  0.00    +0.000 C 
ATOM     23  C   UNL     1      -2.578  12.465  23.410  0.00  0.00    +0.000 C 
ATOM     24  C   UNL     1      -1.458  13.485  23.374  0.00  0.00    +0.000 C 
ATOM     25  C   UNL     1      -0.461  12.885  22.413  0.00  0.00    +0.000 C 
ATOM     26  O   UNL     1       0.435  13.540  21.901  0.00  0.00    +0.000 OA
ENDBRANCH  18  21
ENDBRANCH   3  15
TORSDOF 3
ENDMDL
MODEL 2
REMARK VINA RESULT:      -7.7      2.011      9.803
REMARK  Name = 
REMARK  3 active torsions:
REMARK  status: ('A' for Active; 'I' for Inactive)
REMARK    1  A    between atoms: C_2  and  C_16
REMARK    2  A    between atoms: N_3  and  C_4
REMARK    3  A    between atoms: C_7  and  N_8
REMARK                            x       y       z     vdW  Elec       q    Type
REMARK                         _______ _______ _______ _____ _____    ______ ____
ROOT
ATOM      1  O   UNL     1       1.346  11.400  21.471  0.00  0.00    +0.000 OA
ATOM      2  C   UNL     1       0.260  10.931  21.151  0.00  0.00    +0.000 C 
ATOM      3  N   UNL     1       0.030   9.839  20.340  0.00  0.00    +0.000 N 
ATOM      4  H   UNL     1      -0.955   9.615  20.211  0.00  0.00    +0.000 HD
ENDROOT
BRANCH   2   5
ATOM      5  C   UNL     1      -0.997  11.581  21.646  0.00  0.00    +0.000 A 
ATOM      6  C   UNL     1      -1.265  11.579  23.006  0.00  0.00    +0.000 A 
ATOM      7  C   UNL     1      -2.470  12.118  23.433  0.00  0.00    +0.000 A 
ATOM      8  C   UNL     1      -3.391  12.579  22.488  0.00  0.00    +0.000 A 
ATOM      9  C   UNL     1      -4.679  12.982  22.877  0.00  0.00    +0.000 A 
ATOM     10  C   UNL     1      -5.609  13.373  21.920  0.00  0.00    +0.000 A 
ATOM     11  C   UNL     1      -5.238  13.420  20.582  0.00  0.00    +0.000 A 
ATOM     12  C   UNL     1      -3.944  13.045  20.201  0.00  0.00    +0.000 A 
ATOM     13  C   UNL     1      -3.014  12.585  21.125  0.00  0.00    +0.000 A 
ATOM     14  N   UNL     1      -1.820  12.125  20.704  0.00  0.00    +0.000 NA
ENDBRANCH   2   5
BRANCH   3  15
ATOM     15  C   UNL     1       0.976   9.075  19.639  0.00  0.00    +0.000 A 
ATOM     16  C   UNL     1       1.377   9.328  18.327  0.00  0.00    +0.000 A 
ATOM     17  C   UNL     1       2.297   8.486  17.681  0.00  0.00    +0.000 A 
ATOM     18  C   UNL     1       2.819   7.353  18.317  0.00  0.00    +0.000 A 
ATOM     19  C   UNL     1       2.423   7.121  19.641  0.00  0.00    +0.000 A 
ATOM     20  C   UNL     1       1.524   7.973  20.296  0.00  0.00    +0.000 A 
BRANCH  18  21
ATOM     21  N   UNL     1       3.693   6.448  17.653  0.00  0.00    +0.000 N 
ATOM     22  C   UNL     1       5.029   6.822  17.251  0.00  0.00    +0.000 C 
ATOM     23  C   UNL     1       5.519   5.670  16.403  0.00  0.00    +0.000 C 
ATOM     24  C   UNL     1       4.777   4.472  16.960  0.00  0.00    +0.000 C 
ATOM     25  C   UNL     1       3.498   5.064  17.499  0.00  0.00    +0.000 C 
ATOM     26  O   UNL     1       2.517   4.383  17.762  0.00  0.00    +0.000 OA
ENDBRANCH  18  21
ENDBRANCH   3  15
TORSDOF 3
ENDMDL
MODEL 3
REMARK VINA RESULT:      -7.7      1.715      2.668
REMARK  Name = 
REMARK  3 active torsions:
REMARK  status: ('A' for Active; 'I' for Inactive)
REMARK    1  A    between atoms: C_2  and  C_16
REMARK    2  A    between atoms: N_3  and  C_4
REMARK    3  A    between atoms: C_7  and  N_8
REMARK                            x       y       z     vdW  Elec       q    Type
REMARK                         _______ _______ _______ _____ _____    ______ ____
ROOT
ATOM      1  O   UNL     1       1.895   9.329  18.521  0.00  0.00    +0.000 OA
ATOM      2  C   UNL     1       1.824   8.344  19.246  0.00  0.00    +0.000 C 
ATOM      3  N   UNL     1       1.165   8.244  20.454  0.00  0.00    +0.000 N 
ATOM      4  H   UNL     1       1.228   7.325  20.889  0.00  0.00    +0.000 HD
ENDROOT
BRANCH   2   5
ATOM      5  C   UNL     1       2.525   7.081  18.844  0.00  0.00    +0.000 A 
ATOM      6  C   UNL     1       3.472   7.131  17.833  0.00  0.00    +0.000 A 
ATOM      7  C   UNL     1       4.052   5.938  17.425  0.00  0.00    +0.000 A 
ATOM      8  C   UNL     1       3.622   4.734  17.991  0.00  0.00    +0.000 A 
ATOM      9  C   UNL     1       4.073   3.503  17.490  0.00  0.00    +0.000 A 
ATOM     10  C   UNL     1       3.585   2.312  18.017  0.00  0.00    +0.000 A 
ATOM     11  C   UNL     1       2.694   2.347  19.082  0.00  0.00    +0.000 A 
ATOM     12  C   UNL     1       2.268   3.576  19.598  0.00  0.00    +0.000 A 
ATOM     13  C   UNL     1       2.685   4.783  19.049  0.00  0.00    +0.000 A 
ATOM     14  N   UNL     1       2.163   5.941  19.499  0.00  0.00    +0.000 NA
ENDBRANCH   2   5
BRANCH   3  15
ATOM     15  C   UNL     1       0.502   9.261  21.159  0.00  0.00    +0.000 A 
ATOM     16  C   UNL     1       0.188   9.204  22.516  0.00  0.00    +0.000 A 
ATOM     17  C   UNL     1      -0.519  10.248  23.135  0.00  0.00    +0.000 A 
ATOM     18  C   UNL     1      -0.957  11.362  22.410  0.00  0.00    +0.000 A 
ATOM     19  C   UNL     1      -0.620  11.416  21.051  0.00  0.00    +0.000 A 
ATOM     20  C   UNL     1       0.107  10.387  20.435  0.00  0.00    +0.000 A 
BRANCH  18  21
ATOM     21  N   UNL     1      -1.740  12.392  23.002  0.00  0.00    +0.000 N 
ATOM     22  C   UNL     1      -3.051  12.140  23.556  0.00  0.00    +0.000 C 
ATOM     23  C   UNL     1      -3.610  13.509  23.871  0.00  0.00    +0.000 C 
ATOM     24  C   UNL     1      -2.380  14.344  24.159  0.00  0.00    +0.000 C 
ATOM     25  C   UNL     1      -1.301  13.685  23.335  0.00  0.00    +0.000 C 
ATOM     26  O   UNL     1      -0.242  14.237  23.075  0.00  0.00    +0.000 OA
ENDBRANCH  18  21
ENDBRANCH   3  15
TORSDOF 3
ENDMDL
MODEL 4
REMARK VINA RESULT:      -7.7      2.440      3.662
REMARK  Name = 
REMARK  3 active torsions:
REMARK  status: ('A' for Active; 'I' for Inactive)
REMARK    1  A    between atoms: C_2  and  C_16
REMARK    2  A    between atoms: N_3  and  C_4
REMARK    3  A    between atoms: C_7  and  N_8
REMARK                            x       y       z     vdW  Elec       q    Type
REMARK                         _______ _______ _______ _____ _____    ______ ____
ROOT
ATOM      1  O   UNL     1       2.066   8.337  22.092  0.00  0.00    +0.000 OA
ATOM      2  C   UNL     1       1.463   8.155  21.041  0.00  0.00    +0.000 C 
ATOM      3  N   UNL     1       0.397   8.884  20.554  0.00  0.00    +0.000 N 
ATOM      4  H   UNL     1       0.051   8.565  19.652  0.00  0.00    +0.000 HD
ENDROOT
BRANCH   2   5
ATOM      5  C   UNL     1       1.865   7.020  20.147  0.00  0.00    +0.000 A 
ATOM      6  C   UNL     1       2.458   7.303  18.927  0.00  0.00    +0.000 A 
ATOM      7  C   UNL     1       2.752   6.241  18.084  0.00  0.00    +0.000 A 
ATOM      8  C   UNL     1       2.387   4.944  18.458  0.00  0.00    +0.000 A 
ATOM      9  C   UNL     1       2.526   3.872  17.563  0.00  0.00    +0.000 A 
ATOM     10  C   UNL     1       2.094   2.599  17.922  0.00  0.00    +0.000 A 
ATOM     11  C   UNL     1       1.580   2.383  19.194  0.00  0.00    +0.000 A 
ATOM     12  C   UNL     1       1.469   3.448  20.094  0.00  0.00    +0.000 A 
ATOM     13  C   UNL     1       1.828   4.744  19.742  0.00  0.00    +0.000 A 
ATOM     14  N   UNL     1       1.598   5.760  20.596  0.00  0.00    +0.000 NA
ENDBRANCH   2   5
BRANCH   3  15
ATOM     15  C   UNL     1      -0.284   9.937  21.187  0.00  0.00    +0.000 A 
ATOM     16  C   UNL     1      -0.605  11.148  20.574  0.00  0.00    +0.000 A 
ATOM     17  C   UNL     1      -1.248  12.169  21.292  0.00  0.00    +0.000 A 
ATOM     18  C   UNL     1      -1.561  12.020  22.648  0.00  0.00    +0.000 A 
ATOM     19  C   UNL     1      -1.250  10.792  23.248  0.00  0.00    +0.000 A 
ATOM     20  C   UNL     1      -0.630   9.762  22.527  0.00  0.00    +0.000 A 
BRANCH  18  21
ATOM     21  N   UNL     1      -2.143  13.071  23.411  0.00  0.00    +0.000 N 
ATOM     22  C   UNL     1      -1.425  14.287  23.719  0.00  0.00    +0.000 C 
ATOM     23  C   UNL     1      -2.303  15.018  24.709  0.00  0.00    +0.000 C 
ATOM     24  C   UNL     1      -3.704  14.567  24.350  0.00  0.00    +0.000 C 
ATOM     25  C   UNL     1      -3.497  13.190  23.767  0.00  0.00    +0.000 C 
ATOM     26  O   UNL     1      -4.410  12.389  23.631  0.00  0.00    +0.000 OA
ENDBRANCH  18  21
ENDBRANCH   3  15
TORSDOF 3
ENDMDL
MODEL 5
REMARK VINA RESULT:      -7.7      1.928      3.156
REMARK  Name = 
REMARK  3 active torsions:
REMARK  status: ('A' for Active; 'I' for Inactive)
REMARK    1  A    between atoms: C_2  and  C_16
REMARK    2  A    between atoms: N_3  and  C_4
REMARK    3  A    between atoms: C_7  and  N_8
REMARK                            x       y       z     vdW  Elec       q    Type
REMARK                         _______ _______ _______ _____ _____    ______ ____
ROOT
ATOM      1  O   UNL     1       1.163   9.700  18.333  0.00  0.00    +0.000 OA
ATOM      2  C   UNL     1       1.372   8.873  19.213  0.00  0.00    +0.000 C 
ATOM      3  N   UNL     1       0.858   8.868  20.493  0.00  0.00    +0.000 N 
ATOM      4  H   UNL     1       1.158   8.077  21.060  0.00  0.00    +0.000 HD
ENDROOT
BRANCH   2   5
ATOM      5  C   UNL     1       2.295   7.723  18.937  0.00  0.00    +0.000 A 
ATOM      6  C   UNL     1       3.126   7.778  17.829  0.00  0.00    +0.000 A 
ATOM      7  C   UNL     1       3.915   6.670  17.551  0.00  0.00    +0.000 A 
ATOM      8  C   UNL     1       3.800   5.527  18.347  0.00  0.00    +0.000 A 
ATOM      9  C   UNL     1       4.465   4.340  18.000  0.00  0.00    +0.000 A 
ATOM     10  C   UNL     1       4.288   3.189  18.761  0.00  0.00    +0.000 A 
ATOM     11  C   UNL     1       3.497   3.237  19.902  0.00  0.00    +0.000 A 
ATOM     12  C   UNL     1       2.859   4.430  20.262  0.00  0.00    +0.000 A 
ATOM     13  C   UNL     1       2.961   5.577  19.485  0.00  0.00    +0.000 A 
ATOM     14  N   UNL     1       2.240   6.669  19.803  0.00  0.00    +0.000 NA
ENDBRANCH   2   5
BRANCH   3  15
ATOM     15  C   UNL     1       0.052   9.846  21.098  0.00  0.00    +0.000 A 
ATOM     16  C   UNL     1      -0.429  10.983  20.450  0.00  0.00    +0.000 A 
ATOM     17  C   UNL     1      -1.192  11.936  21.142  0.00  0.00    +0.000 A 
ATOM     18  C   UNL     1      -1.471  11.796  22.506  0.00  0.00    +0.000 A 
ATOM     19  C   UNL     1      -0.998  10.640  23.142  0.00  0.00    +0.000 A 
ATOM     20  C   UNL     1      -0.257   9.674  22.448  0.00  0.00    +0.000 A 
BRANCH  18  21
ATOM     21  N   UNL     1      -2.177  12.789  23.241  0.00  0.00    +0.000 N 
ATOM     22  C   UNL     1      -3.501  12.556  23.773  0.00  0.00    +0.000 C 
ATOM     23  C   UNL     1      -3.962  13.906  24.275  0.00  0.00    +0.000 C 
ATOM     24  C   UNL     1      -2.675  14.607  24.657  0.00  0.00    +0.000 C 
ATOM     25  C   UNL     1      -1.647  13.992  23.738  0.00  0.00    +0.000 C 
ATOM     26  O   UNL     1      -0.552  14.498  23.541  0.00  0.00    +0.000 OA
ENDBRANCH  18  21
ENDBRANCH   3  15
TORSDOF 3
ENDMDL
MODEL 6
REMARK VINA RESULT:      -7.7      1.853      2.629
REMARK  Name = 
REMARK  3 active torsions:
REMARK  status: ('A' for Active; 'I' for Inactive)
REMARK    1  A    between atoms: C_2  and  C_16
REMARK    2  A    between atoms: N_3  and  C_4
REMARK    3  A    between atoms: C_7  and  N_8
REMARK                            x       y       z     vdW  Elec       q    Type
REMARK                         _______ _______ _______ _____ _____    ______ ____
ROOT
ATOM      1  O   UNL     1       1.508   9.628  18.316  0.00  0.00    +0.000 OA
ATOM      2  C   UNL     1       1.629   8.757  19.169  0.00  0.00    +0.000 C 
ATOM      3  N   UNL     1       1.086   8.751  20.437  0.00  0.00    +0.000 N 
ATOM      4  H   UNL     1       1.307   7.919  20.982  0.00  0.00    +0.000 HD
ENDROOT
BRANCH   2   5
ATOM      5  C   UNL     1       2.461   7.545  18.871  0.00  0.00    +0.000 A 
ATOM      6  C   UNL     1       2.445   6.483  19.762  0.00  0.00    +0.000 A 
ATOM      7  C   UNL     1       3.280   5.406  19.505  0.00  0.00    +0.000 A 
ATOM      8  C   UNL     1       4.148   5.453  18.410  0.00  0.00    +0.000 A 
ATOM      9  C   UNL     1       5.113   4.453  18.214  0.00  0.00    +0.000 A 
ATOM     10  C   UNL     1       6.016   4.547  17.160  0.00  0.00    +0.000 A 
ATOM     11  C   UNL     1       5.917   5.606  16.265  0.00  0.00    +0.000 A 
ATOM     12  C   UNL     1       4.934   6.586  16.446  0.00  0.00    +0.000 A 
ATOM     13  C   UNL     1       4.063   6.556  17.528  0.00  0.00    +0.000 A 
ATOM     14  N   UNL     1       3.209   7.578  17.730  0.00  0.00    +0.000 NA
ENDBRANCH   2   5
BRANCH   3  15
ATOM     15  C   UNL     1       0.349   9.770  21.061  0.00  0.00    +0.000 A 
ATOM     16  C   UNL     1       0.039  10.994  20.468  0.00  0.00    +0.000 A 
ATOM     17  C   UNL     1      -0.665  11.979  21.180  0.00  0.00    +0.000 A 
ATOM     18  C   UNL     1      -1.052  11.781  22.510  0.00  0.00    +0.000 A 
ATOM     19  C   UNL     1      -0.752  10.540  23.088  0.00  0.00    +0.000 A 
ATOM     20  C   UNL     1      -0.070   9.546  22.373  0.00  0.00    +0.000 A 
BRANCH  18  21
ATOM     21  N   UNL     1      -1.698  12.796  23.270  0.00  0.00    +0.000 N 
ATOM     22  C   UNL     1      -1.131  14.115  23.431  0.00  0.00    +0.000 C 
ATOM     23  C   UNL     1      -2.002  14.790  24.466  0.00  0.00    +0.000 C 
ATOM     24  C   UNL     1      -3.355  14.133  24.283  0.00  0.00    +0.000 C 
ATOM     25  C   UNL     1      -3.015  12.759  23.759  0.00  0.00    +0.000 C 
ATOM     26  O   UNL     1      -3.817  11.836  23.765  0.00  0.00    +0.000 OA
ENDBRANCH  18  21
ENDBRANCH   3  15
TORSDOF 3
ENDMDL
MODEL 7
REMARK VINA RESULT:      -7.7      1.873      9.886
REMARK  Name = 
REMARK  3 active torsions:
REMARK  status: ('A' for Active; 'I' for Inactive)
REMARK    1  A    between atoms: C_2  and  C_16
REMARK    2  A    between atoms: N_3  and  C_4
REMARK    3  A    between atoms: C_7  and  N_8
REMARK                            x       y       z     vdW  Elec       q    Type
REMARK                         _______ _______ _______ _____ _____    ______ ____
ROOT
ATOM      1  O   UNL     1      -1.183  10.137  19.273  0.00  0.00    +0.000 OA
ATOM      2  C   UNL     1      -0.343  10.553  20.063  0.00  0.00    +0.000 C 
ATOM      3  N   UNL     1       0.940  10.079  20.242  0.00  0.00    +0.000 N 
ATOM      4  H   UNL     1       1.475  10.579  20.950  0.00  0.00    +0.000 HD
ENDROOT
BRANCH   2   5
ATOM      5  C   UNL     1      -0.691  11.690  20.977  0.00  0.00    +0.000 A 
ATOM      6  C   UNL     1       0.238  12.699  21.178  0.00  0.00    +0.000 A 
ATOM      7  C   UNL     1      -0.075  13.700  22.087  0.00  0.00    +0.000 A 
ATOM      8  C   UNL     1      -1.270  13.625  22.809  0.00  0.00    +0.000 A 
ATOM      9  C   UNL     1      -1.542  14.532  23.845  0.00  0.00    +0.000 A 
ATOM     10  C   UNL     1      -2.702  14.404  24.602  0.00  0.00    +0.000 A 
ATOM     11  C   UNL     1      -3.620  13.410  24.288  0.00  0.00    +0.000 A 
ATOM     12  C   UNL     1      -3.359  12.525  23.235  0.00  0.00    +0.000 A 
ATOM     13  C   UNL     1      -2.179  12.584  22.505  0.00  0.00    +0.000 A 
ATOM     14  N   UNL     1      -1.915  11.643  21.578  0.00  0.00    +0.000 NA
ENDBRANCH   2   5
BRANCH   3  15
ATOM     15  C   UNL     1       1.540   8.969  19.624  0.00  0.00    +0.000 A 
ATOM     16  C   UNL     1       1.928   8.927  18.286  0.00  0.00    +0.000 A 
ATOM     17  C   UNL     1       2.480   7.760  17.734  0.00  0.00    +0.000 A 
ATOM     18  C   UNL     1       2.633   6.595  18.495  0.00  0.00    +0.000 A 
ATOM     19  C   UNL     1       2.256   6.656  19.843  0.00  0.00    +0.000 A 
ATOM     20  C   UNL     1       1.727   7.827  20.403  0.00  0.00    +0.000 A 
BRANCH  18  21
ATOM     21  N   UNL     1       3.119   5.382  17.933  0.00  0.00    +0.000 N 
ATOM     22  C   UNL     1       4.530   5.076  17.865  0.00  0.00    +0.000 C 
ATOM     23  C   UNL     1       4.618   3.827  17.017  0.00  0.00    +0.000 C 
ATOM     24  C   UNL     1       3.299   3.126  17.269  0.00  0.00    +0.000 C 
ATOM     25  C   UNL     1       2.350   4.256  17.589  0.00  0.00    +0.000 C 
ATOM     26  O   UNL     1       1.135   4.123  17.564  0.00  0.00    +0.000 OA
ENDBRANCH  18  21
ENDBRANCH   3  15
TORSDOF 3
ENDMDL
MODEL 8
REMARK VINA RESULT:      -7.7      1.585      2.234
REMARK  Name = 
REMARK  3 active torsions:
REMARK  status: ('A' for Active; 'I' for Inactive)
REMARK    1  A    between atoms: C_2  and  C_16
REMARK    2  A    between atoms: N_3  and  C_4
REMARK    3  A    between atoms: C_7  and  N_8
REMARK                            x       y       z     vdW  Elec       q    Type
REMARK                         _______ _______ _______ _____ _____    ______ ____
ROOT
ATOM      1  O   UNL     1       1.788   9.655  18.302  0.00  0.00    +0.000 OA
ATOM      2  C   UNL     1       1.767   8.694  19.063  0.00  0.00    +0.000 C 
ATOM      3  N   UNL     1       1.048   8.574  20.235  0.00  0.00    +0.000 N 
ATOM      4  H   UNL     1       1.171   7.682  20.710  0.00  0.00    +0.000 HD
ENDROOT
BRANCH   2   5
ATOM      5  C   UNL     1       2.607   7.491  18.753  0.00  0.00    +0.000 A 
ATOM      6  C   UNL     1       2.603   6.423  19.637  0.00  0.00    +0.000 A 
ATOM      7  C   UNL     1       3.446   5.354  19.369  0.00  0.00    +0.000 A 
ATOM      8  C   UNL     1       4.308   5.415  18.270  0.00  0.00    +0.000 A 
ATOM      9  C   UNL     1       5.280   4.424  18.064  0.00  0.00    +0.000 A 
ATOM     10  C   UNL     1       6.177   4.532  17.006  0.00  0.00    +0.000 A 
ATOM     11  C   UNL     1       6.066   5.596  16.119  0.00  0.00    +0.000 A 
ATOM     12  C   UNL     1       5.077   6.567  16.311  0.00  0.00    +0.000 A 
ATOM     13  C   UNL     1       4.210   6.523  17.397  0.00  0.00    +0.000 A 
ATOM     14  N   UNL     1       3.349   7.537  17.610  0.00  0.00    +0.000 NA
ENDBRANCH   2   5
BRANCH   3  15
ATOM     15  C   UNL     1       0.251   9.548  20.857  0.00  0.00    +0.000 A 
ATOM     16  C   UNL     1      -0.399  10.582  20.184  0.00  0.00    +0.000 A 
ATOM     17  C   UNL     1      -1.141  11.544  20.888  0.00  0.00    +0.000 A 
ATOM     18  C   UNL     1      -1.230  11.516  22.285  0.00  0.00    +0.000 A 
ATOM     19  C   UNL     1      -0.588  10.462  22.948  0.00  0.00    +0.000 A 
ATOM     20  C   UNL     1       0.133   9.487  22.246  0.00  0.00    +0.000 A 
BRANCH  18  21
ATOM     21  N   UNL     1      -1.914  12.525  23.020  0.00  0.00    +0.000 N 
ATOM     22  C   UNL     1      -3.192  12.285  23.651  0.00  0.00    +0.000 C 
ATOM     23  C   UNL     1      -3.656  13.645  24.122  0.00  0.00    +0.000 C 
ATOM     24  C   UNL     1      -2.366  14.395  24.382  0.00  0.00    +0.000 C 
ATOM     25  C   UNL     1      -1.386  13.763  23.424  0.00  0.00    +0.000 C 
ATOM     26  O   UNL     1      -0.322  14.287  23.130  0.00  0.00    +0.000 OA
ENDBRANCH  18  21
ENDBRANCH   3  15
TORSDOF 3
ENDMDL
MODEL 9
REMARK VINA RESULT:      -7.7      2.446      3.631
REMARK  Name = 
REMARK  3 active torsions:
REMARK  status: ('A' for Active; 'I' for Inactive)
REMARK    1  A    between atoms: C_2  and  C_16
REMARK    2  A    between atoms: N_3  and  C_4
REMARK    3  A    between atoms: C_7  and  N_8
REMARK                            x       y       z     vdW  Elec       q    Type
REMARK                         _______ _______ _______ _____ _____    ______ ____
ROOT
ATOM      1  O   UNL     1       2.120   8.683  22.132  0.00  0.00    +0.000 OA
ATOM      2  C   UNL     1       1.416   8.427  21.163  0.00  0.00    +0.000 C 
ATOM      3  N   UNL     1       0.282   9.098  20.756  0.00  0.00    +0.000 N 
ATOM      4  H   UNL     1      -0.147   8.720  19.913  0.00  0.00    +0.000 HD
ENDROOT
BRANCH   2   5
ATOM      5  C   UNL     1       1.759   7.255  20.292  0.00  0.00    +0.000 A 
ATOM      6  C   UNL     1       2.356   7.483  19.062  0.00  0.00    +0.000 A 
ATOM      7  C   UNL     1       2.594   6.390  18.241  0.00  0.00    +0.000 A 
ATOM      8  C   UNL     1       2.172   5.120  18.646  0.00  0.00    +0.000 A 
ATOM      9  C   UNL     1       2.255   4.024  17.774  0.00  0.00    +0.000 A 
ATOM     10  C   UNL     1       1.768   2.780  18.163  0.00  0.00    +0.000 A 
ATOM     11  C   UNL     1       1.253   2.616  19.443  0.00  0.00    +0.000 A 
ATOM     12  C   UNL     1       1.198   3.705  20.321  0.00  0.00    +0.000 A 
ATOM     13  C   UNL     1       1.614   4.974  19.937  0.00  0.00    +0.000 A 
ATOM     14  N   UNL     1       1.437   6.018  20.770  0.00  0.00    +0.000 NA
ENDBRANCH   2   5
BRANCH   3  15
ATOM     15  C   UNL     1      -0.363  10.166  21.401  0.00  0.00    +0.000 A 
ATOM     16  C   UNL     1      -0.793  10.140  22.727  0.00  0.00    +0.000 A 
ATOM     17  C   UNL     1      -1.473  11.236  23.283  0.00  0.00    +0.000 A 
ATOM     18  C   UNL     1      -1.766  12.374  22.524  0.00  0.00    +0.000 A 
ATOM     19  C   UNL     1      -1.312  12.395  21.198  0.00  0.00    +0.000 A 
ATOM     20  C   UNL     1      -0.613  11.313  20.647  0.00  0.00    +0.000 A 
BRANCH  18  21
ATOM     21  N   UNL     1      -2.520  13.461  23.048  0.00  0.00    +0.000 N 
ATOM     22  C   UNL     1      -3.955  13.545  22.900  0.00  0.00    +0.000 C 
ATOM     23  C   UNL     1      -4.317  14.929  23.391  0.00  0.00    +0.000 C 
ATOM     24  C   UNL     1      -3.245  15.240  24.415  0.00  0.00    +0.000 C 
ATOM     25  C   UNL     1      -2.054  14.446  23.936  0.00  0.00    +0.000 C 
ATOM     26  O   UNL     1      -0.917  14.662  24.330  0.00  0.00    +0.000 OA
ENDBRANCH  18  21
ENDBRANCH   3  15
TORSDOF 3
ENDMDL
