MODEL 1
REMARK VINA RESULT:      -8.8      0.000      0.000
REMARK  Name = 
REMARK  6 active torsions:
REMARK  status: ('A' for Active; 'I' for Inactive)
REMARK    1  A    between atoms: C_1  and  C_2
REMARK    2  A    between atoms: C_5  and  S_6
REMARK    3  A    between atoms: S_6  and  C_9
REMARK    4  A    between atoms: C_9  and  C_10
REMARK    5  A    between atoms: C_12  and  C_13
REMARK    6  A    between atoms: C_29  and  C_30
REMARK                            x       y       z     vdW  Elec       q    Type
REMARK                         _______ _______ _______ _____ _____    ______ ____
ROOT
ATOM      1  C   UNL     1       3.216   4.341  18.830  0.00  0.00    +0.000 C 
ATOM      2  C   UNL     1       2.435   3.497  19.848  0.00  0.00    +0.000 C 
ATOM      3  C   UNL     1       1.164   3.034  19.130  0.00  0.00    +0.000 C 
ATOM      4  C   UNL     1       1.387   3.277  17.642  0.00  0.00    +0.000 C 
ATOM      5  C   UNL     1       2.856   3.652  17.502  0.00  0.00    +0.000 C 
ENDROOT
BRANCH   1   6
ATOM      6  C   UNL     1       2.815   5.774  18.862  0.00  0.00    +0.000 A 
ATOM      7  N   UNL     1       2.056   6.412  19.726  0.00  0.00    +0.000 NA
ATOM      8  C   UNL     1       2.054   7.703  19.238  0.00  0.00    +0.000 A 
ATOM      9  N   UNL     1       2.758   7.850  18.106  0.00  0.00    +0.000 NA
ATOM     10  O   UNL     1       3.268   6.582  17.860  0.00  0.00    +0.000 OA
BRANCH   8  11
ATOM     11  C   UNL     1       1.353   8.790  19.908  0.00  0.00    +0.000 A 
ATOM     12  C   UNL     1       1.238  10.060  19.294  0.00  0.00    +0.000 A 
ATOM     13  C   UNL     1       0.563  11.111  19.926  0.00  0.00    +0.000 A 
ATOM     14  C   UNL     1       0.019  10.864  21.165  0.00  0.00    +0.000 A 
ATOM     15  C   UNL     1       0.128   9.636  21.775  0.00  0.00    +0.000 A 
ATOM     16  C   UNL     1       0.786   8.582  21.176  0.00  0.00    +0.000 A 
ATOM     17  O   UNL     1      -0.474   9.606  22.994  0.00  0.00    +0.000 OA
ATOM     18  C   UNL     1      -0.956  10.962  23.091  0.00  0.00    +0.000 C 
ATOM     19  O   UNL     1      -0.668  11.759  21.924  0.00  0.00    +0.000 OA
ENDBRANCH   8  11
ENDBRANCH   1   6
BRANCH   1  20
ATOM     20  S   UNL     1       4.985   4.312  19.106  0.00  0.00    +0.000 S 
ATOM     21  O   UNL     1       5.367   3.011  19.623  0.00  0.00    +0.000 OA
ATOM     22  O   UNL     1       5.339   5.498  19.875  0.00  0.00    +0.000 OA
BRANCH  20  27
ATOM     23  C   UNL     1       7.532   5.214  13.646  0.00  0.00    +0.000 C 
ATOM     24  C   UNL     1       6.903   4.946  14.988  0.00  0.00    +0.000 A 
ATOM     25  C   UNL     1       7.504   5.470  16.147  0.00  0.00    +0.000 A 
ATOM     26  C   UNL     1       6.939   5.261  17.405  0.00  0.00    +0.000 A 
ATOM     27  C   UNL     1       5.774   4.500  17.519  0.00  0.00    +0.000 A 
ATOM     28  C   UNL     1       5.153   3.988  16.375  0.00  0.00    +0.000 A 
ATOM     29  C   UNL     1       5.710   4.203  15.103  0.00  0.00    +0.000 A 
ATOM     30  C   UNL     1       5.009   3.655  13.890  0.00  0.00    +0.000 C 
ENDBRANCH  20  27
ENDBRANCH   1  20
TORSDOF 4
ENDMDL
MODEL 2
REMARK VINA RESULT:      -8.8      0.609      1.257
REMARK  Name = 
REMARK  6 active torsions:
REMARK  status: ('A' for Active; 'I' for Inactive)
REMARK    1  A    between atoms: C_1  and  C_2
REMARK    2  A    between atoms: C_5  and  S_6
REMARK    3  A    between atoms: S_6  and  C_9
REMARK    4  A    between atoms: C_9  and  C_10
REMARK    5  A    between atoms: C_12  and  C_13
REMARK    6  A    between atoms: C_29  and  C_30
REMARK                            x       y       z     vdW  Elec       q    Type
REMARK                         _______ _______ _______ _____ _____    ______ ____
ROOT
ATOM      1  C   UNL     1       3.177   4.338  18.797  0.00  0.00    +0.000 C 
ATOM      2  C   UNL     1       2.399   3.402  19.734  0.00  0.00    +0.000 C 
ATOM      3  C   UNL     1       1.141   2.983  18.967  0.00  0.00    +0.000 C 
ATOM      4  C   UNL     1       1.375   3.350  17.506  0.00  0.00    +0.000 C 
ATOM      5  C   UNL     1       2.840   3.756  17.413  0.00  0.00    +0.000 C 
ENDROOT
BRANCH   1   6
ATOM      6  C   UNL     1       2.754   5.758  18.943  0.00  0.00    +0.000 A 
ATOM      7  N   UNL     1       2.120   6.346  19.933  0.00  0.00    +0.000 NA
ATOM      8  C   UNL     1       2.017   7.652  19.500  0.00  0.00    +0.000 A 
ATOM      9  N   UNL     1       2.541   7.856  18.282  0.00  0.00    +0.000 NA
ATOM     10  O   UNL     1       3.035   6.611  17.916  0.00  0.00    +0.000 OA
BRANCH   8  11
ATOM     11  C   UNL     1       1.401   8.696  20.308  0.00  0.00    +0.000 A 
ATOM     12  C   UNL     1       1.116   8.475  21.677  0.00  0.00    +0.000 A 
ATOM     13  C   UNL     1       0.529   9.472  22.464  0.00  0.00    +0.000 A 
ATOM     14  C   UNL     1       0.238  10.673  21.858  0.00  0.00    +0.000 A 
ATOM     15  C   UNL     1       0.505  10.898  20.527  0.00  0.00    +0.000 A 
ATOM     16  C   UNL     1       1.084   9.935  19.727  0.00  0.00    +0.000 A 
ATOM     17  O   UNL     1       0.136  12.144  20.128  0.00  0.00    +0.000 OA
ATOM     18  C   UNL     1      -0.414  12.670  21.353  0.00  0.00    +0.000 C 
ATOM     19  O   UNL     1      -0.330  11.750  22.461  0.00  0.00    +0.000 OA
ENDBRANCH   8  11
ENDBRANCH   1   6
BRANCH   1  20
ATOM     20  S   UNL     1       4.943   4.311  19.089  0.00  0.00    +0.000 S 
ATOM     21  O   UNL     1       5.322   3.009  19.608  0.00  0.00    +0.000 OA
ATOM     22  O   UNL     1       5.290   5.496  19.862  0.00  0.00    +0.000 OA
BRANCH  20  27
ATOM     23  C   UNL     1       7.539   5.220  13.654  0.00  0.00    +0.000 C 
ATOM     24  C   UNL     1       6.898   4.950  14.989  0.00  0.00    +0.000 A 
ATOM     25  C   UNL     1       7.493   5.464  16.155  0.00  0.00    +0.000 A 
ATOM     26  C   UNL     1       6.917   5.253  17.408  0.00  0.00    +0.000 A 
ATOM     27  C   UNL     1       5.746   4.500  17.509  0.00  0.00    +0.000 A 
ATOM     28  C   UNL     1       5.130   3.998  16.357  0.00  0.00    +0.000 A 
ATOM     29  C   UNL     1       5.699   4.215  15.091  0.00  0.00    +0.000 A 
ATOM     30  C   UNL     1       5.004   3.677  13.870  0.00  0.00    +0.000 C 
ENDBRANCH  20  27
ENDBRANCH   1  20
TORSDOF 4
ENDMDL
MODEL 3
REMARK VINA RESULT:      -8.8      2.879      9.609
REMARK  Name = 
REMARK  6 active torsions:
REMARK  status: ('A' for Active; 'I' for Inactive)
REMARK    1  A    between atoms: C_1  and  C_2
REMARK    2  A    between atoms: C_5  and  S_6
REMARK    3  A    between atoms: S_6  and  C_9
REMARK    4  A    between atoms: C_9  and  C_10
REMARK    5  A    between atoms: C_12  and  C_13
REMARK    6  A    between atoms: C_29  and  C_30
REMARK                            x       y       z     vdW  Elec       q    Type
REMARK                         _______ _______ _______ _____ _____    ______ ____
ROOT
ATOM      1  C   UNL     1       0.074  10.983  19.558  0.00  0.00    +0.000 C 
ATOM      2  C   UNL     1      -0.300  12.211  18.713  0.00  0.00    +0.000 C 
ATOM      3  C   UNL     1      -1.456  11.770  17.811  0.00  0.00    +0.000 C 
ATOM      4  C   UNL     1      -1.985  10.459  18.384  0.00  0.00    +0.000 C 
ATOM      5  C   UNL     1      -1.287  10.286  19.727  0.00  0.00    +0.000 C 
ENDROOT
BRANCH   1   6
ATOM      6  C   UNL     1       1.082  10.121  18.881  0.00  0.00    +0.000 A 
ATOM      7  N   UNL     1       1.293   8.829  18.997  0.00  0.00    +0.000 NA
ATOM      8  C   UNL     1       2.342   8.609  18.130  0.00  0.00    +0.000 A 
ATOM      9  N   UNL     1       2.780   9.724  17.524  0.00  0.00    +0.000 NA
ATOM     10  O   UNL     1       1.945  10.721  18.011  0.00  0.00    +0.000 OA
BRANCH   8  11
ATOM     11  C   UNL     1       2.903   7.284  17.901  0.00  0.00    +0.000 A 
ATOM     12  C   UNL     1       4.192   7.135  17.336  0.00  0.00    +0.000 A 
ATOM     13  C   UNL     1       4.743   5.867  17.117  0.00  0.00    +0.000 A 
ATOM     14  C   UNL     1       3.985   4.774  17.467  0.00  0.00    +0.000 A 
ATOM     15  C   UNL     1       2.729   4.906  18.012  0.00  0.00    +0.000 A 
ATOM     16  C   UNL     1       2.161   6.141  18.242  0.00  0.00    +0.000 A 
ATOM     17  O   UNL     1       2.151   3.705  18.281  0.00  0.00    +0.000 OA
ATOM     18  C   UNL     1       3.178   2.801  17.823  0.00  0.00    +0.000 C 
ATOM     19  O   UNL     1       4.354   3.473  17.328  0.00  0.00    +0.000 OA
ENDBRANCH   8  11
ENDBRANCH   1   6
BRANCH   1  20
ATOM     20  S   UNL     1       0.773  11.414  21.148  0.00  0.00    +0.000 S 
ATOM     21  O   UNL     1       1.803  12.420  20.962  0.00  0.00    +0.000 OA
ATOM     22  O   UNL     1       1.124  10.178  21.835  0.00  0.00    +0.000 OA
BRANCH  20  27
ATOM     23  C   UNL     1      -3.847  13.940  24.211  0.00  0.00    +0.000 C 
ATOM     24  C   UNL     1      -2.676  13.343  23.477  0.00  0.00    +0.000 A 
ATOM     25  C   UNL     1      -2.484  11.950  23.504  0.00  0.00    +0.000 A 
ATOM     26  C   UNL     1      -1.423  11.359  22.817  0.00  0.00    +0.000 A 
ATOM     27  C   UNL     1      -0.525  12.163  22.114  0.00  0.00    +0.000 A 
ATOM     28  C   UNL     1      -0.712  13.549  22.061  0.00  0.00    +0.000 A 
ATOM     29  C   UNL     1      -1.784  14.150  22.741  0.00  0.00    +0.000 A 
ATOM     30  C   UNL     1      -1.970  15.641  22.649  0.00  0.00    +0.000 C 
ENDBRANCH  20  27
ENDBRANCH   1  20
TORSDOF 4
ENDMDL
MODEL 4
REMARK VINA RESULT:      -8.8      4.319      7.148
REMARK  Name = 
REMARK  6 active torsions:
REMARK  status: ('A' for Active; 'I' for Inactive)
REMARK    1  A    between atoms: C_1  and  C_2
REMARK    2  A    between atoms: C_5  and  S_6
REMARK    3  A    between atoms: S_6  and  C_9
REMARK    4  A    between atoms: C_9  and  C_10
REMARK    5  A    between atoms: C_12  and  C_13
REMARK    6  A    between atoms: C_29  and  C_30
REMARK                            x       y       z     vdW  Elec       q    Type
REMARK                         _______ _______ _______ _____ _____    ______ ____
ROOT
ATOM      1  C   UNL     1       5.808   5.558  17.109  0.00  0.00    +0.000 C 
ATOM      2  C   UNL     1       5.099   6.102  15.859  0.00  0.00    +0.000 C 
ATOM      3  C   UNL     1       5.977   5.708  14.668  0.00  0.00    +0.000 C 
ATOM      4  C   UNL     1       6.950   4.648  15.171  0.00  0.00    +0.000 C 
ATOM      5  C   UNL     1       6.470   4.279  16.569  0.00  0.00    +0.000 C 
ENDROOT
BRANCH   1   6
ATOM      6  C   UNL     1       6.793   6.527  17.662  0.00  0.00    +0.000 A 
ATOM      7  N   UNL     1       6.906   7.820  17.451  0.00  0.00    +0.000 NA
ATOM      8  C   UNL     1       7.989   8.166  18.233  0.00  0.00    +0.000 A 
ATOM      9  N   UNL     1       8.539   7.126  18.878  0.00  0.00    +0.000 NA
ATOM     10  O   UNL     1       7.747   6.046  18.511  0.00  0.00    +0.000 OA
BRANCH   8  11
ATOM     11  C   UNL     1       8.469   9.537  18.340  0.00  0.00    +0.000 A 
ATOM     12  C   UNL     1       8.020  10.530  17.436  0.00  0.00    +0.000 A 
ATOM     13  C   UNL     1       8.470  11.852  17.532  0.00  0.00    +0.000 A 
ATOM     14  C   UNL     1       9.367  12.148  18.533  0.00  0.00    +0.000 A 
ATOM     15  C   UNL     1       9.815  11.191  19.413  0.00  0.00    +0.000 A 
ATOM     16  C   UNL     1       9.388   9.882  19.345  0.00  0.00    +0.000 A 
ATOM     17  O   UNL     1      10.697  11.691  20.319  0.00  0.00    +0.000 OA
ATOM     18  C   UNL     1      10.770  13.068  19.895  0.00  0.00    +0.000 C 
ATOM     19  O   UNL     1       9.910  13.370  18.777  0.00  0.00    +0.000 OA
ENDBRANCH   8  11
ENDBRANCH   1   6
BRANCH   1  20
ATOM     20  S   UNL     1       4.678   5.178  18.445  0.00  0.00    +0.000 S 
ATOM     21  O   UNL     1       5.409   5.164  19.699  0.00  0.00    +0.000 OA
ATOM     22  O   UNL     1       3.919   3.993  18.068  0.00  0.00    +0.000 OA
BRANCH  20  27
ATOM     23  C   UNL     1       0.865   9.909  18.872  0.00  0.00    +0.000 C 
ATOM     24  C   UNL     1       1.773   8.712  18.776  0.00  0.00    +0.000 A 
ATOM     25  C   UNL     1       2.528   8.511  17.606  0.00  0.00    +0.000 A 
ATOM     26  C   UNL     1       3.396   7.425  17.490  0.00  0.00    +0.000 A 
ATOM     27  C   UNL     1       3.498   6.510  18.539  0.00  0.00    +0.000 A 
ATOM     28  C   UNL     1       2.769   6.705  19.717  0.00  0.00    +0.000 A 
ATOM     29  C   UNL     1       1.901   7.802  19.846  0.00  0.00    +0.000 A 
ATOM     30  C   UNL     1       1.145   7.995  21.133  0.00  0.00    +0.000 C 
ENDBRANCH  20  27
ENDBRANCH   1  20
TORSDOF 4
ENDMDL
MODEL 5
REMARK VINA RESULT:      -8.7      1.130      1.772
REMARK  Name = 
REMARK  6 active torsions:
REMARK  status: ('A' for Active; 'I' for Inactive)
REMARK    1  A    between atoms: C_1  and  C_2
REMARK    2  A    between atoms: C_5  and  S_6
REMARK    3  A    between atoms: S_6  and  C_9
REMARK    4  A    between atoms: C_9  and  C_10
REMARK    5  A    between atoms: C_12  and  C_13
REMARK    6  A    between atoms: C_29  and  C_30
REMARK                            x       y       z     vdW  Elec       q    Type
REMARK                         _______ _______ _______ _____ _____    ______ ____
ROOT
ATOM      1  C   UNL     1       2.805   4.366  19.403  0.00  0.00    +0.000 C 
ATOM      2  C   UNL     1       2.318   3.508  20.580  0.00  0.00    +0.000 C 
ATOM      3  C   UNL     1       0.931   2.994  20.185  0.00  0.00    +0.000 C 
ATOM      4  C   UNL     1       0.788   3.226  18.685  0.00  0.00    +0.000 C 
ATOM      5  C   UNL     1       2.168   3.650  18.200  0.00  0.00    +0.000 C 
ENDROOT
BRANCH   1   6
ATOM      6  C   UNL     1       2.371   5.785  19.525  0.00  0.00    +0.000 A 
ATOM      7  N   UNL     1       1.770   6.395  20.522  0.00  0.00    +0.000 NA
ATOM      8  C   UNL     1       1.634   7.686  20.056  0.00  0.00    +0.000 A 
ATOM      9  N   UNL     1       2.106   7.860  18.812  0.00  0.00    +0.000 NA
ATOM     10  O   UNL     1       2.601   6.611  18.463  0.00  0.00    +0.000 OA
BRANCH   8  11
ATOM     11  C   UNL     1       1.037   8.747  20.856  0.00  0.00    +0.000 A 
ATOM     12  C   UNL     1       0.722   8.530  22.219  0.00  0.00    +0.000 A 
ATOM     13  C   UNL     1       0.153   9.543  23.000  0.00  0.00    +0.000 A 
ATOM     14  C   UNL     1      -0.090  10.754  22.393  0.00  0.00    +0.000 A 
ATOM     15  C   UNL     1       0.207  10.975  21.069  0.00  0.00    +0.000 A 
ATOM     16  C   UNL     1       0.768   9.997  20.275  0.00  0.00    +0.000 A 
ATOM     17  O   UNL     1      -0.117  12.233  20.667  0.00  0.00    +0.000 OA
ATOM     18  C   UNL     1      -0.670  12.772  21.885  0.00  0.00    +0.000 C 
ATOM     19  O   UNL     1      -0.635  11.847  22.991  0.00  0.00    +0.000 OA
ENDBRANCH   8  11
ENDBRANCH   1   6
BRANCH   1  20
ATOM     20  S   UNL     1       4.589   4.402  19.254  0.00  0.00    +0.000 S 
ATOM     21  O   UNL     1       5.140   3.176  19.803  0.00  0.00    +0.000 OA
ATOM     22  O   UNL     1       5.060   5.675  19.783  0.00  0.00    +0.000 OA
BRANCH  20  27
ATOM     23  C   UNL     1       6.201   4.516  13.380  0.00  0.00    +0.000 C 
ATOM     24  C   UNL     1       5.762   4.505  14.820  0.00  0.00    +0.000 A 
ATOM     25  C   UNL     1       5.844   3.309  15.556  0.00  0.00    +0.000 A 
ATOM     26  C   UNL     1       5.467   3.265  16.899  0.00  0.00    +0.000 A 
ATOM     27  C   UNL     1       4.977   4.418  17.514  0.00  0.00    +0.000 A 
ATOM     28  C   UNL     1       4.906   5.620  16.802  0.00  0.00    +0.000 A 
ATOM     29  C   UNL     1       5.294   5.675  15.453  0.00  0.00    +0.000 A 
ATOM     30  C   UNL     1       5.223   6.987  14.720  0.00  0.00    +0.000 C 
ENDBRANCH  20  27
ENDBRANCH   1  20
TORSDOF 4
ENDMDL
MODEL 6
REMARK VINA RESULT:      -8.7      2.152      3.030
REMARK  Name = 
REMARK  6 active torsions:
REMARK  status: ('A' for Active; 'I' for Inactive)
REMARK    1  A    between atoms: C_1  and  C_2
REMARK    2  A    between atoms: C_5  and  S_6
REMARK    3  A    between atoms: S_6  and  C_9
REMARK    4  A    between atoms: C_9  and  C_10
REMARK    5  A    between atoms: C_12  and  C_13
REMARK    6  A    between atoms: C_29  and  C_30
REMARK                            x       y       z     vdW  Elec       q    Type
REMARK                         _______ _______ _______ _____ _____    ______ ____
ROOT
ATOM      1  C   UNL     1       2.555   3.595  19.501  0.00  0.00    +0.000 C 
ATOM      2  C   UNL     1       3.447   2.891  20.535  0.00  0.00    +0.000 C 
ATOM      3  C   UNL     1       2.502   2.355  21.615  0.00  0.00    +0.000 C 
ATOM      4  C   UNL     1       1.094   2.408  21.032  0.00  0.00    +0.000 C 
ATOM      5  C   UNL     1       1.271   2.750  19.559  0.00  0.00    +0.000 C 
ENDROOT
BRANCH   1   6
ATOM      6  C   UNL     1       2.320   5.025  19.842  0.00  0.00    +0.000 A 
ATOM      7  N   UNL     1       2.120   6.054  19.049  0.00  0.00    +0.000 NA
ATOM      8  C   UNL     1       1.962   7.099  19.935  0.00  0.00    +0.000 A 
ATOM      9  N   UNL     1       2.086   6.736  21.221  0.00  0.00    +0.000 NA
ATOM     10  O   UNL     1       2.314   5.368  21.163  0.00  0.00    +0.000 OA
BRANCH   8  11
ATOM     11  C   UNL     1       1.679   8.459  19.496  0.00  0.00    +0.000 A 
ATOM     12  C   UNL     1       2.132   8.919  18.236  0.00  0.00    +0.000 A 
ATOM     13  C   UNL     1       1.863  10.222  17.802  0.00  0.00    +0.000 A 
ATOM     14  C   UNL     1       1.145  11.039  18.645  0.00  0.00    +0.000 A 
ATOM     15  C   UNL     1       0.704  10.605  19.873  0.00  0.00    +0.000 A 
ATOM     16  C   UNL     1       0.952   9.327  20.328  0.00  0.00    +0.000 A 
ATOM     17  O   UNL     1       0.020  11.568  20.548  0.00  0.00    +0.000 OA
ATOM     18  C   UNL     1       0.100  12.663  19.612  0.00  0.00    +0.000 C 
ATOM     19  O   UNL     1       0.792  12.327  18.392  0.00  0.00    +0.000 OA
ENDBRANCH   8  11
ENDBRANCH   1   6
BRANCH   1  20
ATOM     20  S   UNL     1       3.254   3.585  17.852  0.00  0.00    +0.000 S 
ATOM     21  O   UNL     1       2.227   3.955  16.895  0.00  0.00    +0.000 OA
ATOM     22  O   UNL     1       3.953   2.320  17.668  0.00  0.00    +0.000 OA
BRANCH  20  27
ATOM     23  C   UNL     1       7.677   7.755  17.457  0.00  0.00    +0.000 C 
ATOM     24  C   UNL     1       6.579   6.734  17.599  0.00  0.00    +0.000 A 
ATOM     25  C   UNL     1       5.470   6.791  16.735  0.00  0.00    +0.000 A 
ATOM     26  C   UNL     1       4.443   5.851  16.822  0.00  0.00    +0.000 A 
ATOM     27  C   UNL     1       4.505   4.853  17.797  0.00  0.00    +0.000 A 
ATOM     28  C   UNL     1       5.610   4.771  18.651  0.00  0.00    +0.000 A 
ATOM     29  C   UNL     1       6.652   5.708  18.563  0.00  0.00    +0.000 A 
ATOM     30  C   UNL     1       7.836   5.581  19.484  0.00  0.00    +0.000 C 
ENDBRANCH  20  27
ENDBRANCH   1  20
TORSDOF 4
ENDMDL
MODEL 7
REMARK VINA RESULT:      -8.7      3.858      9.361
REMARK  Name = 
REMARK  6 active torsions:
REMARK  status: ('A' for Active; 'I' for Inactive)
REMARK    1  A    between atoms: C_1  and  C_2
REMARK    2  A    between atoms: C_5  and  S_6
REMARK    3  A    between atoms: S_6  and  C_9
REMARK    4  A    between atoms: C_9  and  C_10
REMARK    5  A    between atoms: C_12  and  C_13
REMARK    6  A    between atoms: C_29  and  C_30
REMARK                            x       y       z     vdW  Elec       q    Type
REMARK                         _______ _______ _______ _____ _____    ______ ____
ROOT
ATOM      1  C   UNL     1      -0.406  12.063  19.726  0.00  0.00    +0.000 C 
ATOM      2  C   UNL     1      -0.483  12.481  18.251  0.00  0.00    +0.000 C 
ATOM      3  C   UNL     1      -1.800  11.913  17.715  0.00  0.00    +0.000 C 
ATOM      4  C   UNL     1      -2.632  11.515  18.930  0.00  0.00    +0.000 C 
ATOM      5  C   UNL     1      -1.889  12.071  20.137  0.00  0.00    +0.000 C 
ENDROOT
BRANCH   1   6
ATOM      6  C   UNL     1       0.232  10.729  19.900  0.00  0.00    +0.000 A 
ATOM      7  N   UNL     1       0.991  10.049  19.069  0.00  0.00    +0.000 NA
ATOM      8  C   UNL     1       1.279   8.904  19.783  0.00  0.00    +0.000 A 
ATOM      9  N   UNL     1       0.701   8.867  20.993  0.00  0.00    +0.000 NA
ATOM     10  O   UNL     1       0.017  10.072  21.077  0.00  0.00    +0.000 OA
BRANCH   8  11
ATOM     11  C   UNL     1       2.139   7.852  19.258  0.00  0.00    +0.000 A 
ATOM     12  C   UNL     1       2.823   8.026  18.031  0.00  0.00    +0.000 A 
ATOM     13  C   UNL     1       3.656   7.024  17.519  0.00  0.00    +0.000 A 
ATOM     14  C   UNL     1       3.781   5.865  18.250  0.00  0.00    +0.000 A 
ATOM     15  C   UNL     1       3.117   5.682  19.440  0.00  0.00    +0.000 A 
ATOM     16  C   UNL     1       2.291   6.651  19.971  0.00  0.00    +0.000 A 
ATOM     17  O   UNL     1       3.374   4.468  19.997  0.00  0.00    +0.000 OA
ATOM     18  C   UNL     1       4.259   3.900  19.010  0.00  0.00    +0.000 C 
ATOM     19  O   UNL     1       4.540   4.790  17.910  0.00  0.00    +0.000 OA
ENDBRANCH   8  11
ENDBRANCH   1   6
BRANCH   1  20
ATOM     20  S   UNL     1       0.541  13.204  20.730  0.00  0.00    +0.000 S 
ATOM     21  O   UNL     1       1.895  12.701  20.877  0.00  0.00    +0.000 OA
ATOM     22  O   UNL     1      -0.229  13.492  21.933  0.00  0.00    +0.000 OA
BRANCH  20  27
ATOM     23  C   UNL     1       0.797  18.309  17.416  0.00  0.00    +0.000 C 
ATOM     24  C   UNL     1       0.770  17.062  18.259  0.00  0.00    +0.000 A 
ATOM     25  C   UNL     1      -0.416  16.708  18.927  0.00  0.00    +0.000 A 
ATOM     26  C   UNL     1      -0.485  15.548  19.700  0.00  0.00    +0.000 A 
ATOM     27  C   UNL     1       0.645  14.740  19.832  0.00  0.00    +0.000 A 
ATOM     28  C   UNL     1       1.827  15.067  19.158  0.00  0.00    +0.000 A 
ATOM     29  C   UNL     1       1.902  16.228  18.370  0.00  0.00    +0.000 A 
ATOM     30  C   UNL     1       3.181  16.543  17.644  0.00  0.00    +0.000 C 
ENDBRANCH  20  27
ENDBRANCH   1  20
TORSDOF 4
ENDMDL
MODEL 8
REMARK VINA RESULT:      -8.7      2.969      9.789
REMARK  Name = 
REMARK  6 active torsions:
REMARK  status: ('A' for Active; 'I' for Inactive)
REMARK    1  A    between atoms: C_1  and  C_2
REMARK    2  A    between atoms: C_5  and  S_6
REMARK    3  A    between atoms: S_6  and  C_9
REMARK    4  A    between atoms: C_9  and  C_10
REMARK    5  A    between atoms: C_12  and  C_13
REMARK    6  A    between atoms: C_29  and  C_30
REMARK                            x       y       z     vdW  Elec       q    Type
REMARK                         _______ _______ _______ _____ _____    ______ ____
ROOT
ATOM      1  C   UNL     1      -0.016  11.160  19.611  0.00  0.00    +0.000 C 
ATOM      2  C   UNL     1      -0.366  12.410  18.788  0.00  0.00    +0.000 C 
ATOM      3  C   UNL     1      -1.521  12.003  17.868  0.00  0.00    +0.000 C 
ATOM      4  C   UNL     1      -2.072  10.689  18.411  0.00  0.00    +0.000 C 
ATOM      5  C   UNL     1      -1.389  10.480  19.756  0.00  0.00    +0.000 C 
ENDROOT
BRANCH   1   6
ATOM      6  C   UNL     1       0.985  10.298  18.926  0.00  0.00    +0.000 A 
ATOM      7  N   UNL     1       1.199   9.006  19.044  0.00  0.00    +0.000 NA
ATOM      8  C   UNL     1       2.239   8.785  18.165  0.00  0.00    +0.000 A 
ATOM      9  N   UNL     1       2.667   9.897  17.550  0.00  0.00    +0.000 NA
ATOM     10  O   UNL     1       1.837  10.895  18.043  0.00  0.00    +0.000 OA
BRANCH   8  11
ATOM     11  C   UNL     1       2.798   7.460  17.935  0.00  0.00    +0.000 A 
ATOM     12  C   UNL     1       2.104   6.301  18.359  0.00  0.00    +0.000 A 
ATOM     13  C   UNL     1       2.630   5.022  18.139  0.00  0.00    +0.000 A 
ATOM     14  C   UNL     1       3.845   4.934  17.500  0.00  0.00    +0.000 A 
ATOM     15  C   UNL     1       4.531   6.053  17.089  0.00  0.00    +0.000 A 
ATOM     16  C   UNL     1       4.039   7.325  17.290  0.00  0.00    +0.000 A 
ATOM     17  O   UNL     1       5.710   5.745  16.485  0.00  0.00    +0.000 OA
ATOM     18  C   UNL     1       5.697   4.306  16.582  0.00  0.00    +0.000 C 
ATOM     19  O   UNL     1       4.505   3.784  17.204  0.00  0.00    +0.000 OA
ENDBRANCH   8  11
ENDBRANCH   1   6
BRANCH   1  20
ATOM     20  S   UNL     1       0.676  11.550  21.215  0.00  0.00    +0.000 S 
ATOM     21  O   UNL     1       1.913  12.290  21.036  0.00  0.00    +0.000 OA
ATOM     22  O   UNL     1       0.706  10.325  22.002  0.00  0.00    +0.000 OA
BRANCH  20  27
ATOM     23  C   UNL     1      -3.090  15.222  24.288  0.00  0.00    +0.000 C 
ATOM     24  C   UNL     1      -2.194  14.301  23.503  0.00  0.00    +0.000 A 
ATOM     25  C   UNL     1      -1.028  14.817  22.908  0.00  0.00    +0.000 A 
ATOM     26  C   UNL     1      -0.163  13.990  22.191  0.00  0.00    +0.000 A 
ATOM     27  C   UNL     1      -0.471  12.638  22.040  0.00  0.00    +0.000 A 
ATOM     28  C   UNL     1      -1.616  12.104  22.641  0.00  0.00    +0.000 A 
ATOM     29  C   UNL     1      -2.487  12.928  23.373  0.00  0.00    +0.000 A 
ATOM     30  C   UNL     1      -3.701  12.322  24.023  0.00  0.00    +0.000 C 
ENDBRANCH  20  27
ENDBRANCH   1  20
TORSDOF 4
ENDMDL
MODEL 9
REMARK VINA RESULT:      -8.7      2.917      9.620
REMARK  Name = 
REMARK  6 active torsions:
REMARK  status: ('A' for Active; 'I' for Inactive)
REMARK    1  A    between atoms: C_1  and  C_2
REMARK    2  A    between atoms: C_5  and  S_6
REMARK    3  A    between atoms: S_6  and  C_9
REMARK    4  A    between atoms: C_9  and  C_10
REMARK    5  A    between atoms: C_12  and  C_13
REMARK    6  A    between atoms: C_29  and  C_30
REMARK                            x       y       z     vdW  Elec       q    Type
REMARK                         _______ _______ _______ _____ _____    ______ ____
ROOT
ATOM      1  C   UNL     1      -0.076  11.135  19.691  0.00  0.00    +0.000 C 
ATOM      2  C   UNL     1      -0.357  12.365  18.815  0.00  0.00    +0.000 C 
ATOM      3  C   UNL     1      -1.511  11.971  17.887  0.00  0.00    +0.000 C 
ATOM      4  C   UNL     1      -2.126  10.702  18.468  0.00  0.00    +0.000 C 
ATOM      5  C   UNL     1      -1.478  10.517  19.833  0.00  0.00    +0.000 C 
ENDROOT
BRANCH   1   6
ATOM      6  C   UNL     1       0.902  10.207  19.060  0.00  0.00    +0.000 A 
ATOM      7  N   UNL     1       1.263   8.996  19.423  0.00  0.00    +0.000 NA
ATOM      8  C   UNL     1       2.184   8.647  18.458  0.00  0.00    +0.000 A 
ATOM      9  N   UNL     1       2.404   9.612  17.552  0.00  0.00    +0.000 NA
ATOM     10  O   UNL     1       1.553  10.638  17.941  0.00  0.00    +0.000 OA
BRANCH   8  11
ATOM     11  C   UNL     1       2.839   7.346  18.438  0.00  0.00    +0.000 A 
ATOM     12  C   UNL     1       3.835   7.056  17.474  0.00  0.00    +0.000 A 
ATOM     13  C   UNL     1       4.475   5.811  17.448  0.00  0.00    +0.000 A 
ATOM     14  C   UNL     1       4.099   4.882  18.390  0.00  0.00    +0.000 A 
ATOM     15  C   UNL     1       3.129   5.150  19.328  0.00  0.00    +0.000 A 
ATOM     16  C   UNL     1       2.482   6.367  19.379  0.00  0.00    +0.000 A 
ATOM     17  O   UNL     1       2.905   4.097  20.159  0.00  0.00    +0.000 OA
ATOM     18  C   UNL     1       3.830   3.128  19.623  0.00  0.00    +0.000 C 
ATOM     19  O   UNL     1       4.608   3.628  18.516  0.00  0.00    +0.000 OA
ENDBRANCH   8  11
ENDBRANCH   1   6
BRANCH   1  20
ATOM     20  S   UNL     1       0.602  11.558  21.294  0.00  0.00    +0.000 S 
ATOM     21  O   UNL     1       1.838  12.297  21.111  0.00  0.00    +0.000 OA
ATOM     22  O   UNL     1       0.627  10.348  22.105  0.00  0.00    +0.000 OA
BRANCH  20  27
ATOM     23  C   UNL     1      -3.198  15.284  24.259  0.00  0.00    +0.000 C 
ATOM     24  C   UNL     1      -2.294  14.349  23.500  0.00  0.00    +0.000 A 
ATOM     25  C   UNL     1      -1.133  14.858  22.890  0.00  0.00    +0.000 A 
ATOM     26  C   UNL     1      -0.260  14.018  22.197  0.00  0.00    +0.000 A 
ATOM     27  C   UNL     1      -0.556  12.659  22.086  0.00  0.00    +0.000 A 
ATOM     28  C   UNL     1      -1.696  12.133  22.704  0.00  0.00    +0.000 A 
ATOM     29  C   UNL     1      -2.574  12.970  23.412  0.00  0.00    +0.000 A 
ATOM     30  C   UNL     1      -3.782  12.371  24.081  0.00  0.00    +0.000 C 
ENDBRANCH  20  27
ENDBRANCH   1  20
TORSDOF 4
ENDMDL
