MODEL 1
REMARK VINA RESULT:      -9.3      0.000      0.000
REMARK  Name = 
REMARK  4 active torsions:
REMARK  status: ('A' for Active; 'I' for Inactive)
REMARK    1  A    between atoms: C_2  and  C_20
REMARK    2  A    between atoms: N_3  and  C_4
REMARK    3  A    between atoms: C_8  and  S_9
REMARK    4  A    between atoms: S_9  and  N_12
REMARK                            x       y       z     vdW  Elec       q    Type
REMARK                         _______ _______ _______ _____ _____    ______ ____
ROOT
ATOM      1  C   UNL     1       1.913   4.977  20.720  0.00  0.00    +0.000 A 
ATOM      2  C   UNL     1       2.036   4.055  21.764  0.00  0.00    +0.000 A 
ATOM      3  C   UNL     1       2.570   2.782  21.542  0.00  0.00    +0.000 A 
ATOM      4  C   UNL     1       2.998   2.419  20.269  0.00  0.00    +0.000 A 
ATOM      5  C   UNL     1       2.883   3.338  19.224  0.00  0.00    +0.000 A 
ATOM      6  C   UNL     1       2.310   4.600  19.433  0.00  0.00    +0.000 A 
ENDROOT
BRANCH   1   9
ATOM      7  O   UNL     1       2.648   7.458  19.335  0.00  0.00    +0.000 OA
ATOM      8  C   UNL     1       1.820   7.413  20.236  0.00  0.00    +0.000 C 
ATOM      9  N   UNL     1       1.390   6.276  20.891  0.00  0.00    +0.000 N 
ATOM     10  H   UNL     1       0.593   6.378  21.510  0.00  0.00    +0.000 HD
BRANCH   8  11
ATOM     11  C   UNL     1       1.152   8.664  20.728  0.00  0.00    +0.000 A 
ATOM     12  C   UNL     1       0.944   8.751  22.050  0.00  0.00    +0.000 A 
ATOM     13  C   UNL     1       0.176   9.882  22.577  0.00  0.00    +0.000 A 
ATOM     14  O   UNL     1       0.038  10.052  23.778  0.00  0.00    +0.000 OA
ATOM     15  C   UNL     1      -0.443  10.764  21.578  0.00  0.00    +0.000 A 
ATOM     16  C   UNL     1      -1.383  11.723  21.963  0.00  0.00    +0.000 A 
ATOM     17  C   UNL     1      -1.960  12.544  20.995  0.00  0.00    +0.000 A 
ATOM     18  C   UNL     1      -1.576  12.423  19.658  0.00  0.00    +0.000 A 
ATOM     19  C   UNL     1      -0.640  11.460  19.276  0.00  0.00    +0.000 A 
ATOM     20  C   UNL     1      -0.093  10.608  20.237  0.00  0.00    +0.000 A 
ATOM     21  O   UNL     1       0.752   9.616  19.801  0.00  0.00    +0.000 OA
ENDBRANCH   8  11
ENDBRANCH   1   9
BRANCH   5  22
ATOM     22  S   UNL     1       3.415   2.889  17.580  0.00  0.00    +0.000 S 
ATOM     23  O   UNL     1       3.945   1.543  17.645  0.00  0.00    +0.000 OA
ATOM     24  O   UNL     1       2.331   3.221  16.679  0.00  0.00    +0.000 OA
BRANCH  22  25
ATOM     25  N   UNL     1       4.714   3.968  17.290  0.00  0.00    +0.000 NA
ATOM     26  C   UNL     1       5.638   4.208  18.417  0.00  0.00    +0.000 C 
ATOM     27  C   UNL     1       6.120   5.656  18.456  0.00  0.00    +0.000 C 
ATOM     28  C   UNL     1       7.327   5.928  17.568  0.00  0.00    +0.000 C 
ATOM     29  C   UNL     1       7.046   5.755  16.083  0.00  0.00    +0.000 C 
ATOM     30  C   UNL     1       6.703   4.318  15.714  0.00  0.00    +0.000 C 
ATOM     31  C   UNL     1       5.234   3.965  15.900  0.00  0.00    +0.000 C 
ENDBRANCH  22  25
ENDBRANCH   5  22
TORSDOF 4
ENDMDL
MODEL 2
REMARK VINA RESULT:      -9.2      6.031      8.317
REMARK  Name = 
REMARK  4 active torsions:
REMARK  status: ('A' for Active; 'I' for Inactive)
REMARK    1  A    between atoms: C_2  and  C_20
REMARK    2  A    between atoms: N_3  and  C_4
REMARK    3  A    between atoms: C_8  and  S_9
REMARK    4  A    between atoms: S_9  and  N_12
REMARK                            x       y       z     vdW  Elec       q    Type
REMARK                         _______ _______ _______ _____ _____    ______ ____
ROOT
ATOM      1  C   UNL     1       8.161   8.004  18.027  0.00  0.00    +0.000 A 
ATOM      2  C   UNL     1       8.522   7.219  19.126  0.00  0.00    +0.000 A 
ATOM      3  C   UNL     1       7.984   5.941  19.305  0.00  0.00    +0.000 A 
ATOM      4  C   UNL     1       7.083   5.428  18.378  0.00  0.00    +0.000 A 
ATOM      5  C   UNL     1       6.724   6.206  17.276  0.00  0.00    +0.000 A 
ATOM      6  C   UNL     1       7.227   7.504  17.114  0.00  0.00    +0.000 A 
ENDROOT
BRANCH   1   9
ATOM      7  O   UNL     1       8.943  10.056  19.975  0.00  0.00    +0.000 OA
ATOM      8  C   UNL     1       8.982  10.231  18.764  0.00  0.00    +0.000 C 
ATOM      9  N   UNL     1       8.679   9.295  17.795  0.00  0.00    +0.000 N 
ATOM     10  H   UNL     1       8.902   9.541  16.836  0.00  0.00    +0.000 HD
BRANCH   8  11
ATOM     11  C   UNL     1       9.397  11.556  18.193  0.00  0.00    +0.000 A 
ATOM     12  C   UNL     1      10.658  11.648  17.746  0.00  0.00    +0.000 A 
ATOM     13  C   UNL     1      11.164  12.951  17.305  0.00  0.00    +0.000 A 
ATOM     14  O   UNL     1      12.274  13.065  16.807  0.00  0.00    +0.000 OA
ATOM     15  C   UNL     1      10.278  14.100  17.535  0.00  0.00    +0.000 A 
ATOM     16  C   UNL     1      10.752  15.404  17.373  0.00  0.00    +0.000 A 
ATOM     17  C   UNL     1       9.893  16.478  17.602  0.00  0.00    +0.000 A 
ATOM     18  C   UNL     1       8.564  16.244  17.962  0.00  0.00    +0.000 A 
ATOM     19  C   UNL     1       8.096  14.939  18.128  0.00  0.00    +0.000 A 
ATOM     20  C   UNL     1       8.965  13.863  17.941  0.00  0.00    +0.000 A 
ATOM     21  O   UNL     1       8.486  12.603  18.206  0.00  0.00    +0.000 OA
ENDBRANCH   8  11
ENDBRANCH   1   9
BRANCH   5  22
ATOM     22  S   UNL     1       5.559   5.573  16.080  0.00  0.00    +0.000 S 
ATOM     23  O   UNL     1       5.165   6.675  15.228  0.00  0.00    +0.000 OA
ATOM     24  O   UNL     1       6.138   4.368  15.522  0.00  0.00    +0.000 OA
BRANCH  22  25
ATOM     25  N   UNL     1       4.216   5.133  17.050  0.00  0.00    +0.000 NA
ATOM     26  C   UNL     1       4.086   3.701  17.388  0.00  0.00    +0.000 C 
ATOM     27  C   UNL     1       2.626   3.254  17.409  0.00  0.00    +0.000 C 
ATOM     28  C   UNL     1       1.925   3.506  18.738  0.00  0.00    +0.000 C 
ATOM     29  C   UNL     1       1.783   4.980  19.086  0.00  0.00    +0.000 C 
ATOM     30  C   UNL     1       3.126   5.663  19.307  0.00  0.00    +0.000 C 
ATOM     31  C   UNL     1       3.784   6.162  18.028  0.00  0.00    +0.000 C 
ENDBRANCH  22  25
ENDBRANCH   5  22
TORSDOF 4
ENDMDL
MODEL 3
REMARK VINA RESULT:      -9.2      4.407      7.765
REMARK  Name = 
REMARK  4 active torsions:
REMARK  status: ('A' for Active; 'I' for Inactive)
REMARK    1  A    between atoms: C_2  and  C_20
REMARK    2  A    between atoms: N_3  and  C_4
REMARK    3  A    between atoms: C_8  and  S_9
REMARK    4  A    between atoms: S_9  and  N_12
REMARK                            x       y       z     vdW  Elec       q    Type
REMARK                         _______ _______ _______ _____ _____    ______ ____
ROOT
ATOM      1  C   UNL     1       6.686   6.341  16.720  0.00  0.00    +0.000 A 
ATOM      2  C   UNL     1       7.164   5.552  15.669  0.00  0.00    +0.000 A 
ATOM      3  C   UNL     1       6.572   4.323  15.364  0.00  0.00    +0.000 A 
ATOM      4  C   UNL     1       5.483   3.873  16.103  0.00  0.00    +0.000 A 
ATOM      5  C   UNL     1       4.997   4.659  17.149  0.00  0.00    +0.000 A 
ATOM      6  C   UNL     1       5.613   5.872  17.486  0.00  0.00    +0.000 A 
ENDROOT
BRANCH   1   9
ATOM      7  O   UNL     1       8.510   7.005  18.921  0.00  0.00    +0.000 OA
ATOM      8  C   UNL     1       8.058   7.842  18.149  0.00  0.00    +0.000 C 
ATOM      9  N   UNL     1       7.240   7.591  17.065  0.00  0.00    +0.000 N 
ATOM     10  H   UNL     1       7.070   8.366  16.432  0.00  0.00    +0.000 HD
BRANCH   8  11
ATOM     11  C   UNL     1       8.382   9.297  18.319  0.00  0.00    +0.000 A 
ATOM     12  C   UNL     1       7.754  10.150  17.496  0.00  0.00    +0.000 A 
ATOM     13  C   UNL     1       8.128  11.567  17.519  0.00  0.00    +0.000 A 
ATOM     14  O   UNL     1       7.523  12.395  16.854  0.00  0.00    +0.000 OA
ATOM     15  C   UNL     1       9.287  11.916  18.351  0.00  0.00    +0.000 A 
ATOM     16  C   UNL     1       9.870  13.183  18.260  0.00  0.00    +0.000 A 
ATOM     17  C   UNL     1      10.972  13.488  19.058  0.00  0.00    +0.000 A 
ATOM     18  C   UNL     1      11.468  12.540  19.957  0.00  0.00    +0.000 A 
ATOM     19  C   UNL     1      10.886  11.274  20.040  0.00  0.00    +0.000 A 
ATOM     20  C   UNL     1       9.809  10.952  19.213  0.00  0.00    +0.000 A 
ATOM     21  O   UNL     1       9.329   9.665  19.264  0.00  0.00    +0.000 OA
ENDBRANCH   8  11
ENDBRANCH   1   9
BRANCH   5  22
ATOM     22  S   UNL     1       3.608   4.094  18.118  0.00  0.00    +0.000 S 
ATOM     23  O   UNL     1       2.629   3.548  17.201  0.00  0.00    +0.000 OA
ATOM     24  O   UNL     1       4.144   3.295  19.200  0.00  0.00    +0.000 OA
BRANCH  22  25
ATOM     25  N   UNL     1       2.982   5.549  18.773  0.00  0.00    +0.000 NA
ATOM     26  C   UNL     1       2.259   6.437  17.840  0.00  0.00    +0.000 C 
ATOM     27  C   UNL     1       2.520   7.910  18.142  0.00  0.00    +0.000 C 
ATOM     28  C   UNL     1       1.605   8.491  19.212  0.00  0.00    +0.000 C 
ATOM     29  C   UNL     1       1.800   7.872  20.588  0.00  0.00    +0.000 C 
ATOM     30  C   UNL     1       1.429   6.396  20.626  0.00  0.00    +0.000 C 
ATOM     31  C   UNL     1       2.551   5.464  20.191  0.00  0.00    +0.000 C 
ENDBRANCH  22  25
ENDBRANCH   5  22
TORSDOF 4
ENDMDL
MODEL 4
REMARK VINA RESULT:      -9.2      6.031      8.330
REMARK  Name = 
REMARK  4 active torsions:
REMARK  status: ('A' for Active; 'I' for Inactive)
REMARK    1  A    between atoms: C_2  and  C_20
REMARK    2  A    between atoms: N_3  and  C_4
REMARK    3  A    between atoms: C_8  and  S_9
REMARK    4  A    between atoms: S_9  and  N_12
REMARK                            x       y       z     vdW  Elec       q    Type
REMARK                         _______ _______ _______ _____ _____    ______ ____
ROOT
ATOM      1  C   UNL     1       8.060   8.077  18.064  0.00  0.00    +0.000 A 
ATOM      2  C   UNL     1       8.522   7.231  19.077  0.00  0.00    +0.000 A 
ATOM      3  C   UNL     1       7.950   5.972  19.279  0.00  0.00    +0.000 A 
ATOM      4  C   UNL     1       6.913   5.538  18.459  0.00  0.00    +0.000 A 
ATOM      5  C   UNL     1       6.453   6.376  17.443  0.00  0.00    +0.000 A 
ATOM      6  C   UNL     1       6.994   7.656  17.263  0.00  0.00    +0.000 A 
ENDROOT
BRANCH   1   9
ATOM      7  O   UNL     1       9.088  10.054  19.975  0.00  0.00    +0.000 OA
ATOM      8  C   UNL     1       9.028  10.255  18.769  0.00  0.00    +0.000 C 
ATOM      9  N   UNL     1       8.607   9.353  17.812  0.00  0.00    +0.000 N 
ATOM     10  H   UNL     1       8.754   9.612  16.842  0.00  0.00    +0.000 HD
BRANCH   8  11
ATOM     11  C   UNL     1       9.443  11.577  18.190  0.00  0.00    +0.000 A 
ATOM     12  C   UNL     1      10.696  11.658  17.720  0.00  0.00    +0.000 A 
ATOM     13  C   UNL     1      11.205  12.957  17.269  0.00  0.00    +0.000 A 
ATOM     14  O   UNL     1      12.306  13.062  16.752  0.00  0.00    +0.000 OA
ATOM     15  C   UNL     1      10.332  14.113  17.514  0.00  0.00    +0.000 A 
ATOM     16  C   UNL     1      10.813  15.413  17.343  0.00  0.00    +0.000 A 
ATOM     17  C   UNL     1       9.966  16.494  17.586  0.00  0.00    +0.000 A 
ATOM     18  C   UNL     1       8.642  16.271  17.970  0.00  0.00    +0.000 A 
ATOM     19  C   UNL     1       8.167  14.969  18.145  0.00  0.00    +0.000 A 
ATOM     20  C   UNL     1       9.025  13.887  17.944  0.00  0.00    +0.000 A 
ATOM     21  O   UNL     1       8.540  12.631  18.218  0.00  0.00    +0.000 OA
ENDBRANCH   8  11
ENDBRANCH   1   9
BRANCH   5  22
ATOM     22  S   UNL     1       5.114   5.845  16.388  0.00  0.00    +0.000 S 
ATOM     23  O   UNL     1       4.543   7.027  15.779  0.00  0.00    +0.000 OA
ATOM     24  O   UNL     1       5.621   4.758  15.576  0.00  0.00    +0.000 OA
BRANCH  22  25
ATOM     25  N   UNL     1       3.978   5.208  17.502  0.00  0.00    +0.000 NA
ATOM     26  C   UNL     1       3.082   6.180  18.160  0.00  0.00    +0.000 C 
ATOM     27  C   UNL     1       2.802   5.800  19.612  0.00  0.00    +0.000 C 
ATOM     28  C   UNL     1       1.654   4.813  19.780  0.00  0.00    +0.000 C 
ATOM     29  C   UNL     1       1.928   3.447  19.169  0.00  0.00    +0.000 C 
ATOM     30  C   UNL     1       2.075   3.499  17.654  0.00  0.00    +0.000 C 
ATOM     31  C   UNL     1       3.480   3.847  17.181  0.00  0.00    +0.000 C 
ENDBRANCH  22  25
ENDBRANCH   5  22
TORSDOF 4
ENDMDL
MODEL 5
REMARK VINA RESULT:      -9.2      0.345      1.110
REMARK  Name = 
REMARK  4 active torsions:
REMARK  status: ('A' for Active; 'I' for Inactive)
REMARK    1  A    between atoms: C_2  and  C_20
REMARK    2  A    between atoms: N_3  and  C_4
REMARK    3  A    between atoms: C_8  and  S_9
REMARK    4  A    between atoms: S_9  and  N_12
REMARK                            x       y       z     vdW  Elec       q    Type
REMARK                         _______ _______ _______ _____ _____    ______ ____
ROOT
ATOM      1  C   UNL     1       1.826   5.001  20.716  0.00  0.00    +0.000 A 
ATOM      2  C   UNL     1       1.888   4.091  21.776  0.00  0.00    +0.000 A 
ATOM      3  C   UNL     1       2.407   2.806  21.592  0.00  0.00    +0.000 A 
ATOM      4  C   UNL     1       2.880   2.418  20.342  0.00  0.00    +0.000 A 
ATOM      5  C   UNL     1       2.826   3.325  19.282  0.00  0.00    +0.000 A 
ATOM      6  C   UNL     1       2.269   4.599  19.451  0.00  0.00    +0.000 A 
ENDROOT
BRANCH   1   9
ATOM      7  O   UNL     1       2.675   7.452  19.343  0.00  0.00    +0.000 OA
ATOM      8  C   UNL     1       1.803   7.433  20.203  0.00  0.00    +0.000 C 
ATOM      9  N   UNL     1       1.321   6.311  20.849  0.00  0.00    +0.000 N 
ATOM     10  H   UNL     1       0.497   6.435  21.427  0.00  0.00    +0.000 HD
BRANCH   8  11
ATOM     11  C   UNL     1       1.138   8.701  20.651  0.00  0.00    +0.000 A 
ATOM     12  C   UNL     1       0.902   8.823  21.965  0.00  0.00    +0.000 A 
ATOM     13  C   UNL     1       0.134   9.974  22.448  0.00  0.00    +0.000 A 
ATOM     14  O   UNL     1      -0.028  10.174  23.642  0.00  0.00    +0.000 OA
ATOM     15  C   UNL     1      -0.455  10.837  21.415  0.00  0.00    +0.000 A 
ATOM     16  C   UNL     1      -1.393  11.813  21.757  0.00  0.00    +0.000 A 
ATOM     17  C   UNL     1      -1.941  12.616  20.757  0.00  0.00    +0.000 A 
ATOM     18  C   UNL     1      -1.531  12.458  19.431  0.00  0.00    +0.000 A 
ATOM     19  C   UNL     1      -0.596  11.478  19.093  0.00  0.00    +0.000 A 
ATOM     20  C   UNL     1      -0.078  10.644  20.086  0.00  0.00    +0.000 A 
ATOM     21  O   UNL     1       0.767   9.635  19.693  0.00  0.00    +0.000 OA
ENDBRANCH   8  11
ENDBRANCH   1   9
BRANCH   5  22
ATOM     22  S   UNL     1       3.417   2.844  17.667  0.00  0.00    +0.000 S 
ATOM     23  O   UNL     1       3.846   1.464  17.753  0.00  0.00    +0.000 OA
ATOM     24  O   UNL     1       2.410   3.254  16.710  0.00  0.00    +0.000 OA
BRANCH  22  25
ATOM     25  N   UNL     1       4.802   3.830  17.458  0.00  0.00    +0.000 NA
ATOM     26  C   UNL     1       4.721   4.870  16.412  0.00  0.00    +0.000 C 
ATOM     27  C   UNL     1       6.053   5.052  15.689  0.00  0.00    +0.000 C 
ATOM     28  C   UNL     1       7.010   6.007  16.392  0.00  0.00    +0.000 C 
ATOM     29  C   UNL     1       7.481   5.511  17.751  0.00  0.00    +0.000 C 
ATOM     30  C   UNL     1       6.348   5.403  18.762  0.00  0.00    +0.000 C 
ATOM     31  C   UNL     1       5.581   4.089  18.694  0.00  0.00    +0.000 C 
ENDBRANCH  22  25
ENDBRANCH   5  22
TORSDOF 4
ENDMDL
MODEL 6
REMARK VINA RESULT:      -9.0      2.396      3.308
REMARK  Name = 
REMARK  4 active torsions:
REMARK  status: ('A' for Active; 'I' for Inactive)
REMARK    1  A    between atoms: C_2  and  C_20
REMARK    2  A    between atoms: N_3  and  C_4
REMARK    3  A    between atoms: C_8  and  S_9
REMARK    4  A    between atoms: S_9  and  N_12
REMARK                            x       y       z     vdW  Elec       q    Type
REMARK                         _______ _______ _______ _____ _____    ______ ____
ROOT
ATOM      1  C   UNL     1       3.349   5.959  18.298  0.00  0.00    +0.000 A 
ATOM      2  C   UNL     1       2.755   4.696  18.215  0.00  0.00    +0.000 A 
ATOM      3  C   UNL     1       3.417   3.628  17.602  0.00  0.00    +0.000 A 
ATOM      4  C   UNL     1       4.691   3.810  17.073  0.00  0.00    +0.000 A 
ATOM      5  C   UNL     1       5.291   5.067  17.159  0.00  0.00    +0.000 A 
ATOM      6  C   UNL     1       4.614   6.151  17.734  0.00  0.00    +0.000 A 
ENDROOT
BRANCH   1   9
ATOM      7  O   UNL     1       1.870   6.074  20.830  0.00  0.00    +0.000 OA
ATOM      8  C   UNL     1       2.004   7.039  20.087  0.00  0.00    +0.000 C 
ATOM      9  N   UNL     1       2.729   7.067  18.912  0.00  0.00    +0.000 N 
ATOM     10  H   UNL     1       2.871   7.975  18.484  0.00  0.00    +0.000 HD
BRANCH   8  11
ATOM     11  C   UNL     1       1.362   8.355  20.415  0.00  0.00    +0.000 A 
ATOM     12  C   UNL     1       1.140   8.607  21.714  0.00  0.00    +0.000 A 
ATOM     13  C   UNL     1       0.394   9.811  22.089  0.00  0.00    +0.000 A 
ATOM     14  O   UNL     1       0.246  10.128  23.259  0.00  0.00    +0.000 OA
ATOM     15  C   UNL     1      -0.190  10.580  20.982  0.00  0.00    +0.000 A 
ATOM     16  C   UNL     1      -1.111  11.599  21.235  0.00  0.00    +0.000 A 
ATOM     17  C   UNL     1      -1.655  12.311  20.166  0.00  0.00    +0.000 A 
ATOM     18  C   UNL     1      -1.258  12.021  18.859  0.00  0.00    +0.000 A 
ATOM     19  C   UNL     1      -0.342  10.997  18.610  0.00  0.00    +0.000 A 
ATOM     20  C   UNL     1       0.172  10.254  19.675  0.00  0.00    +0.000 A 
ATOM     21  O   UNL     1       0.998   9.198  19.375  0.00  0.00    +0.000 OA
ENDBRANCH   8  11
ENDBRANCH   1   9
BRANCH   5  22
ATOM     22  S   UNL     1       6.919   5.326  16.474  0.00  0.00    +0.000 S 
ATOM     23  O   UNL     1       7.141   6.755  16.404  0.00  0.00    +0.000 OA
ATOM     24  O   UNL     1       7.827   4.465  17.205  0.00  0.00    +0.000 OA
BRANCH  22  25
ATOM     25  N   UNL     1       6.764   4.724  14.878  0.00  0.00    +0.000 NA
ATOM     26  C   UNL     1       5.396   4.666  14.323  0.00  0.00    +0.000 C 
ATOM     27  C   UNL     1       5.192   3.435  13.444  0.00  0.00    +0.000 C 
ATOM     28  C   UNL     1       5.637   3.629  12.000  0.00  0.00    +0.000 C 
ATOM     29  C   UNL     1       7.134   3.852  11.846  0.00  0.00    +0.000 C 
ATOM     30  C   UNL     1       7.605   5.146  12.495  0.00  0.00    +0.000 C 
ATOM     31  C   UNL     1       7.909   5.019  13.981  0.00  0.00    +0.000 C 
ENDBRANCH  22  25
ENDBRANCH   5  22
TORSDOF 4
ENDMDL
MODEL 7
REMARK VINA RESULT:      -8.8      3.073      9.053
REMARK  Name = 
REMARK  4 active torsions:
REMARK  status: ('A' for Active; 'I' for Inactive)
REMARK    1  A    between atoms: C_2  and  C_20
REMARK    2  A    between atoms: N_3  and  C_4
REMARK    3  A    between atoms: C_8  and  S_9
REMARK    4  A    between atoms: S_9  and  N_12
REMARK                            x       y       z     vdW  Elec       q    Type
REMARK                         _______ _______ _______ _____ _____    ______ ____
ROOT
ATOM      1  C   UNL     1       1.525   8.256  20.148  0.00  0.00    +0.000 A 
ATOM      2  C   UNL     1       0.864   7.880  21.322  0.00  0.00    +0.000 A 
ATOM      3  C   UNL     1      -0.086   8.719  21.913  0.00  0.00    +0.000 A 
ATOM      4  C   UNL     1      -0.394   9.943  21.328  0.00  0.00    +0.000 A 
ATOM      5  C   UNL     1       0.258  10.320  20.153  0.00  0.00    +0.000 A 
ATOM      6  C   UNL     1       1.242   9.502  19.580  0.00  0.00    +0.000 A 
ENDROOT
BRANCH   1   9
ATOM      7  O   UNL     1       1.558   5.338  19.832  0.00  0.00    +0.000 OA
ATOM      8  C   UNL     1       2.461   6.066  19.438  0.00  0.00    +0.000 C 
ATOM      9  N   UNL     1       2.485   7.445  19.507  0.00  0.00    +0.000 N 
ATOM     10  H   UNL     1       3.230   7.915  19.006  0.00  0.00    +0.000 HD
BRANCH   8  11
ATOM     11  C   UNL     1       3.689   5.487  18.797  0.00  0.00    +0.000 A 
ATOM     12  C   UNL     1       4.813   5.513  19.527  0.00  0.00    +0.000 A 
ATOM     13  C   UNL     1       6.073   5.090  18.910  0.00  0.00    +0.000 A 
ATOM     14  O   UNL     1       7.104   5.011  19.560  0.00  0.00    +0.000 OA
ATOM     15  C   UNL     1       6.024   4.809  17.469  0.00  0.00    +0.000 A 
ATOM     16  C   UNL     1       7.202   4.631  16.740  0.00  0.00    +0.000 A 
ATOM     17  C   UNL     1       7.129   4.370  15.373  0.00  0.00    +0.000 A 
ATOM     18  C   UNL     1       5.885   4.262  14.748  0.00  0.00    +0.000 A 
ATOM     19  C   UNL     1       4.709   4.446  15.479  0.00  0.00    +0.000 A 
ATOM     20  C   UNL     1       4.781   4.749  16.840  0.00  0.00    +0.000 A 
ATOM     21  O   UNL     1       3.603   5.013  17.496  0.00  0.00    +0.000 OA
ENDBRANCH   8  11
ENDBRANCH   1   9
BRANCH   5  22
ATOM     22  S   UNL     1      -0.113  11.892  19.392  0.00  0.00    +0.000 S 
ATOM     23  O   UNL     1      -0.488  12.809  20.447  0.00  0.00    +0.000 OA
ATOM     24  O   UNL     1       0.982  12.196  18.493  0.00  0.00    +0.000 OA
BRANCH  22  25
ATOM     25  N   UNL     1      -1.506  11.545  18.456  0.00  0.00    +0.000 NA
ATOM     26  C   UNL     1      -1.579  10.197  17.855  0.00  0.00    +0.000 C 
ATOM     27  C   UNL     1      -2.219  10.229  16.470  0.00  0.00    +0.000 C 
ATOM     28  C   UNL     1      -3.741  10.168  16.493  0.00  0.00    +0.000 C 
ATOM     29  C   UNL     1      -4.392  11.380  17.142  0.00  0.00    +0.000 C 
ATOM     30  C   UNL     1      -4.062  11.501  18.624  0.00  0.00    +0.000 C 
ATOM     31  C   UNL     1      -2.749  12.217  18.908  0.00  0.00    +0.000 C 
ENDBRANCH  22  25
ENDBRANCH   5  22
TORSDOF 4
ENDMDL
MODEL 8
REMARK VINA RESULT:      -8.8      2.525      3.733
REMARK  Name = 
REMARK  4 active torsions:
REMARK  status: ('A' for Active; 'I' for Inactive)
REMARK    1  A    between atoms: C_2  and  C_20
REMARK    2  A    between atoms: N_3  and  C_4
REMARK    3  A    between atoms: C_8  and  S_9
REMARK    4  A    between atoms: S_9  and  N_12
REMARK                            x       y       z     vdW  Elec       q    Type
REMARK                         _______ _______ _______ _____ _____    ______ ____
ROOT
ATOM      1  C   UNL     1       3.382   5.823  18.207  0.00  0.00    +0.000 A 
ATOM      2  C   UNL     1       2.879   4.518  18.250  0.00  0.00    +0.000 A 
ATOM      3  C   UNL     1       3.615   3.447  17.735  0.00  0.00    +0.000 A 
ATOM      4  C   UNL     1       4.871   3.667  17.180  0.00  0.00    +0.000 A 
ATOM      5  C   UNL     1       5.380   4.967  17.141  0.00  0.00    +0.000 A 
ATOM      6  C   UNL     1       4.629   6.050  17.617  0.00  0.00    +0.000 A 
ENDROOT
BRANCH   1   9
ATOM      7  O   UNL     1       2.026   6.121  20.794  0.00  0.00    +0.000 OA
ATOM      8  C   UNL     1       2.027   6.992  19.932  0.00  0.00    +0.000 C 
ATOM      9  N   UNL     1       2.685   6.937  18.720  0.00  0.00    +0.000 N 
ATOM     10  H   UNL     1       2.715   7.793  18.176  0.00  0.00    +0.000 HD
BRANCH   8  11
ATOM     11  C   UNL     1       1.273   8.274  20.136  0.00  0.00    +0.000 A 
ATOM     12  C   UNL     1       1.481   9.241  19.231  0.00  0.00    +0.000 A 
ATOM     13  C   UNL     1       0.883  10.561  19.449  0.00  0.00    +0.000 A 
ATOM     14  O   UNL     1       0.970  11.444  18.609  0.00  0.00    +0.000 OA
ATOM     15  C   UNL     1       0.216  10.763  20.742  0.00  0.00    +0.000 A 
ATOM     16  C   UNL     1      -0.175  12.041  21.147  0.00  0.00    +0.000 A 
ATOM     17  C   UNL     1      -0.802  12.206  22.381  0.00  0.00    +0.000 A 
ATOM     18  C   UNL     1      -1.058  11.096  23.189  0.00  0.00    +0.000 A 
ATOM     19  C   UNL     1      -0.661   9.821  22.783  0.00  0.00    +0.000 A 
ATOM     20  C   UNL     1       0.005   9.658  21.567  0.00  0.00    +0.000 A 
ATOM     21  O   UNL     1       0.460   8.400  21.253  0.00  0.00    +0.000 OA
ENDBRANCH   8  11
ENDBRANCH   1   9
BRANCH   5  22
ATOM     22  S   UNL     1       6.985   5.274  16.422  0.00  0.00    +0.000 S 
ATOM     23  O   UNL     1       7.172   6.709  16.368  0.00  0.00    +0.000 OA
ATOM     24  O   UNL     1       7.930   4.424  17.116  0.00  0.00    +0.000 OA
BRANCH  22  25
ATOM     25  N   UNL     1       6.804   4.692  14.820  0.00  0.00    +0.000 NA
ATOM     26  C   UNL     1       5.425   4.618  14.296  0.00  0.00    +0.000 C 
ATOM     27  C   UNL     1       5.223   3.396  13.403  0.00  0.00    +0.000 C 
ATOM     28  C   UNL     1       5.632   3.618  11.953  0.00  0.00    +0.000 C 
ATOM     29  C   UNL     1       7.121   3.871  11.768  0.00  0.00    +0.000 C 
ATOM     30  C   UNL     1       7.583   5.164  12.425  0.00  0.00    +0.000 C 
ATOM     31  C   UNL     1       7.923   5.021  13.902  0.00  0.00    +0.000 C 
ENDBRANCH  22  25
ENDBRANCH   5  22
TORSDOF 4
ENDMDL
MODEL 9
REMARK VINA RESULT:      -8.8      3.598     10.096
REMARK  Name = 
REMARK  4 active torsions:
REMARK  status: ('A' for Active; 'I' for Inactive)
REMARK    1  A    between atoms: C_2  and  C_20
REMARK    2  A    between atoms: N_3  and  C_4
REMARK    3  A    between atoms: C_8  and  S_9
REMARK    4  A    between atoms: S_9  and  N_12
REMARK                            x       y       z     vdW  Elec       q    Type
REMARK                         _______ _______ _______ _____ _____    ______ ____
ROOT
ATOM      1  C   UNL     1       0.006  10.229  19.237  0.00  0.00    +0.000 A 
ATOM      2  C   UNL     1      -1.079  10.291  18.357  0.00  0.00    +0.000 A 
ATOM      3  C   UNL     1      -1.906  11.417  18.313  0.00  0.00    +0.000 A 
ATOM      4  C   UNL     1      -1.649  12.503  19.144  0.00  0.00    +0.000 A 
ATOM      5  C   UNL     1      -0.563  12.449  20.019  0.00  0.00    +0.000 A 
ATOM      6  C   UNL     1       0.243  11.305  20.097  0.00  0.00    +0.000 A 
ENDROOT
BRANCH   1   9
ATOM      7  O   UNL     1       2.158   9.440  17.402  0.00  0.00    +0.000 OA
ATOM      8  C   UNL     1       1.839   8.783  18.386  0.00  0.00    +0.000 C 
ATOM      9  N   UNL     1       0.876   9.121  19.315  0.00  0.00    +0.000 N 
ATOM     10  H   UNL     1       0.829   8.552  20.154  0.00  0.00    +0.000 HD
BRANCH   8  11
ATOM     11  C   UNL     1       2.517   7.478  18.689  0.00  0.00    +0.000 A 
ATOM     12  C   UNL     1       3.405   7.040  17.784  0.00  0.00    +0.000 A 
ATOM     13  C   UNL     1       3.998   5.710  17.953  0.00  0.00    +0.000 A 
ATOM     14  O   UNL     1       4.876   5.307  17.207  0.00  0.00    +0.000 OA
ATOM     15  C   UNL     1       3.445   4.890  19.040  0.00  0.00    +0.000 A 
ATOM     16  C   UNL     1       3.766   3.535  19.139  0.00  0.00    +0.000 A 
ATOM     17  C   UNL     1       3.225   2.777  20.177  0.00  0.00    +0.000 A 
ATOM     18  C   UNL     1       2.392   3.381  21.122  0.00  0.00    +0.000 A 
ATOM     19  C   UNL     1       2.069   4.735  21.016  0.00  0.00    +0.000 A 
ATOM     20  C   UNL     1       2.576   5.486  19.954  0.00  0.00    +0.000 A 
ATOM     21  O   UNL     1       2.157   6.789  19.838  0.00  0.00    +0.000 OA
ENDBRANCH   8  11
ENDBRANCH   1   9
BRANCH   5  22
ATOM     22  S   UNL     1      -0.223  13.826  21.104  0.00  0.00    +0.000 S 
ATOM     23  O   UNL     1       0.982  13.512  21.842  0.00  0.00    +0.000 OA
ATOM     24  O   UNL     1      -0.315  15.028  20.302  0.00  0.00    +0.000 OA
BRANCH  22  25
ATOM     25  N   UNL     1      -1.548  13.793  22.191  0.00  0.00    +0.000 NA
ATOM     26  C   UNL     1      -1.655  12.608  23.066  0.00  0.00    +0.000 C 
ATOM     27  C   UNL     1      -3.107  12.195  23.286  0.00  0.00    +0.000 C 
ATOM     28  C   UNL     1      -3.796  12.944  24.421  0.00  0.00    +0.000 C 
ATOM     29  C   UNL     1      -3.952  14.436  24.164  0.00  0.00    +0.000 C 
ATOM     30  C   UNL     1      -2.616  15.160  24.076  0.00  0.00    +0.000 C 
ATOM     31  C   UNL     1      -1.980  15.121  22.693  0.00  0.00    +0.000 C 
ENDBRANCH  22  25
ENDBRANCH   5  22
TORSDOF 4
ENDMDL
