MODEL 1
REMARK VINA RESULT:      -9.0      0.000      0.000
REMARK  Name = 
REMARK  6 active torsions:
REMARK  status: ('A' for Active; 'I' for Inactive)
REMARK    1  A    between atoms: C_2  and  C_21
REMARK    2  A    between atoms: N_3  and  C_4
REMARK    3  A    between atoms: C_8  and  C_9
REMARK    4  A    between atoms: C_9  and  N_10
REMARK    5  A    between atoms: C_25  and  O_26
REMARK    6  A    between atoms: O_26  and  C_27
REMARK                            x       y       z     vdW  Elec       q    Type
REMARK                         _______ _______ _______ _____ _____    ______ ____
ROOT
ATOM      1  C   UNL     1       7.897   8.155  17.949  0.00  0.00    +0.000 A 
ATOM      2  C   UNL     1       8.382   7.210  18.854  0.00  0.00    +0.000 A 
ATOM      3  C   UNL     1       7.781   5.956  18.961  0.00  0.00    +0.000 A 
ATOM      4  C   UNL     1       6.671   5.642  18.182  0.00  0.00    +0.000 A 
ATOM      5  C   UNL     1       6.126   6.595  17.312  0.00  0.00    +0.000 A 
ATOM      6  C   UNL     1       6.755   7.848  17.194  0.00  0.00    +0.000 A 
ENDROOT
BRANCH   1   9
ATOM      7  O   UNL     1       8.999  10.055  19.938  0.00  0.00    +0.000 OA
ATOM      8  C   UNL     1       8.999  10.256  18.726  0.00  0.00    +0.000 C 
ATOM      9  N   UNL     1       8.509   9.412  17.741  0.00  0.00    +0.000 N 
ATOM     10  H   UNL     1       8.730   9.642  16.783  0.00  0.00    +0.000 HD
BRANCH   8  11
ATOM     11  C   UNL     1       9.652  11.496  18.239  0.00  0.00    +0.000 A 
ATOM     12  C   UNL     1      10.989  11.428  17.825  0.00  0.00    +0.000 A 
ATOM     13  C   UNL     1      11.636  12.571  17.362  0.00  0.00    +0.000 A 
ATOM     14  C   UNL     1      10.959  13.792  17.331  0.00  0.00    +0.000 A 
ATOM     15  C   UNL     1       9.639  13.876  17.782  0.00  0.00    +0.000 A 
ATOM     16  C   UNL     1       8.982  12.722  18.221  0.00  0.00    +0.000 A 
BRANCH  15  17
ATOM     17  O   UNL     1       8.884  15.012  17.821  0.00  0.00    +0.000 OA
BRANCH  17  18
ATOM     18  C   UNL     1       9.603  16.228  17.946  0.00  0.00    +0.000 C 
ATOM     19  F   UNL     1       9.958  16.656  16.710  0.00  0.00    +0.000 F 
ATOM     20  F   UNL     1       8.746  17.153  18.447  0.00  0.00    +0.000 F 
ENDBRANCH  17  18
ENDBRANCH  15  17
ENDBRANCH   8  11
ENDBRANCH   1   9
BRANCH   5  21
ATOM     21  C   UNL     1       4.894   6.262  16.503  0.00  0.00    +0.000 C 
BRANCH  21  22
ATOM     22  N   UNL     1       3.977   5.406  17.212  0.00  0.00    +0.000 N 
ATOM     23  N   UNL     1       3.860   4.046  16.970  0.00  0.00    +0.000 NA
ATOM     24  C   UNL     1       2.964   3.665  17.827  0.00  0.00    +0.000 A 
ATOM     25  C   UNL     1       2.426   2.302  18.026  0.00  0.00    +0.000 A 
ATOM     26  C   UNL     1       1.520   2.121  19.003  0.00  0.00    +0.000 A 
ATOM     27  C   UNL     1       1.074   3.225  19.834  0.00  0.00    +0.000 A 
ATOM     28  C   UNL     1       1.551   4.461  19.619  0.00  0.00    +0.000 A 
ATOM     29  N   UNL     1       2.473   4.649  18.626  0.00  0.00    +0.000 N 
ATOM     30  C   UNL     1       3.108   5.806  18.239  0.00  0.00    +0.000 A 
ATOM     31  O   UNL     1       2.948   6.934  18.679  0.00  0.00    +0.000 OA
ENDBRANCH  21  22
ENDBRANCH   5  21
TORSDOF 6
ENDMDL
MODEL 2
REMARK VINA RESULT:      -8.9      1.330      1.714
REMARK  Name = 
REMARK  6 active torsions:
REMARK  status: ('A' for Active; 'I' for Inactive)
REMARK    1  A    between atoms: C_2  and  C_21
REMARK    2  A    between atoms: N_3  and  C_4
REMARK    3  A    between atoms: C_8  and  C_9
REMARK    4  A    between atoms: C_9  and  N_10
REMARK    5  A    between atoms: C_25  and  O_26
REMARK    6  A    between atoms: O_26  and  C_27
REMARK                            x       y       z     vdW  Elec       q    Type
REMARK                         _______ _______ _______ _____ _____    ______ ____
ROOT
ATOM      1  C   UNL     1       7.845   8.182  17.966  0.00  0.00    +0.000 A 
ATOM      2  C   UNL     1       8.415   7.201  18.778  0.00  0.00    +0.000 A 
ATOM      3  C   UNL     1       7.830   5.939  18.885  0.00  0.00    +0.000 A 
ATOM      4  C   UNL     1       6.653   5.653  18.198  0.00  0.00    +0.000 A 
ATOM      5  C   UNL     1       6.027   6.640  17.426  0.00  0.00    +0.000 A 
ATOM      6  C   UNL     1       6.639   7.901  17.307  0.00  0.00    +0.000 A 
ENDROOT
BRANCH   1   9
ATOM      7  O   UNL     1       9.142   9.989  19.923  0.00  0.00    +0.000 OA
ATOM      8  C   UNL     1       9.019  10.249  18.729  0.00  0.00    +0.000 C 
ATOM      9  N   UNL     1       8.432   9.451  17.758  0.00  0.00    +0.000 N 
ATOM     10  H   UNL     1       8.554   9.729  16.795  0.00  0.00    +0.000 HD
BRANCH   8  11
ATOM     11  C   UNL     1       9.619  11.515  18.239  0.00  0.00    +0.000 A 
ATOM     12  C   UNL     1      10.945  11.495  17.791  0.00  0.00    +0.000 A 
ATOM     13  C   UNL     1      11.542  12.664  17.324  0.00  0.00    +0.000 A 
ATOM     14  C   UNL     1      10.825  13.862  17.323  0.00  0.00    +0.000 A 
ATOM     15  C   UNL     1       9.516  13.897  17.810  0.00  0.00    +0.000 A 
ATOM     16  C   UNL     1       8.908  12.718  18.251  0.00  0.00    +0.000 A 
BRANCH  15  17
ATOM     17  O   UNL     1       8.725  15.007  17.880  0.00  0.00    +0.000 OA
BRANCH  17  18
ATOM     18  C   UNL     1       7.396  14.792  18.326  0.00  0.00    +0.000 C 
ATOM     19  F   UNL     1       7.214  15.452  19.495  0.00  0.00    +0.000 F 
ATOM     20  F   UNL     1       6.568  15.369  17.419  0.00  0.00    +0.000 F 
ENDBRANCH  17  18
ENDBRANCH  15  17
ENDBRANCH   8  11
ENDBRANCH   1   9
BRANCH   5  21
ATOM     21  C   UNL     1       4.725   6.335  16.721  0.00  0.00    +0.000 C 
BRANCH  21  22
ATOM     22  N   UNL     1       3.898   5.410  17.453  0.00  0.00    +0.000 N 
ATOM     23  N   UNL     1       3.019   5.797  18.452  0.00  0.00    +0.000 NA
ATOM     24  C   UNL     1       2.467   4.680  18.815  0.00  0.00    +0.000 A 
ATOM     25  C   UNL     1       1.442   4.477  19.861  0.00  0.00    +0.000 A 
ATOM     26  C   UNL     1       0.979   3.229  20.053  0.00  0.00    +0.000 A 
ATOM     27  C   UNL     1       1.470   2.112  19.266  0.00  0.00    +0.000 A 
ATOM     28  C   UNL     1       2.421   2.311  18.341  0.00  0.00    +0.000 A 
ATOM     29  N   UNL     1       2.895   3.579  18.144  0.00  0.00    +0.000 N 
ATOM     30  C   UNL     1       3.844   4.021  17.252  0.00  0.00    +0.000 A 
ATOM     31  O   UNL     1       4.503   3.359  16.465  0.00  0.00    +0.000 OA
ENDBRANCH  21  22
ENDBRANCH   5  21
TORSDOF 6
ENDMDL
MODEL 3
REMARK VINA RESULT:      -8.7      6.875      9.778
REMARK  Name = 
REMARK  6 active torsions:
REMARK  status: ('A' for Active; 'I' for Inactive)
REMARK    1  A    between atoms: C_2  and  C_21
REMARK    2  A    between atoms: N_3  and  C_4
REMARK    3  A    between atoms: C_8  and  C_9
REMARK    4  A    between atoms: C_9  and  N_10
REMARK    5  A    between atoms: C_25  and  O_26
REMARK    6  A    between atoms: O_26  and  C_27
REMARK                            x       y       z     vdW  Elec       q    Type
REMARK                         _______ _______ _______ _____ _____    ______ ____
ROOT
ATOM      1  C   UNL     1       1.429   8.580  20.210  0.00  0.00    +0.000 A 
ATOM      2  C   UNL     1       1.101   8.547  21.566  0.00  0.00    +0.000 A 
ATOM      3  C   UNL     1       0.243   9.501  22.113  0.00  0.00    +0.000 A 
ATOM      4  C   UNL     1      -0.277  10.515  21.314  0.00  0.00    +0.000 A 
ATOM      5  C   UNL     1       0.086  10.608  19.964  0.00  0.00    +0.000 A 
ATOM      6  C   UNL     1       0.932   9.627  19.418  0.00  0.00    +0.000 A 
ENDROOT
BRANCH   1   9
ATOM      7  O   UNL     1       1.527   5.657  20.686  0.00  0.00    +0.000 OA
ATOM      8  C   UNL     1       2.227   6.241  19.862  0.00  0.00    +0.000 C 
ATOM      9  N   UNL     1       2.230   7.599  19.582  0.00  0.00    +0.000 N 
ATOM     10  H   UNL     1       2.741   7.902  18.766  0.00  0.00    +0.000 HD
BRANCH   8  11
ATOM     11  C   UNL     1       3.122   5.413  19.017  0.00  0.00    +0.000 A 
ATOM     12  C   UNL     1       2.569   4.736  17.922  0.00  0.00    +0.000 A 
ATOM     13  C   UNL     1       3.378   3.949  17.106  0.00  0.00    +0.000 A 
ATOM     14  C   UNL     1       4.738   3.815  17.391  0.00  0.00    +0.000 A 
ATOM     15  C   UNL     1       5.288   4.452  18.507  0.00  0.00    +0.000 A 
ATOM     16  C   UNL     1       4.481   5.265  19.309  0.00  0.00    +0.000 A 
BRANCH  15  17
ATOM     17  O   UNL     1       6.593   4.380  18.899  0.00  0.00    +0.000 OA
BRANCH  17  18
ATOM     18  C   UNL     1       7.525   5.060  18.073  0.00  0.00    +0.000 C 
ATOM     19  F   UNL     1       7.881   4.244  17.051  0.00  0.00    +0.000 F 
ATOM     20  F   UNL     1       6.878   6.117  17.521  0.00  0.00    +0.000 F 
ENDBRANCH  17  18
ENDBRANCH  15  17
ENDBRANCH   8  11
ENDBRANCH   1   9
BRANCH   5  21
ATOM     21  C   UNL     1      -0.447  11.739  19.115  0.00  0.00    +0.000 C 
BRANCH  21  22
ATOM     22  N   UNL     1      -1.882  11.715  18.991  0.00  0.00    +0.000 N 
ATOM     23  N   UNL     1      -2.732  12.450  19.802  0.00  0.00    +0.000 NA
ATOM     24  C   UNL     1      -3.910  12.164  19.339  0.00  0.00    +0.000 A 
ATOM     25  C   UNL     1      -5.216  12.660  19.825  0.00  0.00    +0.000 A 
ATOM     26  C   UNL     1      -6.322  12.260  19.172  0.00  0.00    +0.000 A 
ATOM     27  C   UNL     1      -6.243  11.365  18.031  0.00  0.00    +0.000 A 
ATOM     28  C   UNL     1      -5.051  10.903  17.623  0.00  0.00    +0.000 A 
ATOM     29  N   UNL     1      -3.925  11.307  18.285  0.00  0.00    +0.000 N 
ATOM     30  C   UNL     1      -2.611  10.983  18.039  0.00  0.00    +0.000 A 
ATOM     31  O   UNL     1      -2.170  10.221  17.192  0.00  0.00    +0.000 OA
ENDBRANCH  21  22
ENDBRANCH   5  21
TORSDOF 6
ENDMDL
MODEL 4
REMARK VINA RESULT:      -8.7      6.806      9.714
REMARK  Name = 
REMARK  6 active torsions:
REMARK  status: ('A' for Active; 'I' for Inactive)
REMARK    1  A    between atoms: C_2  and  C_21
REMARK    2  A    between atoms: N_3  and  C_4
REMARK    3  A    between atoms: C_8  and  C_9
REMARK    4  A    between atoms: C_9  and  N_10
REMARK    5  A    between atoms: C_25  and  O_26
REMARK    6  A    between atoms: O_26  and  C_27
REMARK                            x       y       z     vdW  Elec       q    Type
REMARK                         _______ _______ _______ _____ _____    ______ ____
ROOT
ATOM      1  C   UNL     1       1.345   8.469  20.589  0.00  0.00    +0.000 A 
ATOM      2  C   UNL     1       1.122   8.610  21.960  0.00  0.00    +0.000 A 
ATOM      3  C   UNL     1       0.430   9.715  22.456  0.00  0.00    +0.000 A 
ATOM      4  C   UNL     1      -0.024  10.704  21.588  0.00  0.00    +0.000 A 
ATOM      5  C   UNL     1       0.241  10.617  20.216  0.00  0.00    +0.000 A 
ATOM      6  C   UNL     1       0.919   9.487  19.724  0.00  0.00    +0.000 A 
ENDROOT
BRANCH   1   9
ATOM      7  O   UNL     1       2.593   8.162  17.919  0.00  0.00    +0.000 OA
ATOM      8  C   UNL     1       2.532   7.262  18.754  0.00  0.00    +0.000 C 
ATOM      9  N   UNL     1       1.972   7.336  20.020  0.00  0.00    +0.000 N 
ATOM     10  H   UNL     1       2.146   6.566  20.649  0.00  0.00    +0.000 HD
BRANCH   8  11
ATOM     11  C   UNL     1       3.185   5.973  18.418  0.00  0.00    +0.000 A 
ATOM     12  C   UNL     1       2.402   4.954  17.862  0.00  0.00    +0.000 A 
ATOM     13  C   UNL     1       2.978   3.729  17.533  0.00  0.00    +0.000 A 
ATOM     14  C   UNL     1       4.335   3.508  17.780  0.00  0.00    +0.000 A 
ATOM     15  C   UNL     1       5.112   4.505  18.375  0.00  0.00    +0.000 A 
ATOM     16  C   UNL     1       4.539   5.744  18.678  0.00  0.00    +0.000 A 
BRANCH  15  17
ATOM     17  O   UNL     1       6.438   4.400  18.684  0.00  0.00    +0.000 OA
BRANCH  17  18
ATOM     18  C   UNL     1       7.342   4.835  17.681  0.00  0.00    +0.000 C 
ATOM     19  F   UNL     1       7.755   6.091  17.981  0.00  0.00    +0.000 F 
ATOM     20  F   UNL     1       8.437   4.037  17.752  0.00  0.00    +0.000 F 
ENDBRANCH  17  18
ENDBRANCH  15  17
ENDBRANCH   8  11
ENDBRANCH   1   9
BRANCH   5  21
ATOM     21  C   UNL     1      -0.216  11.718  19.287  0.00  0.00    +0.000 C 
BRANCH  21  22
ATOM     22  N   UNL     1      -1.641  11.714  19.075  0.00  0.00    +0.000 N 
ATOM     23  N   UNL     1      -2.534  12.405  19.879  0.00  0.00    +0.000 NA
ATOM     24  C   UNL     1      -3.684  12.159  19.329  0.00  0.00    +0.000 A 
ATOM     25  C   UNL     1      -5.014  12.635  19.766  0.00  0.00    +0.000 A 
ATOM     26  C   UNL     1      -6.080  12.285  19.025  0.00  0.00    +0.000 A 
ATOM     27  C   UNL     1      -5.938  11.461  17.837  0.00  0.00    +0.000 A 
ATOM     28  C   UNL     1      -4.726  11.014  17.474  0.00  0.00    +0.000 A 
ATOM     29  N   UNL     1      -3.639  11.367  18.225  0.00  0.00    +0.000 N 
ATOM     30  C   UNL     1      -2.314  11.048  18.039  0.00  0.00    +0.000 A 
ATOM     31  O   UNL     1      -1.827  10.336  17.174  0.00  0.00    +0.000 OA
ENDBRANCH  21  22
ENDBRANCH   5  21
TORSDOF 6
ENDMDL
MODEL 5
REMARK VINA RESULT:      -8.6      6.509      9.103
REMARK  Name = 
REMARK  6 active torsions:
REMARK  status: ('A' for Active; 'I' for Inactive)
REMARK    1  A    between atoms: C_2  and  C_21
REMARK    2  A    between atoms: N_3  and  C_4
REMARK    3  A    between atoms: C_8  and  C_9
REMARK    4  A    between atoms: C_9  and  N_10
REMARK    5  A    between atoms: C_25  and  O_26
REMARK    6  A    between atoms: O_26  and  C_27
REMARK                            x       y       z     vdW  Elec       q    Type
REMARK                         _______ _______ _______ _____ _____    ______ ____
ROOT
ATOM      1  C   UNL     1       1.785   8.621  18.522  0.00  0.00    +0.000 A 
ATOM      2  C   UNL     1       0.808   9.178  17.696  0.00  0.00    +0.000 A 
ATOM      3  C   UNL     1      -0.197   9.985  18.229  0.00  0.00    +0.000 A 
ATOM      4  C   UNL     1      -0.250  10.223  19.599  0.00  0.00    +0.000 A 
ATOM      5  C   UNL     1       0.681   9.625  20.458  0.00  0.00    +0.000 A 
ATOM      6  C   UNL     1       1.704   8.833  19.906  0.00  0.00    +0.000 A 
ENDROOT
BRANCH   1   9
ATOM      7  O   UNL     1       2.171   5.683  18.538  0.00  0.00    +0.000 OA
ATOM      8  C   UNL     1       2.987   6.478  18.079  0.00  0.00    +0.000 C 
ATOM      9  N   UNL     1       2.871   7.859  18.032  0.00  0.00    +0.000 N 
ATOM     10  H   UNL     1       3.548   8.362  17.477  0.00  0.00    +0.000 HD
BRANCH   8  11
ATOM     11  C   UNL     1       4.202   5.917  17.438  0.00  0.00    +0.000 A 
ATOM     12  C   UNL     1       4.158   4.602  16.959  0.00  0.00    +0.000 A 
ATOM     13  C   UNL     1       5.279   4.041  16.352  0.00  0.00    +0.000 A 
ATOM     14  C   UNL     1       6.457   4.782  16.240  0.00  0.00    +0.000 A 
ATOM     15  C   UNL     1       6.522   6.080  16.755  0.00  0.00    +0.000 A 
ATOM     16  C   UNL     1       5.387   6.652  17.339  0.00  0.00    +0.000 A 
BRANCH  15  17
ATOM     17  O   UNL     1       7.619   6.891  16.726  0.00  0.00    +0.000 OA
BRANCH  17  18
ATOM     18  C   UNL     1       7.762   7.777  17.824  0.00  0.00    +0.000 C 
ATOM     19  F   UNL     1       8.524   7.179  18.772  0.00  0.00    +0.000 F 
ATOM     20  F   UNL     1       8.460   8.854  17.385  0.00  0.00    +0.000 F 
ENDBRANCH  17  18
ENDBRANCH  15  17
ENDBRANCH   8  11
ENDBRANCH   1   9
BRANCH   5  21
ATOM     21  C   UNL     1       0.588   9.852  21.949  0.00  0.00    +0.000 C 
BRANCH  21  22
ATOM     22  N   UNL     1      -0.302  10.931  22.295  0.00  0.00    +0.000 N 
ATOM     23  N   UNL     1      -1.523  10.742  22.923  0.00  0.00    +0.000 NA
ATOM     24  C   UNL     1      -1.973  11.950  23.071  0.00  0.00    +0.000 A 
ATOM     25  C   UNL     1      -3.253  12.368  23.682  0.00  0.00    +0.000 A 
ATOM     26  C   UNL     1      -3.509  13.685  23.766  0.00  0.00    +0.000 A 
ATOM     27  C   UNL     1      -2.566  14.671  23.268  0.00  0.00    +0.000 A 
ATOM     28  C   UNL     1      -1.422  14.271  22.690  0.00  0.00    +0.000 A 
ATOM     29  N   UNL     1      -1.159  12.932  22.603  0.00  0.00    +0.000 N 
ATOM     30  C   UNL     1      -0.060  12.296  22.075  0.00  0.00    +0.000 A 
ATOM     31  O   UNL     1       0.909  12.800  21.528  0.00  0.00    +0.000 OA
ENDBRANCH  21  22
ENDBRANCH   5  21
TORSDOF 6
ENDMDL
MODEL 6
REMARK VINA RESULT:      -8.5      6.679      9.597
REMARK  Name = 
REMARK  6 active torsions:
REMARK  status: ('A' for Active; 'I' for Inactive)
REMARK    1  A    between atoms: C_2  and  C_21
REMARK    2  A    between atoms: N_3  and  C_4
REMARK    3  A    between atoms: C_8  and  C_9
REMARK    4  A    between atoms: C_9  and  N_10
REMARK    5  A    between atoms: C_25  and  O_26
REMARK    6  A    between atoms: O_26  and  C_27
REMARK                            x       y       z     vdW  Elec       q    Type
REMARK                         _______ _______ _______ _____ _____    ______ ____
ROOT
ATOM      1  C   UNL     1       1.456   8.587  20.504  0.00  0.00    +0.000 A 
ATOM      2  C   UNL     1       1.187   8.363  21.855  0.00  0.00    +0.000 A 
ATOM      3  C   UNL     1       0.468   9.298  22.601  0.00  0.00    +0.000 A 
ATOM      4  C   UNL     1       0.033  10.480  22.008  0.00  0.00    +0.000 A 
ATOM      5  C   UNL     1       0.344  10.757  20.671  0.00  0.00    +0.000 A 
ATOM      6  C   UNL     1       1.049   9.796  19.923  0.00  0.00    +0.000 A 
ENDROOT
BRANCH   1   9
ATOM      7  O   UNL     1       1.670   5.648  20.821  0.00  0.00    +0.000 OA
ATOM      8  C   UNL     1       2.176   6.276  19.894  0.00  0.00    +0.000 C 
ATOM      9  N   UNL     1       2.112   7.644  19.680  0.00  0.00    +0.000 N 
ATOM     10  H   UNL     1       2.437   7.989  18.788  0.00  0.00    +0.000 HD
BRANCH   8  11
ATOM     11  C   UNL     1       2.876   5.496  18.843  0.00  0.00    +0.000 A 
ATOM     12  C   UNL     1       2.207   4.415  18.257  0.00  0.00    +0.000 A 
ATOM     13  C   UNL     1       2.832   3.659  17.268  0.00  0.00    +0.000 A 
ATOM     14  C   UNL     1       4.136   3.967  16.874  0.00  0.00    +0.000 A 
ATOM     15  C   UNL     1       4.825   5.018  17.485  0.00  0.00    +0.000 A 
ATOM     16  C   UNL     1       4.187   5.793  18.458  0.00  0.00    +0.000 A 
BRANCH  15  17
ATOM     17  O   UNL     1       6.105   5.398  17.202  0.00  0.00    +0.000 OA
BRANCH  17  18
ATOM     18  C   UNL     1       7.100   4.935  18.101  0.00  0.00    +0.000 C 
ATOM     19  F   UNL     1       8.047   4.267  17.397  0.00  0.00    +0.000 F 
ATOM     20  F   UNL     1       7.706   6.027  18.630  0.00  0.00    +0.000 F 
ENDBRANCH  17  18
ENDBRANCH  15  17
ENDBRANCH   8  11
ENDBRANCH   1   9
BRANCH   5  21
ATOM     21  C   UNL     1      -0.092  12.064  20.049  0.00  0.00    +0.000 C 
BRANCH  21  22
ATOM     22  N   UNL     1      -1.283  11.930  19.249  0.00  0.00    +0.000 N 
ATOM     23  N   UNL     1      -1.270  11.532  17.921  0.00  0.00    +0.000 NA
ATOM     24  C   UNL     1      -2.527  11.516  17.601  0.00  0.00    +0.000 A 
ATOM     25  C   UNL     1      -3.121  11.169  16.291  0.00  0.00    +0.000 A 
ATOM     26  C   UNL     1      -4.462  11.184  16.186  0.00  0.00    +0.000 A 
ATOM     27  C   UNL     1      -5.304  11.535  17.316  0.00  0.00    +0.000 A 
ATOM     28  C   UNL     1      -4.745  11.876  18.488  0.00  0.00    +0.000 A 
ATOM     29  N   UNL     1      -3.383  11.862  18.598  0.00  0.00    +0.000 N 
ATOM     30  C   UNL     1      -2.597  12.152  19.690  0.00  0.00    +0.000 A 
ATOM     31  O   UNL     1      -2.956  12.529  20.795  0.00  0.00    +0.000 OA
ENDBRANCH  21  22
ENDBRANCH   5  21
TORSDOF 6
ENDMDL
MODEL 7
REMARK VINA RESULT:      -8.5      7.580     10.380
REMARK  Name = 
REMARK  6 active torsions:
REMARK  status: ('A' for Active; 'I' for Inactive)
REMARK    1  A    between atoms: C_2  and  C_21
REMARK    2  A    between atoms: N_3  and  C_4
REMARK    3  A    between atoms: C_8  and  C_9
REMARK    4  A    between atoms: C_9  and  N_10
REMARK    5  A    between atoms: C_25  and  O_26
REMARK    6  A    between atoms: O_26  and  C_27
REMARK                            x       y       z     vdW  Elec       q    Type
REMARK                         _______ _______ _______ _____ _____    ______ ____
ROOT
ATOM      1  C   UNL     1       1.399   8.595  20.290  0.00  0.00    +0.000 A 
ATOM      2  C   UNL     1       1.184   8.550  21.669  0.00  0.00    +0.000 A 
ATOM      3  C   UNL     1       0.481   9.569  22.311  0.00  0.00    +0.000 A 
ATOM      4  C   UNL     1       0.006  10.658  21.585  0.00  0.00    +0.000 A 
ATOM      5  C   UNL     1       0.262  10.757  20.211  0.00  0.00    +0.000 A 
ATOM      6  C   UNL     1       0.952   9.712  19.570  0.00  0.00    +0.000 A 
ENDROOT
BRANCH   1   9
ATOM      7  O   UNL     1       2.427   8.596  17.511  0.00  0.00    +0.000 OA
ATOM      8  C   UNL     1       2.489   7.627  18.264  0.00  0.00    +0.000 C 
ATOM      9  N   UNL     1       2.036   7.557  19.573  0.00  0.00    +0.000 N 
ATOM     10  H   UNL     1       2.307   6.748  20.113  0.00  0.00    +0.000 HD
BRANCH   8  11
ATOM     11  C   UNL     1       3.181   6.414  17.761  0.00  0.00    +0.000 A 
ATOM     12  C   UNL     1       4.419   6.568  17.124  0.00  0.00    +0.000 A 
ATOM     13  C   UNL     1       5.098   5.453  16.639  0.00  0.00    +0.000 A 
ATOM     14  C   UNL     1       4.535   4.182  16.767  0.00  0.00    +0.000 A 
ATOM     15  C   UNL     1       3.280   4.026  17.363  0.00  0.00    +0.000 A 
ATOM     16  C   UNL     1       2.612   5.143  17.875  0.00  0.00    +0.000 A 
BRANCH  15  17
ATOM     17  O   UNL     1       2.620   2.842  17.525  0.00  0.00    +0.000 OA
BRANCH  17  18
ATOM     18  C   UNL     1       2.963   2.097  18.682  0.00  0.00    +0.000 C 
ATOM     19  F   UNL     1       1.828   1.611  19.241  0.00  0.00    +0.000 F 
ATOM     20  F   UNL     1       3.685   1.025  18.271  0.00  0.00    +0.000 F 
ENDBRANCH  17  18
ENDBRANCH  15  17
ENDBRANCH   8  11
ENDBRANCH   1   9
BRANCH   5  21
ATOM     21  C   UNL     1      -0.217  11.965  19.439  0.00  0.00    +0.000 C 
BRANCH  21  22
ATOM     22  N   UNL     1      -1.636  11.940  19.190  0.00  0.00    +0.000 N 
ATOM     23  N   UNL     1      -2.210  11.289  18.109  0.00  0.00    +0.000 NA
ATOM     24  C   UNL     1      -3.481  11.488  18.280  0.00  0.00    +0.000 A 
ATOM     25  C   UNL     1      -4.591  11.024  17.421  0.00  0.00    +0.000 A 
ATOM     26  C   UNL     1      -5.847  11.316  17.805  0.00  0.00    +0.000 A 
ATOM     27  C   UNL     1      -6.110  12.068  19.019  0.00  0.00    +0.000 A 
ATOM     28  C   UNL     1      -5.087  12.506  19.770  0.00  0.00    +0.000 A 
ATOM     29  N   UNL     1      -3.810  12.211  19.383  0.00  0.00    +0.000 N 
ATOM     30  C   UNL     1      -2.621  12.534  19.994  0.00  0.00    +0.000 A 
ATOM     31  O   UNL     1      -2.452  13.198  21.006  0.00  0.00    +0.000 OA
ENDBRANCH  21  22
ENDBRANCH   5  21
TORSDOF 6
ENDMDL
MODEL 8
REMARK VINA RESULT:      -8.5      6.831      9.723
REMARK  Name = 
REMARK  6 active torsions:
REMARK  status: ('A' for Active; 'I' for Inactive)
REMARK    1  A    between atoms: C_2  and  C_21
REMARK    2  A    between atoms: N_3  and  C_4
REMARK    3  A    between atoms: C_8  and  C_9
REMARK    4  A    between atoms: C_9  and  N_10
REMARK    5  A    between atoms: C_25  and  O_26
REMARK    6  A    between atoms: O_26  and  C_27
REMARK                            x       y       z     vdW  Elec       q    Type
REMARK                         _______ _______ _______ _____ _____    ______ ____
ROOT
ATOM      1  C   UNL     1       1.449   8.503  20.241  0.00  0.00    +0.000 A 
ATOM      2  C   UNL     1       1.063   8.418  21.580  0.00  0.00    +0.000 A 
ATOM      3  C   UNL     1       0.232   9.387  22.142  0.00  0.00    +0.000 A 
ATOM      4  C   UNL     1      -0.201  10.466  21.378  0.00  0.00    +0.000 A 
ATOM      5  C   UNL     1       0.222  10.609  20.050  0.00  0.00    +0.000 A 
ATOM      6  C   UNL     1       1.040   9.613  19.487  0.00  0.00    +0.000 A 
ENDROOT
BRANCH   1   9
ATOM      7  O   UNL     1       1.482   5.571  20.671  0.00  0.00    +0.000 OA
ATOM      8  C   UNL     1       2.193   6.152  19.854  0.00  0.00    +0.000 C 
ATOM      9  N   UNL     1       2.225   7.514  19.596  0.00  0.00    +0.000 N 
ATOM     10  H   UNL     1       2.741   7.818  18.782  0.00  0.00    +0.000 HD
BRANCH   8  11
ATOM     11  C   UNL     1       3.066   5.317  18.992  0.00  0.00    +0.000 A 
ATOM     12  C   UNL     1       2.474   4.578  17.960  0.00  0.00    +0.000 A 
ATOM     13  C   UNL     1       3.261   3.782  17.130  0.00  0.00    +0.000 A 
ATOM     14  C   UNL     1       4.639   3.703  17.341  0.00  0.00    +0.000 A 
ATOM     15  C   UNL     1       5.230   4.403  18.396  0.00  0.00    +0.000 A 
ATOM     16  C   UNL     1       4.443   5.224  19.210  0.00  0.00    +0.000 A 
BRANCH  15  17
ATOM     17  O   UNL     1       6.557   4.388  18.714  0.00  0.00    +0.000 OA
BRANCH  17  18
ATOM     18  C   UNL     1       7.414   5.081  17.821  0.00  0.00    +0.000 C 
ATOM     19  F   UNL     1       6.664   5.890  17.034  0.00  0.00    +0.000 F 
ATOM     20  F   UNL     1       8.206   5.889  18.569  0.00  0.00    +0.000 F 
ENDBRANCH  17  18
ENDBRANCH  15  17
ENDBRANCH   8  11
ENDBRANCH   1   9
BRANCH   5  21
ATOM     21  C   UNL     1      -0.216  11.808  19.242  0.00  0.00    +0.000 C 
BRANCH  21  22
ATOM     22  N   UNL     1      -1.643  11.856  19.044  0.00  0.00    +0.000 N 
ATOM     23  N   UNL     1      -2.292  11.205  18.008  0.00  0.00    +0.000 NA
ATOM     24  C   UNL     1      -3.542  11.482  18.217  0.00  0.00    +0.000 A 
ATOM     25  C   UNL     1      -4.708  11.055  17.413  0.00  0.00    +0.000 A 
ATOM     26  C   UNL     1      -5.930  11.430  17.832  0.00  0.00    +0.000 A 
ATOM     27  C   UNL     1      -6.105  12.233  19.029  0.00  0.00    +0.000 A 
ATOM     28  C   UNL     1      -5.033  12.636  19.728  0.00  0.00    +0.000 A 
ATOM     29  N   UNL     1      -3.789  12.257  19.305  0.00  0.00    +0.000 N 
ATOM     30  C   UNL     1      -2.562  12.531  19.863  0.00  0.00    +0.000 A 
ATOM     31  O   UNL     1      -2.319  13.216  20.845  0.00  0.00    +0.000 OA
ENDBRANCH  21  22
ENDBRANCH   5  21
TORSDOF 6
ENDMDL
MODEL 9
REMARK VINA RESULT:      -8.5      6.184      9.153
REMARK  Name = 
REMARK  6 active torsions:
REMARK  status: ('A' for Active; 'I' for Inactive)
REMARK    1  A    between atoms: C_2  and  C_21
REMARK    2  A    between atoms: N_3  and  C_4
REMARK    3  A    between atoms: C_8  and  C_9
REMARK    4  A    between atoms: C_9  and  N_10
REMARK    5  A    between atoms: C_25  and  O_26
REMARK    6  A    between atoms: O_26  and  C_27
REMARK                            x       y       z     vdW  Elec       q    Type
REMARK                         _______ _______ _______ _____ _____    ______ ____
ROOT
ATOM      1  C   UNL     1       2.016   8.217  19.203  0.00  0.00    +0.000 A 
ATOM      2  C   UNL     1       1.640   7.987  20.527  0.00  0.00    +0.000 A 
ATOM      3  C   UNL     1       0.557   8.664  21.086  0.00  0.00    +0.000 A 
ATOM      4  C   UNL     1      -0.148   9.599  20.333  0.00  0.00    +0.000 A 
ATOM      5  C   UNL     1       0.247   9.895  19.023  0.00  0.00    +0.000 A 
ATOM      6  C   UNL     1       1.326   9.188  18.462  0.00  0.00    +0.000 A 
ENDROOT
BRANCH   1   9
ATOM      7  O   UNL     1       2.003   5.466  18.100  0.00  0.00    +0.000 OA
ATOM      8  C   UNL     1       2.979   6.212  18.070  0.00  0.00    +0.000 C 
ATOM      9  N   UNL     1       3.055   7.508  18.558  0.00  0.00    +0.000 N 
ATOM     10  H   UNL     1       3.872   8.048  18.312  0.00  0.00    +0.000 HD
BRANCH   8  11
ATOM     11  C   UNL     1       4.195   5.717  17.379  0.00  0.00    +0.000 A 
ATOM     12  C   UNL     1       4.177   4.425  16.839  0.00  0.00    +0.000 A 
ATOM     13  C   UNL     1       5.300   3.926  16.183  0.00  0.00    +0.000 A 
ATOM     14  C   UNL     1       6.454   4.705  16.083  0.00  0.00    +0.000 A 
ATOM     15  C   UNL     1       6.494   5.979  16.657  0.00  0.00    +0.000 A 
ATOM     16  C   UNL     1       5.356   6.490  17.290  0.00  0.00    +0.000 A 
BRANCH  15  17
ATOM     17  O   UNL     1       7.567   6.822  16.644  0.00  0.00    +0.000 OA
BRANCH  17  18
ATOM     18  C   UNL     1       7.702   7.668  17.775  0.00  0.00    +0.000 C 
ATOM     19  F   UNL     1       8.407   7.012  18.729  0.00  0.00    +0.000 F 
ATOM     20  F   UNL     1       8.454   8.731  17.395  0.00  0.00    +0.000 F 
ENDBRANCH  17  18
ENDBRANCH  15  17
ENDBRANCH   8  11
ENDBRANCH   1   9
BRANCH   5  21
ATOM     21  C   UNL     1      -0.495  10.944  18.228  0.00  0.00    +0.000 C 
BRANCH  21  22
ATOM     22  N   UNL     1      -0.298  12.276  18.743  0.00  0.00    +0.000 N 
ATOM     23  N   UNL     1      -1.275  12.984  19.424  0.00  0.00    +0.000 NA
ATOM     24  C   UNL     1      -0.682  14.097  19.728  0.00  0.00    +0.000 A 
ATOM     25  C   UNL     1      -1.247  15.251  20.460  0.00  0.00    +0.000 A 
ATOM     26  C   UNL     1      -0.439  16.300  20.699  0.00  0.00    +0.000 A 
ATOM     27  C   UNL     1       0.942  16.308  20.248  0.00  0.00    +0.000 A 
ATOM     28  C   UNL     1       1.428  15.264  19.559  0.00  0.00    +0.000 A 
ATOM     29  N   UNL     1       0.609  14.196  19.314  0.00  0.00    +0.000 N 
ATOM     30  C   UNL     1       0.888  13.022  18.653  0.00  0.00    +0.000 A 
ATOM     31  O   UNL     1       1.929  12.699  18.101  0.00  0.00    +0.000 OA
ENDBRANCH  21  22
ENDBRANCH   5  21
TORSDOF 6
ENDMDL
