MODEL 1
REMARK VINA RESULT:      -8.5      0.000      0.000
REMARK  Name = 
REMARK  4 active torsions:
REMARK  status: ('A' for Active; 'I' for Inactive)
REMARK    1  A    between atoms: N_3  and  C_4
REMARK    2  A    between atoms: C_4  and  C_5
REMARK    3  A    between atoms: C_5  and  C_6
REMARK    4  A    between atoms: N_16  and  C_17
REMARK                            x       y       z     vdW  Elec       q    Type
REMARK                         _______ _______ _______ _____ _____    ______ ____
ROOT
ATOM      1  O   UNL     1       1.672   5.154  20.534  0.00  0.00    +0.000 OA
ATOM      2  C   UNL     1       2.377   6.084  20.161  0.00  0.00    +0.000 C 
ATOM      3  N   UNL     1       2.139   7.406  20.449  0.00  0.00    +0.000 N 
ATOM      4  N   UNL     1       3.467   5.934  19.357  0.00  0.00    +0.000 N 
ATOM      5  H   UNL     1       2.969   7.973  20.536  0.00  0.00    +0.000 HD
ATOM      6  H   UNL     1       4.012   6.752  19.118  0.00  0.00    +0.000 HD
ENDROOT
BRANCH   4   7
ATOM      7  C   UNL     1       3.977   4.641  18.906  0.00  0.00    +0.000 C 
ATOM      8  C   UNL     1       3.568   4.266  17.472  0.00  0.00    +0.000 C 
ATOM      9  C   UNL     1       4.873   3.912  16.767  0.00  0.00    +0.000 C 
ATOM     10  C   UNL     1       4.941   4.282  15.288  0.00  0.00    +0.000 C 
ATOM     11  C   UNL     1       6.369   4.076  14.765  0.00  0.00    +0.000 C 
ATOM     12  C   UNL     1       7.367   4.898  15.587  0.00  0.00    +0.000 C 
ATOM     13  C   UNL     1       7.268   4.573  17.076  0.00  0.00    +0.000 C 
ATOM     14  N   UNL     1       5.888   4.600  17.521  0.00  0.00    +0.000 N 
ATOM     15  C   UNL     1       5.502   4.763  18.841  0.00  0.00    +0.000 C 
ATOM     16  O   UNL     1       6.231   5.058  19.776  0.00  0.00    +0.000 OA
ENDBRANCH   4   7
BRANCH   3  17
ATOM     17  C   UNL     1       0.994   7.790  21.265  0.00  0.00    +0.000 C 
BRANCH  17  18
ATOM     18  C   UNL     1       1.123   9.228  21.768  0.00  0.00    +0.000 C 
BRANCH  18  19
ATOM     19  C   UNL     1       0.312  10.209  20.943  0.00  0.00    +0.000 A 
ATOM     20  C   UNL     1       0.629  10.345  19.586  0.00  0.00    +0.000 A 
ATOM     21  C   UNL     1      -0.087  11.246  18.824  0.00  0.00    +0.000 A 
ATOM     22  N   UNL     1      -1.083  12.013  19.308  0.00  0.00    +0.000 NA
ATOM     23  C   UNL     1      -1.397  11.895  20.607  0.00  0.00    +0.000 A 
ATOM     24  C   UNL     1      -2.422  12.690  21.101  0.00  0.00    +0.000 A 
ATOM     25  C   UNL     1      -2.825  12.634  22.436  0.00  0.00    +0.000 A 
ATOM     26  C   UNL     1      -2.187  11.764  23.307  0.00  0.00    +0.000 A 
ATOM     27  C   UNL     1      -1.147  10.958  22.839  0.00  0.00    +0.000 A 
ATOM     28  C   UNL     1      -0.731  11.006  21.486  0.00  0.00    +0.000 A 
ENDBRANCH  18  19
ENDBRANCH  17  18
ENDBRANCH   3  17
TORSDOF 4
ENDMDL
MODEL 2
REMARK VINA RESULT:      -8.4      0.863      2.059
REMARK  Name = 
REMARK  4 active torsions:
REMARK  status: ('A' for Active; 'I' for Inactive)
REMARK    1  A    between atoms: N_3  and  C_4
REMARK    2  A    between atoms: C_4  and  C_5
REMARK    3  A    between atoms: C_5  and  C_6
REMARK    4  A    between atoms: N_16  and  C_17
REMARK                            x       y       z     vdW  Elec       q    Type
REMARK                         _______ _______ _______ _____ _____    ______ ____
ROOT
ATOM      1  O   UNL     1       1.585   5.290  20.469  0.00  0.00    +0.000 OA
ATOM      2  C   UNL     1       2.375   6.190  20.213  0.00  0.00    +0.000 C 
ATOM      3  N   UNL     1       2.176   7.513  20.523  0.00  0.00    +0.000 N 
ATOM      4  N   UNL     1       3.540   6.005  19.529  0.00  0.00    +0.000 N 
ATOM      5  H   UNL     1       3.020   8.029  20.724  0.00  0.00    +0.000 HD
ATOM      6  H   UNL     1       4.150   6.797  19.384  0.00  0.00    +0.000 HD
ENDROOT
BRANCH   4   7
ATOM      7  C   UNL     1       4.028   4.700  19.089  0.00  0.00    +0.000 C 
ATOM      8  C   UNL     1       3.557   4.290  17.683  0.00  0.00    +0.000 C 
ATOM      9  C   UNL     1       4.830   3.916  16.932  0.00  0.00    +0.000 C 
ATOM     10  C   UNL     1       4.834   4.250  15.442  0.00  0.00    +0.000 C 
ATOM     11  C   UNL     1       6.237   4.027  14.864  0.00  0.00    +0.000 C 
ATOM     12  C   UNL     1       7.271   4.868  15.621  0.00  0.00    +0.000 C 
ATOM     13  C   UNL     1       7.236   4.580  17.120  0.00  0.00    +0.000 C 
ATOM     14  N   UNL     1       5.877   4.620  17.624  0.00  0.00    +0.000 N 
ATOM     15  C   UNL     1       5.549   4.816  18.955  0.00  0.00    +0.000 C 
ATOM     16  O   UNL     1       6.318   5.132  19.850  0.00  0.00    +0.000 OA
ENDBRANCH   4   7
BRANCH   3  17
ATOM     17  C   UNL     1       0.969   7.936  21.221  0.00  0.00    +0.000 C 
BRANCH  17  18
ATOM     18  C   UNL     1       1.245   9.115  22.154  0.00  0.00    +0.000 C 
BRANCH  18  19
ATOM     19  C   UNL     1       0.173  10.184  22.076  0.00  0.00    +0.000 A 
ATOM     20  C   UNL     1      -0.728  10.290  23.144  0.00  0.00    +0.000 A 
ATOM     21  C   UNL     1      -1.722  11.246  23.082  0.00  0.00    +0.000 A 
ATOM     22  N   UNL     1      -1.884  12.093  22.047  0.00  0.00    +0.000 NA
ATOM     23  C   UNL     1      -1.030  12.002  21.017  0.00  0.00    +0.000 A 
ATOM     24  C   UNL     1      -1.204  12.876  19.951  0.00  0.00    +0.000 A 
ATOM     25  C   UNL     1      -0.364  12.863  18.838  0.00  0.00    +0.000 A 
ATOM     26  C   UNL     1       0.679  11.951  18.779  0.00  0.00    +0.000 A 
ATOM     27  C   UNL     1       0.873  11.055  19.832  0.00  0.00    +0.000 A 
ATOM     28  C   UNL     1       0.027  11.061  20.968  0.00  0.00    +0.000 A 
ENDBRANCH  18  19
ENDBRANCH  17  18
ENDBRANCH   3  17
TORSDOF 4
ENDMDL
MODEL 3
REMARK VINA RESULT:      -8.4      6.064      8.801
REMARK  Name = 
REMARK  4 active torsions:
REMARK  status: ('A' for Active; 'I' for Inactive)
REMARK    1  A    between atoms: N_3  and  C_4
REMARK    2  A    between atoms: C_4  and  C_5
REMARK    3  A    between atoms: C_5  and  C_6
REMARK    4  A    between atoms: N_16  and  C_17
REMARK                            x       y       z     vdW  Elec       q    Type
REMARK                         _______ _______ _______ _____ _____    ______ ____
ROOT
ATOM      1  O   UNL     1       8.268   6.112  19.145  0.00  0.00    +0.000 OA
ATOM      2  C   UNL     1       7.585   6.661  18.289  0.00  0.00    +0.000 C 
ATOM      3  N   UNL     1       7.747   7.962  17.880  0.00  0.00    +0.000 N 
ATOM      4  N   UNL     1       6.528   6.066  17.667  0.00  0.00    +0.000 N 
ATOM      5  H   UNL     1       7.512   8.129  16.912  0.00  0.00    +0.000 HD
ATOM      6  H   UNL     1       6.033   6.580  16.951  0.00  0.00    +0.000 HD
ENDROOT
BRANCH   4   7
ATOM      7  C   UNL     1       6.129   4.678  17.883  0.00  0.00    +0.000 C 
ATOM      8  C   UNL     1       5.493   4.410  19.258  0.00  0.00    +0.000 C 
ATOM      9  C   UNL     1       4.177   3.703  18.955  0.00  0.00    +0.000 C 
ATOM     10  C   UNL     1       3.027   4.021  19.908  0.00  0.00    +0.000 C 
ATOM     11  C   UNL     1       1.722   3.426  19.366  0.00  0.00    +0.000 C 
ATOM     12  C   UNL     1       1.434   3.955  17.957  0.00  0.00    +0.000 C 
ATOM     13  C   UNL     1       2.601   3.689  17.009  0.00  0.00    +0.000 C 
ATOM     14  N   UNL     1       3.858   4.097  17.608  0.00  0.00    +0.000 N 
ATOM     15  C   UNL     1       5.006   4.377  16.886  0.00  0.00    +0.000 C 
ATOM     16  O   UNL     1       5.091   4.474  15.672  0.00  0.00    +0.000 OA
ENDBRANCH   4   7
BRANCH   3  17
ATOM     17  C   UNL     1       8.799   8.791  18.453  0.00  0.00    +0.000 C 
BRANCH  17  18
ATOM     18  C   UNL     1       8.579  10.271  18.135  0.00  0.00    +0.000 C 
BRANCH  18  19
ATOM     19  C   UNL     1       9.411  11.185  19.013  0.00  0.00    +0.000 A 
ATOM     20  C   UNL     1       9.267  11.072  20.402  0.00  0.00    +0.000 A 
ATOM     21  C   UNL     1      10.003  11.908  21.217  0.00  0.00    +0.000 A 
ATOM     22  N   UNL     1      10.862  12.839  20.756  0.00  0.00    +0.000 NA
ATOM     23  C   UNL     1      11.009  12.960  19.428  0.00  0.00    +0.000 A 
ATOM     24  C   UNL     1      11.893  13.923  18.959  0.00  0.00    +0.000 A 
ATOM     25  C   UNL     1      12.118  14.121  17.597  0.00  0.00    +0.000 A 
ATOM     26  C   UNL     1      11.442  13.340  16.672  0.00  0.00    +0.000 A 
ATOM     27  C   UNL     1      10.541  12.369  17.115  0.00  0.00    +0.000 A 
ATOM     28  C   UNL     1      10.306  12.159  18.495  0.00  0.00    +0.000 A 
ENDBRANCH  18  19
ENDBRANCH  17  18
ENDBRANCH   3  17
TORSDOF 4
ENDMDL
MODEL 4
REMARK VINA RESULT:      -8.3      6.062      8.199
REMARK  Name = 
REMARK  4 active torsions:
REMARK  status: ('A' for Active; 'I' for Inactive)
REMARK    1  A    between atoms: N_3  and  C_4
REMARK    2  A    between atoms: C_4  and  C_5
REMARK    3  A    between atoms: C_5  and  C_6
REMARK    4  A    between atoms: N_16  and  C_17
REMARK                            x       y       z     vdW  Elec       q    Type
REMARK                         _______ _______ _______ _____ _____    ______ ____
ROOT
ATOM      1  O   UNL     1       8.160   6.670  18.904  0.00  0.00    +0.000 OA
ATOM      2  C   UNL     1       7.454   7.078  17.990  0.00  0.00    +0.000 C 
ATOM      3  N   UNL     1       7.531   8.338  17.449  0.00  0.00    +0.000 N 
ATOM      4  N   UNL     1       6.451   6.349  17.423  0.00  0.00    +0.000 N 
ATOM      5  H   UNL     1       7.301   8.389  16.468  0.00  0.00    +0.000 HD
ATOM      6  H   UNL     1       5.933   6.750  16.654  0.00  0.00    +0.000 HD
ENDROOT
BRANCH   4   7
ATOM      7  C   UNL     1       6.148   4.965  17.779  0.00  0.00    +0.000 C 
ATOM      8  C   UNL     1       5.551   4.790  19.186  0.00  0.00    +0.000 C 
ATOM      9  C   UNL     1       4.280   3.975  18.979  0.00  0.00    +0.000 C 
ATOM     10  C   UNL     1       3.126   4.309  19.921  0.00  0.00    +0.000 C 
ATOM     11  C   UNL     1       1.855   3.582  19.465  0.00  0.00    +0.000 C 
ATOM     12  C   UNL     1       1.512   3.954  18.018  0.00  0.00    +0.000 C 
ATOM     13  C   UNL     1       2.681   3.673  17.076  0.00  0.00    +0.000 C 
ATOM     14  N   UNL     1       3.916   4.217  17.607  0.00  0.00    +0.000 N 
ATOM     15  C   UNL     1       5.033   4.498  16.839  0.00  0.00    +0.000 C 
ATOM     16  O   UNL     1       5.093   4.483  15.619  0.00  0.00    +0.000 OA
ENDBRANCH   4   7
BRANCH   3  17
ATOM     17  C   UNL     1       8.513   9.296  17.942  0.00  0.00    +0.000 C 
BRANCH  17  18
ATOM     18  C   UNL     1       8.010  10.733  17.806  0.00  0.00    +0.000 C 
BRANCH  18  19
ATOM     19  C   UNL     1       9.122  11.755  17.941  0.00  0.00    +0.000 A 
ATOM     20  C   UNL     1      10.428  11.285  18.125  0.00  0.00    +0.000 A 
ATOM     21  C   UNL     1      11.450  12.201  18.268  0.00  0.00    +0.000 A 
ATOM     22  N   UNL     1      11.270  13.535  18.242  0.00  0.00    +0.000 NA
ATOM     23  C   UNL     1      10.024  14.001  18.069  0.00  0.00    +0.000 A 
ATOM     24  C   UNL     1       9.843  15.378  18.046  0.00  0.00    +0.000 A 
ATOM     25  C   UNL     1       8.588  15.958  17.865  0.00  0.00    +0.000 A 
ATOM     26  C   UNL     1       7.476  15.144  17.705  0.00  0.00    +0.000 A 
ATOM     27  C   UNL     1       7.627  13.756  17.732  0.00  0.00    +0.000 A 
ATOM     28  C   UNL     1       8.897  13.158  17.913  0.00  0.00    +0.000 A 
ENDBRANCH  18  19
ENDBRANCH  17  18
ENDBRANCH   3  17
TORSDOF 4
ENDMDL
MODEL 5
REMARK VINA RESULT:      -8.1      1.902      2.781
REMARK  Name = 
REMARK  4 active torsions:
REMARK  status: ('A' for Active; 'I' for Inactive)
REMARK    1  A    between atoms: N_3  and  C_4
REMARK    2  A    between atoms: C_4  and  C_5
REMARK    3  A    between atoms: C_5  and  C_6
REMARK    4  A    between atoms: N_16  and  C_17
REMARK                            x       y       z     vdW  Elec       q    Type
REMARK                         _______ _______ _______ _____ _____    ______ ____
ROOT
ATOM      1  O   UNL     1       3.750   6.884  17.407  0.00  0.00    +0.000 OA
ATOM      2  C   UNL     1       3.121   6.702  18.442  0.00  0.00    +0.000 C 
ATOM      3  N   UNL     1       2.365   7.659  19.073  0.00  0.00    +0.000 N 
ATOM      4  N   UNL     1       3.136   5.532  19.142  0.00  0.00    +0.000 N 
ATOM      5  H   UNL     1       1.558   7.300  19.563  0.00  0.00    +0.000 HD
ATOM      6  H   UNL     1       2.566   5.454  19.973  0.00  0.00    +0.000 HD
ENDROOT
BRANCH   4   7
ATOM      7  C   UNL     1       3.837   4.327  18.703  0.00  0.00    +0.000 C 
ATOM      8  C   UNL     1       3.593   3.955  17.230  0.00  0.00    +0.000 C 
ATOM      9  C   UNL     1       4.984   3.789  16.628  0.00  0.00    +0.000 C 
ATOM     10  C   UNL     1       5.122   4.216  15.169  0.00  0.00    +0.000 C 
ATOM     11  C   UNL     1       6.600   4.205  14.761  0.00  0.00    +0.000 C 
ATOM     12  C   UNL     1       7.420   5.114  15.683  0.00  0.00    +0.000 C 
ATOM     13  C   UNL     1       7.245   4.727  17.150  0.00  0.00    +0.000 C 
ATOM     14  N   UNL     1       5.842   4.569  17.480  0.00  0.00    +0.000 N 
ATOM     15  C   UNL     1       5.336   4.637  18.767  0.00  0.00    +0.000 C 
ATOM     16  O   UNL     1       5.945   4.986  19.766  0.00  0.00    +0.000 OA
ENDBRANCH   4   7
BRANCH   3  17
ATOM     17  C   UNL     1       2.248   8.998  18.511  0.00  0.00    +0.000 C 
BRANCH  17  18
ATOM     18  C   UNL     1       0.917   9.185  17.783  0.00  0.00    +0.000 C 
BRANCH  18  19
ATOM     19  C   UNL     1      -0.005  10.157  18.494  0.00  0.00    +0.000 A 
ATOM     20  C   UNL     1       0.482  10.809  19.634  0.00  0.00    +0.000 A 
ATOM     21  C   UNL     1      -0.349  11.684  20.305  0.00  0.00    +0.000 A 
ATOM     22  N   UNL     1      -1.615  11.952  19.930  0.00  0.00    +0.000 NA
ATOM     23  C   UNL     1      -2.095  11.334  18.841  0.00  0.00    +0.000 A 
ATOM     24  C   UNL     1      -3.402  11.612  18.460  0.00  0.00    +0.000 A 
ATOM     25  C   UNL     1      -3.989  11.024  17.340  0.00  0.00    +0.000 A 
ATOM     26  C   UNL     1      -3.256  10.128  16.576  0.00  0.00    +0.000 A 
ATOM     27  C   UNL     1      -1.943   9.823  16.940  0.00  0.00    +0.000 A 
ATOM     28  C   UNL     1      -1.337  10.416  18.074  0.00  0.00    +0.000 A 
ENDBRANCH  18  19
ENDBRANCH  17  18
ENDBRANCH   3  17
TORSDOF 4
ENDMDL
MODEL 6
REMARK VINA RESULT:      -8.1      5.906      8.114
REMARK  Name = 
REMARK  4 active torsions:
REMARK  status: ('A' for Active; 'I' for Inactive)
REMARK    1  A    between atoms: N_3  and  C_4
REMARK    2  A    between atoms: C_4  and  C_5
REMARK    3  A    between atoms: C_5  and  C_6
REMARK    4  A    between atoms: N_16  and  C_17
REMARK                            x       y       z     vdW  Elec       q    Type
REMARK                         _______ _______ _______ _____ _____    ______ ____
ROOT
ATOM      1  O   UNL     1       8.330   6.539  18.637  0.00  0.00    +0.000 OA
ATOM      2  C   UNL     1       7.425   7.012  17.961  0.00  0.00    +0.000 C 
ATOM      3  N   UNL     1       7.459   8.251  17.371  0.00  0.00    +0.000 N 
ATOM      4  N   UNL     1       6.230   6.389  17.753  0.00  0.00    +0.000 N 
ATOM      5  H   UNL     1       6.948   8.317  16.503  0.00  0.00    +0.000 HD
ATOM      6  H   UNL     1       5.545   6.836  17.159  0.00  0.00    +0.000 HD
ENDROOT
BRANCH   4   7
ATOM      7  C   UNL     1       5.912   5.049  18.241  0.00  0.00    +0.000 C 
ATOM      8  C   UNL     1       5.137   5.027  19.569  0.00  0.00    +0.000 C 
ATOM      9  C   UNL     1       3.923   4.143  19.304  0.00  0.00    +0.000 C 
ATOM     10  C   UNL     1       2.646   4.546  20.038  0.00  0.00    +0.000 C 
ATOM     11  C   UNL     1       1.464   3.719  19.517  0.00  0.00    +0.000 C 
ATOM     12  C   UNL     1       1.310   3.896  18.003  0.00  0.00    +0.000 C 
ATOM     13  C   UNL     1       2.600   3.546  17.264  0.00  0.00    +0.000 C 
ATOM     14  N   UNL     1       3.741   4.199  17.877  0.00  0.00    +0.000 N 
ATOM     15  C   UNL     1       4.944   4.426  17.231  0.00  0.00    +0.000 C 
ATOM     16  O   UNL     1       5.167   4.263  16.042  0.00  0.00    +0.000 OA
ENDBRANCH   4   7
BRANCH   3  17
ATOM     17  C   UNL     1       8.634   9.102  17.506  0.00  0.00    +0.000 C 
BRANCH  17  18
ATOM     18  C   UNL     1       8.725   9.713  18.905  0.00  0.00    +0.000 C 
BRANCH  18  19
ATOM     19  C   UNL     1       9.519  11.004  18.927  0.00  0.00    +0.000 A 
ATOM     20  C   UNL     1      10.293  11.319  17.803  0.00  0.00    +0.000 A 
ATOM     21  C   UNL     1      11.037  12.482  17.812  0.00  0.00    +0.000 A 
ATOM     22  N   UNL     1      11.066  13.344  18.847  0.00  0.00    +0.000 NA
ATOM     23  C   UNL     1      10.331  13.056  19.931  0.00  0.00    +0.000 A 
ATOM     24  C   UNL     1      10.368  13.947  20.995  0.00  0.00    +0.000 A 
ATOM     25  C   UNL     1       9.633  13.738  22.163  0.00  0.00    +0.000 A 
ATOM     26  C   UNL     1       8.840  12.605  22.277  0.00  0.00    +0.000 A 
ATOM     27  C   UNL     1       8.791  11.688  21.226  0.00  0.00    +0.000 A 
ATOM     28  C   UNL     1       9.531  11.892  20.037  0.00  0.00    +0.000 A 
ENDBRANCH  18  19
ENDBRANCH  17  18
ENDBRANCH   3  17
TORSDOF 4
ENDMDL
MODEL 7
REMARK VINA RESULT:      -8.1      2.941      4.289
REMARK  Name = 
REMARK  4 active torsions:
REMARK  status: ('A' for Active; 'I' for Inactive)
REMARK    1  A    between atoms: N_3  and  C_4
REMARK    2  A    between atoms: C_4  and  C_5
REMARK    3  A    between atoms: C_5  and  C_6
REMARK    4  A    between atoms: N_16  and  C_17
REMARK                            x       y       z     vdW  Elec       q    Type
REMARK                         _______ _______ _______ _____ _____    ______ ____
ROOT
ATOM      1  O   UNL     1       1.281   9.096  20.556  0.00  0.00    +0.000 OA
ATOM      2  C   UNL     1       1.400   8.869  19.359  0.00  0.00    +0.000 C 
ATOM      3  N   UNL     1       0.890   9.663  18.361  0.00  0.00    +0.000 N 
ATOM      4  N   UNL     1       2.010   7.759  18.855  0.00  0.00    +0.000 N 
ATOM      5  H   UNL     1       1.435   9.672  17.511  0.00  0.00    +0.000 HD
ATOM      6  H   UNL     1       2.092   7.661  17.852  0.00  0.00    +0.000 HD
ENDROOT
BRANCH   4   7
ATOM      7  C   UNL     1       2.667   6.745  19.677  0.00  0.00    +0.000 C 
ATOM      8  C   UNL     1       1.700   5.780  20.383  0.00  0.00    +0.000 C 
ATOM      9  C   UNL     1       2.196   4.385  20.019  0.00  0.00    +0.000 C 
ATOM     10  C   UNL     1       1.109   3.326  19.852  0.00  0.00    +0.000 C 
ATOM     11  C   UNL     1       1.719   2.041  19.277  0.00  0.00    +0.000 C 
ATOM     12  C   UNL     1       2.419   2.328  17.945  0.00  0.00    +0.000 C 
ATOM     13  C   UNL     1       3.472   3.425  18.090  0.00  0.00    +0.000 C 
ATOM     14  N   UNL     1       2.930   4.571  18.795  0.00  0.00    +0.000 N 
ATOM     15  C   UNL     1       3.463   5.847  18.724  0.00  0.00    +0.000 C 
ATOM     16  O   UNL     1       4.340   6.223  17.962  0.00  0.00    +0.000 OA
ENDBRANCH   4   7
BRANCH   3  17
ATOM     17  C   UNL     1       0.162  10.882  18.685  0.00  0.00    +0.000 C 
BRANCH  17  18
ATOM     18  C   UNL     1      -1.259  10.576  19.160  0.00  0.00    +0.000 C 
BRANCH  18  19
ATOM     19  C   UNL     1      -2.286  10.712  18.052  0.00  0.00    +0.000 A 
ATOM     20  C   UNL     1      -1.999  10.123  16.815  0.00  0.00    +0.000 A 
ATOM     21  C   UNL     1      -2.914  10.252  15.789  0.00  0.00    +0.000 A 
ATOM     22  N   UNL     1      -4.080  10.918  15.904  0.00  0.00    +0.000 NA
ATOM     23  C   UNL     1      -4.368  11.489  17.084  0.00  0.00    +0.000 A 
ATOM     24  C   UNL     1      -5.569  12.176  17.195  0.00  0.00    +0.000 A 
ATOM     25  C   UNL     1      -5.960  12.798  18.381  0.00  0.00    +0.000 A 
ATOM     26  C   UNL     1      -5.128  12.738  19.490  0.00  0.00    +0.000 A 
ATOM     27  C   UNL     1      -3.911  12.060  19.404  0.00  0.00    +0.000 A 
ATOM     28  C   UNL     1      -3.506  11.425  18.206  0.00  0.00    +0.000 A 
ENDBRANCH  18  19
ENDBRANCH  17  18
ENDBRANCH   3  17
TORSDOF 4
ENDMDL
MODEL 8
REMARK VINA RESULT:      -8.1      5.348      8.212
REMARK  Name = 
REMARK  4 active torsions:
REMARK  status: ('A' for Active; 'I' for Inactive)
REMARK    1  A    between atoms: N_3  and  C_4
REMARK    2  A    between atoms: C_4  and  C_5
REMARK    3  A    between atoms: C_5  and  C_6
REMARK    4  A    between atoms: N_16  and  C_17
REMARK                            x       y       z     vdW  Elec       q    Type
REMARK                         _______ _______ _______ _____ _____    ______ ____
ROOT
ATOM      1  O   UNL     1       7.770   7.366  18.821  0.00  0.00    +0.000 OA
ATOM      2  C   UNL     1       7.777   7.832  17.688  0.00  0.00    +0.000 C 
ATOM      3  N   UNL     1       7.572   7.100  16.544  0.00  0.00    +0.000 N 
ATOM      4  N   UNL     1       8.050   9.137  17.407  0.00  0.00    +0.000 N 
ATOM      5  H   UNL     1       7.122   7.608  15.797  0.00  0.00    +0.000 HD
ATOM      6  H   UNL     1       8.008   9.448  16.446  0.00  0.00    +0.000 HD
ENDROOT
BRANCH   4   7
ATOM      7  C   UNL     1       8.287  10.158  18.425  0.00  0.00    +0.000 C 
ATOM      8  C   UNL     1       9.635  10.023  19.154  0.00  0.00    +0.000 C 
ATOM      9  C   UNL     1      10.287  11.397  19.040  0.00  0.00    +0.000 C 
ATOM     10  C   UNL     1      11.808  11.391  18.909  0.00  0.00    +0.000 C 
ATOM     11  C   UNL     1      12.307  12.805  18.584  0.00  0.00    +0.000 C 
ATOM     12  C   UNL     1      11.645  13.328  17.304  0.00  0.00    +0.000 C 
ATOM     13  C   UNL     1      10.121  13.286  17.405  0.00  0.00    +0.000 C 
ATOM     14  N   UNL     1       9.669  11.994  17.885  0.00  0.00    +0.000 N 
ATOM     15  C   UNL     1       8.390  11.500  17.694  0.00  0.00    +0.000 C 
ATOM     16  O   UNL     1       7.526  11.988  16.982  0.00  0.00    +0.000 OA
ENDBRANCH   4   7
BRANCH   3  17
ATOM     17  C   UNL     1       7.304   5.670  16.619  0.00  0.00    +0.000 C 
BRANCH  17  18
ATOM     18  C   UNL     1       5.840   5.358  16.308  0.00  0.00    +0.000 C 
BRANCH  18  19
ATOM     19  C   UNL     1       5.008   5.157  17.560  0.00  0.00    +0.000 A 
ATOM     20  C   UNL     1       5.186   3.971  18.283  0.00  0.00    +0.000 A 
ATOM     21  C   UNL     1       4.425   3.763  19.416  0.00  0.00    +0.000 A 
ATOM     22  N   UNL     1       3.509   4.637  19.874  0.00  0.00    +0.000 NA
ATOM     23  C   UNL     1       3.325   5.776  19.190  0.00  0.00    +0.000 A 
ATOM     24  C   UNL     1       2.377   6.673  19.665  0.00  0.00    +0.000 A 
ATOM     25  C   UNL     1       2.118   7.886  19.027  0.00  0.00    +0.000 A 
ATOM     26  C   UNL     1       2.822   8.217  17.879  0.00  0.00    +0.000 A 
ATOM     27  C   UNL     1       3.775   7.331  17.374  0.00  0.00    +0.000 A 
ATOM     28  C   UNL     1       4.046   6.099  18.014  0.00  0.00    +0.000 A 
ENDBRANCH  18  19
ENDBRANCH  17  18
ENDBRANCH   3  17
TORSDOF 4
ENDMDL
MODEL 9
REMARK VINA RESULT:      -8.0      1.451      2.449
REMARK  Name = 
REMARK  4 active torsions:
REMARK  status: ('A' for Active; 'I' for Inactive)
REMARK    1  A    between atoms: N_3  and  C_4
REMARK    2  A    between atoms: C_4  and  C_5
REMARK    3  A    between atoms: C_5  and  C_6
REMARK    4  A    between atoms: N_16  and  C_17
REMARK                            x       y       z     vdW  Elec       q    Type
REMARK                         _______ _______ _______ _____ _____    ______ ____
ROOT
ATOM      1  O   UNL     1       1.684   5.692  19.136  0.00  0.00    +0.000 OA
ATOM      2  C   UNL     1       2.582   6.279  19.727  0.00  0.00    +0.000 C 
ATOM      3  N   UNL     1       2.437   7.492  20.355  0.00  0.00    +0.000 N 
ATOM      4  N   UNL     1       3.868   5.831  19.789  0.00  0.00    +0.000 N 
ATOM      5  H   UNL     1       3.025   7.617  21.166  0.00  0.00    +0.000 HD
ATOM      6  H   UNL     1       4.543   6.363  20.322  0.00  0.00    +0.000 HD
ENDROOT
BRANCH   4   7
ATOM      7  C   UNL     1       4.317   4.558  19.231  0.00  0.00    +0.000 C 
ATOM      8  C   UNL     1       3.741   4.240  17.840  0.00  0.00    +0.000 C 
ATOM      9  C   UNL     1       4.954   3.916  16.974  0.00  0.00    +0.000 C 
ATOM     10  C   UNL     1       4.849   4.346  15.513  0.00  0.00    +0.000 C 
ATOM     11  C   UNL     1       6.205   4.162  14.819  0.00  0.00    +0.000 C 
ATOM     12  C   UNL     1       7.295   4.952  15.550  0.00  0.00    +0.000 C 
ATOM     13  C   UNL     1       7.371   4.567  17.026  0.00  0.00    +0.000 C 
ATOM     14  N   UNL     1       6.052   4.574  17.631  0.00  0.00    +0.000 N 
ATOM     15  C   UNL     1       5.825   4.683  18.992  0.00  0.00    +0.000 C 
ATOM     16  O   UNL     1       6.658   4.941  19.846  0.00  0.00    +0.000 OA
ENDBRANCH   4   7
BRANCH   3  17
ATOM     17  C   UNL     1       1.147   8.168  20.370  0.00  0.00    +0.000 C 
BRANCH  17  18
ATOM     18  C   UNL     1       1.081   9.272  19.315  0.00  0.00    +0.000 C 
BRANCH  18  19
ATOM     19  C   UNL     1      -0.041  10.259  19.573  0.00  0.00    +0.000 A 
ATOM     20  C   UNL     1      -0.007  10.996  20.764  0.00  0.00    +0.000 A 
ATOM     21  C   UNL     1      -1.030  11.885  21.024  0.00  0.00    +0.000 A 
ATOM     22  N   UNL     1      -2.072  12.093  20.196  0.00  0.00    +0.000 NA
ATOM     23  C   UNL     1      -2.119  11.393  19.053  0.00  0.00    +0.000 A 
ATOM     24  C   UNL     1      -3.197  11.609  18.204  0.00  0.00    +0.000 A 
ATOM     25  C   UNL     1      -3.332  10.934  16.991  0.00  0.00    +0.000 A 
ATOM     26  C   UNL     1      -2.366  10.014  16.610  0.00  0.00    +0.000 A 
ATOM     27  C   UNL     1      -1.275   9.771  17.447  0.00  0.00    +0.000 A 
ATOM     28  C   UNL     1      -1.129  10.452  18.680  0.00  0.00    +0.000 A 
ENDBRANCH  18  19
ENDBRANCH  17  18
ENDBRANCH   3  17
TORSDOF 4
ENDMDL
