MODEL 1
REMARK VINA RESULT:      -9.0      0.000      0.000
REMARK  Name = 
REMARK  5 active torsions:
REMARK  status: ('A' for Active; 'I' for Inactive)
REMARK    1  A    between atoms: C_2  and  C_16
REMARK    2  A    between atoms: N_3  and  C_4
REMARK    3  A    between atoms: C_4  and  C_5
REMARK    4  A    between atoms: C_9  and  C_10
REMARK    5  A    between atoms: C_20  and  C_21
REMARK                            x       y       z     vdW  Elec       q    Type
REMARK                         _______ _______ _______ _____ _____    ______ ____
ROOT
ATOM      1  O   UNL     1       5.188   2.566  20.143  0.00  0.00    +0.000 OA
ATOM      2  C   UNL     1       4.543   2.992  19.194  0.00  0.00    +0.000 C 
ATOM      3  N   UNL     1       5.099   3.788  18.215  0.00  0.00    +0.000 N 
ATOM      4  H   UNL     1       4.477   4.202  17.533  0.00  0.00    +0.000 HD
ENDROOT
BRANCH   2   5
ATOM      5  C   UNL     1       3.118   2.733  19.019  0.00  0.00    +0.000 A 
ATOM      6  C   UNL     1       2.538   1.501  18.768  0.00  0.00    +0.000 A 
ATOM      7  N   UNL     1       1.194   1.709  18.739  0.00  0.00    +0.000 N 
ATOM      8  N   UNL     1       0.846   2.985  18.920  0.00  0.00    +0.000 NA
ATOM      9  C   UNL     1       2.011   3.645  19.080  0.00  0.00    +0.000 A 
ATOM     10  H   UNL     1       0.455   1.027  18.601  0.00  0.00    +0.000 HD
BRANCH   9  11
ATOM     11  C   UNL     1       2.003   5.105  19.252  0.00  0.00    +0.000 A 
ATOM     12  C   UNL     1       1.619   5.675  20.480  0.00  0.00    +0.000 A 
ATOM     13  C   UNL     1       1.586   7.063  20.648  0.00  0.00    +0.000 A 
ATOM     14  C   UNL     1       1.939   7.886  19.587  0.00  0.00    +0.000 A 
ATOM     15  F   UNL     1       1.912   9.217  19.743  0.00  0.00    +0.000 F 
ATOM     16  C   UNL     1       2.310   7.353  18.363  0.00  0.00    +0.000 A 
ATOM     17  C   UNL     1       2.329   5.965  18.192  0.00  0.00    +0.000 A 
ENDBRANCH   9  11
ENDBRANCH   2   5
BRANCH   3  18
ATOM     18  C   UNL     1       6.466   4.273  18.294  0.00  0.00    +0.000 C 
BRANCH  18  19
ATOM     19  C   UNL     1       6.948   4.873  16.964  0.00  0.00    +0.000 C 
ATOM     20  C   UNL     1       7.245   6.360  17.074  0.00  0.00    +0.000 C 
ATOM     21  C   UNL     1       5.902   7.005  16.820  0.00  0.00    +0.000 C 
ATOM     22  O   UNL     1       5.154   6.117  15.984  0.00  0.00    +0.000 OA
ATOM     23  C   UNL     1       5.824   4.845  15.914  0.00  0.00    +0.000 C 
BRANCH  23  24
ATOM     24  C   UNL     1       6.353   4.597  14.511  0.00  0.00    +0.000 A 
ATOM     25  C   UNL     1       5.757   3.670  13.641  0.00  0.00    +0.000 A 
ATOM     26  C   UNL     1       6.206   3.531  12.326  0.00  0.00    +0.000 A 
ATOM     27  C   UNL     1       7.267   4.306  11.866  0.00  0.00    +0.000 A 
ATOM     28  C   UNL     1       7.890   5.208  12.724  0.00  0.00    +0.000 A 
ATOM     29  C   UNL     1       7.437   5.354  14.038  0.00  0.00    +0.000 A 
ENDBRANCH  23  24
ENDBRANCH  18  19
ENDBRANCH   3  18
TORSDOF 5
ENDMDL
MODEL 2
REMARK VINA RESULT:      -8.9      2.648      4.024
REMARK  Name = 
REMARK  5 active torsions:
REMARK  status: ('A' for Active; 'I' for Inactive)
REMARK    1  A    between atoms: C_2  and  C_16
REMARK    2  A    between atoms: N_3  and  C_4
REMARK    3  A    between atoms: C_4  and  C_5
REMARK    4  A    between atoms: C_9  and  C_10
REMARK    5  A    between atoms: C_20  and  C_21
REMARK                            x       y       z     vdW  Elec       q    Type
REMARK                         _______ _______ _______ _____ _____    ______ ____
ROOT
ATOM      1  O   UNL     1       2.765   8.231  17.117  0.00  0.00    +0.000 OA
ATOM      2  C   UNL     1       3.175   7.392  17.910  0.00  0.00    +0.000 C 
ATOM      3  N   UNL     1       4.303   6.635  17.672  0.00  0.00    +0.000 N 
ATOM      4  H   UNL     1       4.508   5.880  18.313  0.00  0.00    +0.000 HD
ENDROOT
BRANCH   2   5
ATOM      5  C   UNL     1       2.498   7.084  19.165  0.00  0.00    +0.000 A 
ATOM      6  C   UNL     1       1.949   8.004  20.042  0.00  0.00    +0.000 A 
ATOM      7  N   UNL     1       1.371   7.282  21.040  0.00  0.00    +0.000 N 
ATOM      8  N   UNL     1       1.525   5.964  20.906  0.00  0.00    +0.000 NA
ATOM      9  C   UNL     1       2.229   5.809  19.767  0.00  0.00    +0.000 A 
ATOM     10  H   UNL     1       0.855   7.623  21.845  0.00  0.00    +0.000 HD
BRANCH   9  11
ATOM     11  C   UNL     1       2.629   4.461  19.335  0.00  0.00    +0.000 A 
ATOM     12  C   UNL     1       3.643   3.766  20.020  0.00  0.00    +0.000 A 
ATOM     13  C   UNL     1       4.047   2.493  19.605  0.00  0.00    +0.000 A 
ATOM     14  C   UNL     1       3.436   1.910  18.502  0.00  0.00    +0.000 A 
ATOM     15  F   UNL     1       3.817   0.690  18.102  0.00  0.00    +0.000 F 
ATOM     16  C   UNL     1       2.444   2.577  17.801  0.00  0.00    +0.000 A 
ATOM     17  C   UNL     1       2.050   3.855  18.209  0.00  0.00    +0.000 A 
ENDBRANCH   9  11
ENDBRANCH   2   5
BRANCH   3  18
ATOM     18  C   UNL     1       5.027   6.695  16.414  0.00  0.00    +0.000 C 
BRANCH  18  19
ATOM     19  C   UNL     1       5.261   5.302  15.811  0.00  0.00    +0.000 C 
ATOM     20  C   UNL     1       5.738   4.297  16.848  0.00  0.00    +0.000 C 
ATOM     21  C   UNL     1       7.238   4.488  16.857  0.00  0.00    +0.000 C 
ATOM     22  O   UNL     1       7.616   4.955  15.560  0.00  0.00    +0.000 OA
ATOM     23  C   UNL     1       6.437   5.326  14.820  0.00  0.00    +0.000 C 
BRANCH  23  24
ATOM     24  C   UNL     1       6.222   4.380  13.649  0.00  0.00    +0.000 A 
ATOM     25  C   UNL     1       4.954   3.872  13.322  0.00  0.00    +0.000 A 
ATOM     26  C   UNL     1       4.771   3.082  12.186  0.00  0.00    +0.000 A 
ATOM     27  C   UNL     1       5.854   2.775  11.368  0.00  0.00    +0.000 A 
ATOM     28  C   UNL     1       7.125   3.244  11.694  0.00  0.00    +0.000 A 
ATOM     29  C   UNL     1       7.308   4.042  12.826  0.00  0.00    +0.000 A 
ENDBRANCH  23  24
ENDBRANCH  18  19
ENDBRANCH   3  18
TORSDOF 5
ENDMDL
MODEL 3
REMARK VINA RESULT:      -8.9      2.652      4.163
REMARK  Name = 
REMARK  5 active torsions:
REMARK  status: ('A' for Active; 'I' for Inactive)
REMARK    1  A    between atoms: C_2  and  C_16
REMARK    2  A    between atoms: N_3  and  C_4
REMARK    3  A    between atoms: C_4  and  C_5
REMARK    4  A    between atoms: C_9  and  C_10
REMARK    5  A    between atoms: C_20  and  C_21
REMARK                            x       y       z     vdW  Elec       q    Type
REMARK                         _______ _______ _______ _____ _____    ______ ____
ROOT
ATOM      1  O   UNL     1       2.774   8.220  17.084  0.00  0.00    +0.000 OA
ATOM      2  C   UNL     1       3.199   7.386  17.873  0.00  0.00    +0.000 C 
ATOM      3  N   UNL     1       4.339   6.650  17.632  0.00  0.00    +0.000 N 
ATOM      4  H   UNL     1       4.558   5.896  18.269  0.00  0.00    +0.000 HD
ENDROOT
BRANCH   2   5
ATOM      5  C   UNL     1       2.528   7.061  19.127  0.00  0.00    +0.000 A 
ATOM      6  C   UNL     1       1.961   7.967  20.007  0.00  0.00    +0.000 A 
ATOM      7  N   UNL     1       1.397   7.231  21.003  0.00  0.00    +0.000 N 
ATOM      8  N   UNL     1       1.576   5.916  20.864  0.00  0.00    +0.000 NA
ATOM      9  C   UNL     1       2.284   5.779  19.724  0.00  0.00    +0.000 A 
ATOM     10  H   UNL     1       0.875   7.560  21.809  0.00  0.00    +0.000 HD
BRANCH   9  11
ATOM     11  C   UNL     1       2.709   4.441  19.288  0.00  0.00    +0.000 A 
ATOM     12  C   UNL     1       2.085   3.817  18.192  0.00  0.00    +0.000 A 
ATOM     13  C   UNL     1       2.467   2.535  17.783  0.00  0.00    +0.000 A 
ATOM     14  C   UNL     1       3.477   1.873  18.468  0.00  0.00    +0.000 A 
ATOM     15  F   UNL     1       3.848   0.647  18.078  0.00  0.00    +0.000 F 
ATOM     16  C   UNL     1       4.101   2.459  19.558  0.00  0.00    +0.000 A 
ATOM     17  C   UNL     1       3.709   3.734  19.976  0.00  0.00    +0.000 A 
ENDBRANCH   9  11
ENDBRANCH   2   5
BRANCH   3  18
ATOM     18  C   UNL     1       5.062   6.728  16.374  0.00  0.00    +0.000 C 
BRANCH  18  19
ATOM     19  C   UNL     1       5.270   5.346  15.736  0.00  0.00    +0.000 C 
ATOM     20  C   UNL     1       5.689   4.298  16.755  0.00  0.00    +0.000 C 
ATOM     21  C   UNL     1       7.193   4.442  16.809  0.00  0.00    +0.000 C 
ATOM     22  O   UNL     1       7.620   4.935  15.536  0.00  0.00    +0.000 OA
ATOM     23  C   UNL     1       6.473   5.362  14.777  0.00  0.00    +0.000 C 
BRANCH  23  24
ATOM     24  C   UNL     1       6.261   4.458  13.574  0.00  0.00    +0.000 A 
ATOM     25  C   UNL     1       7.326   4.032  12.763  0.00  0.00    +0.000 A 
ATOM     26  C   UNL     1       7.115   3.126  11.722  0.00  0.00    +0.000 A 
ATOM     27  C   UNL     1       5.835   2.644  11.466  0.00  0.00    +0.000 A 
ATOM     28  C   UNL     1       4.762   3.079  12.240  0.00  0.00    +0.000 A 
ATOM     29  C   UNL     1       4.973   3.979  13.288  0.00  0.00    +0.000 A 
ENDBRANCH  23  24
ENDBRANCH  18  19
ENDBRANCH   3  18
TORSDOF 5
ENDMDL
MODEL 4
REMARK VINA RESULT:      -8.8      0.995      1.424
REMARK  Name = 
REMARK  5 active torsions:
REMARK  status: ('A' for Active; 'I' for Inactive)
REMARK    1  A    between atoms: C_2  and  C_16
REMARK    2  A    between atoms: N_3  and  C_4
REMARK    3  A    between atoms: C_4  and  C_5
REMARK    4  A    between atoms: C_9  and  C_10
REMARK    5  A    between atoms: C_20  and  C_21
REMARK                            x       y       z     vdW  Elec       q    Type
REMARK                         _______ _______ _______ _____ _____    ______ ____
ROOT
ATOM      1  O   UNL     1       5.554   5.500  19.929  0.00  0.00    +0.000 OA
ATOM      2  C   UNL     1       5.194   4.526  19.279  0.00  0.00    +0.000 C 
ATOM      3  N   UNL     1       6.013   3.901  18.363  0.00  0.00    +0.000 N 
ATOM      4  H   UNL     1       5.606   3.184  17.777  0.00  0.00    +0.000 HD
ENDROOT
BRANCH   2   5
ATOM      5  C   UNL     1       3.858   3.950  19.381  0.00  0.00    +0.000 A 
ATOM      6  C   UNL     1       3.552   2.600  19.404  0.00  0.00    +0.000 A 
ATOM      7  N   UNL     1       2.204   2.516  19.571  0.00  0.00    +0.000 N 
ATOM      8  N   UNL     1       1.597   3.703  19.627  0.00  0.00    +0.000 NA
ATOM      9  C   UNL     1       2.587   4.608  19.498  0.00  0.00    +0.000 A 
ATOM     10  H   UNL     1       1.631   1.682  19.654  0.00  0.00    +0.000 HD
BRANCH   9  11
ATOM     11  C   UNL     1       2.264   6.042  19.464  0.00  0.00    +0.000 A 
ATOM     12  C   UNL     1       1.768   6.688  20.611  0.00  0.00    +0.000 A 
ATOM     13  C   UNL     1       1.435   8.046  20.584  0.00  0.00    +0.000 A 
ATOM     14  C   UNL     1       1.600   8.764  19.407  0.00  0.00    +0.000 A 
ATOM     15  F   UNL     1       1.286  10.066  19.376  0.00  0.00    +0.000 F 
ATOM     16  C   UNL     1       2.076   8.152  18.258  0.00  0.00    +0.000 A 
ATOM     17  C   UNL     1       2.395   6.791  18.283  0.00  0.00    +0.000 A 
ENDBRANCH   9  11
ENDBRANCH   2   5
BRANCH   3  18
ATOM     18  C   UNL     1       7.326   4.418  18.016  0.00  0.00    +0.000 C 
BRANCH  18  19
ATOM     19  C   UNL     1       7.348   5.061  16.621  0.00  0.00    +0.000 C 
ATOM     20  C   UNL     1       7.222   6.575  16.680  0.00  0.00    +0.000 C 
ATOM     21  C   UNL     1       5.727   6.801  16.704  0.00  0.00    +0.000 C 
ATOM     22  O   UNL     1       5.118   5.697  16.029  0.00  0.00    +0.000 OA
ATOM     23  C   UNL     1       6.098   4.664  15.817  0.00  0.00    +0.000 C 
BRANCH  23  24
ATOM     24  C   UNL     1       6.394   4.505  14.335  0.00  0.00    +0.000 A 
ATOM     25  C   UNL     1       7.455   5.179  13.708  0.00  0.00    +0.000 A 
ATOM     26  C   UNL     1       7.761   4.942  12.367  0.00  0.00    +0.000 A 
ATOM     27  C   UNL     1       7.004   4.038  11.628  0.00  0.00    +0.000 A 
ATOM     28  C   UNL     1       5.928   3.383  12.224  0.00  0.00    +0.000 A 
ATOM     29  C   UNL     1       5.626   3.614  13.569  0.00  0.00    +0.000 A 
ENDBRANCH  23  24
ENDBRANCH  18  19
ENDBRANCH   3  18
TORSDOF 5
ENDMDL
MODEL 5
REMARK VINA RESULT:      -8.7      1.013      1.447
REMARK  Name = 
REMARK  5 active torsions:
REMARK  status: ('A' for Active; 'I' for Inactive)
REMARK    1  A    between atoms: C_2  and  C_16
REMARK    2  A    between atoms: N_3  and  C_4
REMARK    3  A    between atoms: C_4  and  C_5
REMARK    4  A    between atoms: C_9  and  C_10
REMARK    5  A    between atoms: C_20  and  C_21
REMARK                            x       y       z     vdW  Elec       q    Type
REMARK                         _______ _______ _______ _____ _____    ______ ____
ROOT
ATOM      1  O   UNL     1       5.495   5.622  19.867  0.00  0.00    +0.000 OA
ATOM      2  C   UNL     1       5.175   4.605  19.264  0.00  0.00    +0.000 C 
ATOM      3  N   UNL     1       6.032   3.951  18.404  0.00  0.00    +0.000 N 
ATOM      4  H   UNL     1       5.657   3.193  17.850  0.00  0.00    +0.000 HD
ENDROOT
BRANCH   2   5
ATOM      5  C   UNL     1       3.851   4.002  19.365  0.00  0.00    +0.000 A 
ATOM      6  C   UNL     1       3.571   2.646  19.377  0.00  0.00    +0.000 A 
ATOM      7  N   UNL     1       2.226   2.534  19.547  0.00  0.00    +0.000 N 
ATOM      8  N   UNL     1       1.596   3.708  19.617  0.00  0.00    +0.000 NA
ATOM      9  C   UNL     1       2.569   4.634  19.493  0.00  0.00    +0.000 A 
ATOM     10  H   UNL     1       1.670   1.689  19.625  0.00  0.00    +0.000 HD
BRANCH   9  11
ATOM     11  C   UNL     1       2.217   6.062  19.473  0.00  0.00    +0.000 A 
ATOM     12  C   UNL     1       2.419   6.828  18.310  0.00  0.00    +0.000 A 
ATOM     13  C   UNL     1       2.109   8.192  18.287  0.00  0.00    +0.000 A 
ATOM     14  C   UNL     1       1.594   8.793  19.427  0.00  0.00    +0.000 A 
ATOM     15  F   UNL     1       1.293  10.099  19.409  0.00  0.00    +0.000 F 
ATOM     16  C   UNL     1       1.396   8.066  20.590  0.00  0.00    +0.000 A 
ATOM     17  C   UNL     1       1.719   6.706  20.617  0.00  0.00    +0.000 A 
ENDBRANCH   9  11
ENDBRANCH   2   5
BRANCH   3  18
ATOM     18  C   UNL     1       7.341   4.481  18.062  0.00  0.00    +0.000 C 
BRANCH  18  19
ATOM     19  C   UNL     1       7.373   5.081  16.648  0.00  0.00    +0.000 C 
ATOM     20  C   UNL     1       7.182   6.590  16.657  0.00  0.00    +0.000 C 
ATOM     21  C   UNL     1       5.679   6.752  16.636  0.00  0.00    +0.000 C 
ATOM     22  O   UNL     1       5.135   5.603  15.980  0.00  0.00    +0.000 OA
ATOM     23  C   UNL     1       6.164   4.607  15.825  0.00  0.00    +0.000 C 
BRANCH  23  24
ATOM     24  C   UNL     1       6.506   4.416  14.357  0.00  0.00    +0.000 A 
ATOM     25  C   UNL     1       5.816   3.503  13.542  0.00  0.00    +0.000 A 
ATOM     26  C   UNL     1       6.088   3.416  12.175  0.00  0.00    +0.000 A 
ATOM     27  C   UNL     1       7.063   4.230  11.605  0.00  0.00    +0.000 A 
ATOM     28  C   UNL     1       7.778   5.119  12.404  0.00  0.00    +0.000 A 
ATOM     29  C   UNL     1       7.501   5.213  13.770  0.00  0.00    +0.000 A 
ENDBRANCH  23  24
ENDBRANCH  18  19
ENDBRANCH   3  18
TORSDOF 5
ENDMDL
MODEL 6
REMARK VINA RESULT:      -8.6      2.590      4.059
REMARK  Name = 
REMARK  5 active torsions:
REMARK  status: ('A' for Active; 'I' for Inactive)
REMARK    1  A    between atoms: C_2  and  C_16
REMARK    2  A    between atoms: N_3  and  C_4
REMARK    3  A    between atoms: C_4  and  C_5
REMARK    4  A    between atoms: C_9  and  C_10
REMARK    5  A    between atoms: C_20  and  C_21
REMARK                            x       y       z     vdW  Elec       q    Type
REMARK                         _______ _______ _______ _____ _____    ______ ____
ROOT
ATOM      1  O   UNL     1       2.777   7.941  16.942  0.00  0.00    +0.000 OA
ATOM      2  C   UNL     1       3.280   7.385  17.910  0.00  0.00    +0.000 C 
ATOM      3  N   UNL     1       4.588   6.947  17.917  0.00  0.00    +0.000 N 
ATOM      4  H   UNL     1       4.894   6.388  18.702  0.00  0.00    +0.000 HD
ENDROOT
BRANCH   2   5
ATOM      5  C   UNL     1       2.545   7.100  19.137  0.00  0.00    +0.000 A 
ATOM      6  C   UNL     1       1.974   8.037  19.981  0.00  0.00    +0.000 A 
ATOM      7  N   UNL     1       1.341   7.334  20.959  0.00  0.00    +0.000 N 
ATOM      8  N   UNL     1       1.478   6.012  20.843  0.00  0.00    +0.000 NA
ATOM      9  C   UNL     1       2.228   5.835  19.737  0.00  0.00    +0.000 A 
ATOM     10  H   UNL     1       0.796   7.691  21.738  0.00  0.00    +0.000 HD
BRANCH   9  11
ATOM     11  C   UNL     1       2.624   4.477  19.335  0.00  0.00    +0.000 A 
ATOM     12  C   UNL     1       3.616   3.783  20.051  0.00  0.00    +0.000 A 
ATOM     13  C   UNL     1       4.016   2.500  19.664  0.00  0.00    +0.000 A 
ATOM     14  C   UNL     1       3.422   1.906  18.558  0.00  0.00    +0.000 A 
ATOM     15  F   UNL     1       3.799   0.676  18.185  0.00  0.00    +0.000 F 
ATOM     16  C   UNL     1       2.450   2.571  17.827  0.00  0.00    +0.000 A 
ATOM     17  C   UNL     1       2.061   3.859  18.207  0.00  0.00    +0.000 A 
ENDBRANCH   9  11
ENDBRANCH   2   5
BRANCH   3  18
ATOM     18  C   UNL     1       5.434   7.010  16.737  0.00  0.00    +0.000 C 
BRANCH  18  19
ATOM     19  C   UNL     1       5.500   5.665  15.997  0.00  0.00    +0.000 C 
ATOM     20  C   UNL     1       5.565   4.483  16.952  0.00  0.00    +0.000 C 
ATOM     21  C   UNL     1       7.043   4.342  17.235  0.00  0.00    +0.000 C 
ATOM     22  O   UNL     1       7.746   4.841  16.094  0.00  0.00    +0.000 OA
ATOM     23  C   UNL     1       6.825   5.531  15.227  0.00  0.00    +0.000 C 
BRANCH  23  24
ATOM     24  C   UNL     1       6.655   4.774  13.919  0.00  0.00    +0.000 A 
ATOM     25  C   UNL     1       7.582   4.882  12.869  0.00  0.00    +0.000 A 
ATOM     26  C   UNL     1       7.451   4.104  11.717  0.00  0.00    +0.000 A 
ATOM     27  C   UNL     1       6.385   3.218  11.590  0.00  0.00    +0.000 A 
ATOM     28  C   UNL     1       5.439   3.122  12.608  0.00  0.00    +0.000 A 
ATOM     29  C   UNL     1       5.573   3.893  13.766  0.00  0.00    +0.000 A 
ENDBRANCH  23  24
ENDBRANCH  18  19
ENDBRANCH   3  18
TORSDOF 5
ENDMDL
MODEL 7
REMARK VINA RESULT:      -8.5      4.084      7.602
REMARK  Name = 
REMARK  5 active torsions:
REMARK  status: ('A' for Active; 'I' for Inactive)
REMARK    1  A    between atoms: C_2  and  C_16
REMARK    2  A    between atoms: N_3  and  C_4
REMARK    3  A    between atoms: C_4  and  C_5
REMARK    4  A    between atoms: C_9  and  C_10
REMARK    5  A    between atoms: C_20  and  C_21
REMARK                            x       y       z     vdW  Elec       q    Type
REMARK                         _______ _______ _______ _____ _____    ______ ____
ROOT
ATOM      1  O   UNL     1       1.918   6.092  20.544  0.00  0.00    +0.000 OA
ATOM      2  C   UNL     1       2.191   6.279  19.365  0.00  0.00    +0.000 C 
ATOM      3  N   UNL     1       2.133   7.526  18.779  0.00  0.00    +0.000 N 
ATOM      4  H   UNL     1       2.251   7.582  17.776  0.00  0.00    +0.000 HD
ENDROOT
BRANCH   2   5
ATOM      5  C   UNL     1       2.571   5.205  18.455  0.00  0.00    +0.000 A 
ATOM      6  C   UNL     1       1.731   4.228  17.950  0.00  0.00    +0.000 A 
ATOM      7  N   UNL     1       2.483   3.477  17.101  0.00  0.00    +0.000 N 
ATOM      8  N   UNL     1       3.758   3.863  17.032  0.00  0.00    +0.000 NA
ATOM      9  C   UNL     1       3.849   4.918  17.867  0.00  0.00    +0.000 A 
ATOM     10  H   UNL     1       2.192   2.686  16.535  0.00  0.00    +0.000 HD
BRANCH   9  11
ATOM     11  C   UNL     1       5.150   5.569  18.079  0.00  0.00    +0.000 A 
ATOM     12  C   UNL     1       5.571   6.612  17.233  0.00  0.00    +0.000 A 
ATOM     13  C   UNL     1       6.816   7.223  17.411  0.00  0.00    +0.000 A 
ATOM     14  C   UNL     1       7.644   6.795  18.439  0.00  0.00    +0.000 A 
ATOM     15  F   UNL     1       8.837   7.379  18.616  0.00  0.00    +0.000 F 
ATOM     16  C   UNL     1       7.261   5.762  19.281  0.00  0.00    +0.000 A 
ATOM     17  C   UNL     1       6.023   5.142  19.093  0.00  0.00    +0.000 A 
ENDBRANCH   9  11
ENDBRANCH   2   5
BRANCH   3  18
ATOM     18  C   UNL     1       1.635   8.694  19.486  0.00  0.00    +0.000 C 
BRANCH  18  19
ATOM     19  C   UNL     1       0.893   9.665  18.555  0.00  0.00    +0.000 C 
ATOM     20  C   UNL     1       1.707  10.913  18.255  0.00  0.00    +0.000 C 
ATOM     21  C   UNL     1       1.368  11.837  19.403  0.00  0.00    +0.000 C 
ATOM     22  O   UNL     1       0.055  11.492  19.854  0.00  0.00    +0.000 OA
ATOM     23  C   UNL     1      -0.349  10.248  19.251  0.00  0.00    +0.000 C 
BRANCH  23  24
ATOM     24  C   UNL     1      -1.499  10.472  18.283  0.00  0.00    +0.000 A 
ATOM     25  C   UNL     1      -1.601   9.773  17.070  0.00  0.00    +0.000 A 
ATOM     26  C   UNL     1      -2.716   9.930  16.245  0.00  0.00    +0.000 A 
ATOM     27  C   UNL     1      -3.739  10.799  16.613  0.00  0.00    +0.000 A 
ATOM     28  C   UNL     1      -3.640  11.524  17.798  0.00  0.00    +0.000 A 
ATOM     29  C   UNL     1      -2.528  11.362  18.628  0.00  0.00    +0.000 A 
ENDBRANCH  23  24
ENDBRANCH  18  19
ENDBRANCH   3  18
TORSDOF 5
ENDMDL
MODEL 8
REMARK VINA RESULT:      -8.4      3.999      7.485
REMARK  Name = 
REMARK  5 active torsions:
REMARK  status: ('A' for Active; 'I' for Inactive)
REMARK    1  A    between atoms: C_2  and  C_16
REMARK    2  A    between atoms: N_3  and  C_4
REMARK    3  A    between atoms: C_4  and  C_5
REMARK    4  A    between atoms: C_9  and  C_10
REMARK    5  A    between atoms: C_20  and  C_21
REMARK                            x       y       z     vdW  Elec       q    Type
REMARK                         _______ _______ _______ _____ _____    ______ ____
ROOT
ATOM      1  O   UNL     1       1.902   5.927  20.418  0.00  0.00    +0.000 OA
ATOM      2  C   UNL     1       2.251   6.124  19.261  0.00  0.00    +0.000 C 
ATOM      3  N   UNL     1       2.261   7.379  18.691  0.00  0.00    +0.000 N 
ATOM      4  H   UNL     1       2.442   7.446  17.699  0.00  0.00    +0.000 HD
ENDROOT
BRANCH   2   5
ATOM      5  C   UNL     1       2.657   5.052  18.358  0.00  0.00    +0.000 A 
ATOM      6  C   UNL     1       1.838   4.057  17.854  0.00  0.00    +0.000 A 
ATOM      7  N   UNL     1       2.609   3.316  17.013  0.00  0.00    +0.000 N 
ATOM      8  N   UNL     1       3.878   3.725  16.950  0.00  0.00    +0.000 NA
ATOM      9  C   UNL     1       3.944   4.786  17.780  0.00  0.00    +0.000 A 
ATOM     10  H   UNL     1       2.337   2.516  16.450  0.00  0.00    +0.000 HD
BRANCH   9  11
ATOM     11  C   UNL     1       5.231   5.463  17.996  0.00  0.00    +0.000 A 
ATOM     12  C   UNL     1       6.060   5.089  19.070  0.00  0.00    +0.000 A 
ATOM     13  C   UNL     1       7.276   5.741  19.298  0.00  0.00    +0.000 A 
ATOM     14  C   UNL     1       7.668   6.769  18.451  0.00  0.00    +0.000 A 
ATOM     15  F   UNL     1       8.833   7.395  18.663  0.00  0.00    +0.000 F 
ATOM     16  C   UNL     1       6.866   7.166  17.392  0.00  0.00    +0.000 A 
ATOM     17  C   UNL     1       5.644   6.523  17.173  0.00  0.00    +0.000 A 
ENDBRANCH   9  11
ENDBRANCH   2   5
BRANCH   3  18
ATOM     18  C   UNL     1       1.753   8.550  19.386  0.00  0.00    +0.000 C 
BRANCH  18  19
ATOM     19  C   UNL     1       0.966   9.483  18.452  0.00  0.00    +0.000 C 
ATOM     20  C   UNL     1       1.806  10.653  17.963  0.00  0.00    +0.000 C 
ATOM     21  C   UNL     1       1.636  11.686  19.054  0.00  0.00    +0.000 C 
ATOM     22  O   UNL     1       0.363  11.457  19.663  0.00  0.00    +0.000 OA
ATOM     23  C   UNL     1      -0.164  10.194  19.216  0.00  0.00    +0.000 C 
BRANCH  23  24
ATOM     24  C   UNL     1      -1.397  10.405  18.353  0.00  0.00    +0.000 A 
ATOM     25  C   UNL     1      -2.439  11.266  18.736  0.00  0.00    +0.000 A 
ATOM     26  C   UNL     1      -3.514  11.512  17.882  0.00  0.00    +0.000 A 
ATOM     27  C   UNL     1      -3.573  10.892  16.637  0.00  0.00    +0.000 A 
ATOM     28  C   UNL     1      -2.565  10.011  16.253  0.00  0.00    +0.000 A 
ATOM     29  C   UNL     1      -1.483   9.770  17.104  0.00  0.00    +0.000 A 
ENDBRANCH  23  24
ENDBRANCH  18  19
ENDBRANCH   3  18
TORSDOF 5
ENDMDL
MODEL 9
REMARK VINA RESULT:      -8.1      1.526      3.300
REMARK  Name = 
REMARK  5 active torsions:
REMARK  status: ('A' for Active; 'I' for Inactive)
REMARK    1  A    between atoms: C_2  and  C_16
REMARK    2  A    between atoms: N_3  and  C_4
REMARK    3  A    between atoms: C_4  and  C_5
REMARK    4  A    between atoms: C_9  and  C_10
REMARK    5  A    between atoms: C_20  and  C_21
REMARK                            x       y       z     vdW  Elec       q    Type
REMARK                         _______ _______ _______ _____ _____    ______ ____
ROOT
ATOM      1  O   UNL     1       5.069   3.298  19.420  0.00  0.00    +0.000 OA
ATOM      2  C   UNL     1       3.953   3.311  18.917  0.00  0.00    +0.000 C 
ATOM      3  N   UNL     1       3.752   3.277  17.554  0.00  0.00    +0.000 N 
ATOM      4  H   UNL     1       2.811   3.416  17.211  0.00  0.00    +0.000 HD
ENDROOT
BRANCH   2   5
ATOM      5  C   UNL     1       2.726   3.398  19.703  0.00  0.00    +0.000 A 
ATOM      6  C   UNL     1       2.103   2.350  20.358  0.00  0.00    +0.000 A 
ATOM      7  N   UNL     1       1.036   2.888  21.009  0.00  0.00    +0.000 N 
ATOM      8  N   UNL     1       0.890   4.199  20.808  0.00  0.00    +0.000 NA
ATOM      9  C   UNL     1       1.909   4.542  19.993  0.00  0.00    +0.000 A 
ATOM     10  H   UNL     1       0.364   2.420  21.609  0.00  0.00    +0.000 HD
BRANCH   9  11
ATOM     11  C   UNL     1       2.026   5.927  19.517  0.00  0.00    +0.000 A 
ATOM     12  C   UNL     1       1.690   7.002  20.362  0.00  0.00    +0.000 A 
ATOM     13  C   UNL     1       1.776   8.323  19.912  0.00  0.00    +0.000 A 
ATOM     14  C   UNL     1       2.201   8.575  18.615  0.00  0.00    +0.000 A 
ATOM     15  F   UNL     1       2.289   9.839  18.180  0.00  0.00    +0.000 F 
ATOM     16  C   UNL     1       2.528   7.536  17.757  0.00  0.00    +0.000 A 
ATOM     17  C   UNL     1       2.428   6.215  18.203  0.00  0.00    +0.000 A 
ENDBRANCH   9  11
ENDBRANCH   2   5
BRANCH   3  18
ATOM     18  C   UNL     1       4.852   3.336  16.606  0.00  0.00    +0.000 C 
BRANCH  18  19
ATOM     19  C   UNL     1       5.433   4.753  16.478  0.00  0.00    +0.000 C 
ATOM     20  C   UNL     1       5.382   5.270  15.049  0.00  0.00    +0.000 C 
ATOM     21  C   UNL     1       6.663   4.746  14.441  0.00  0.00    +0.000 C 
ATOM     22  O   UNL     1       7.613   4.608  15.501  0.00  0.00    +0.000 OA
ATOM     23  C   UNL     1       6.944   4.752  16.768  0.00  0.00    +0.000 C 
BRANCH  23  24
ATOM     24  C   UNL     1       7.395   6.023  17.468  0.00  0.00    +0.000 A 
ATOM     25  C   UNL     1       7.987   6.004  18.742  0.00  0.00    +0.000 A 
ATOM     26  C   UNL     1       8.478   7.176  19.321  0.00  0.00    +0.000 A 
ATOM     27  C   UNL     1       8.372   8.387  18.643  0.00  0.00    +0.000 A 
ATOM     28  C   UNL     1       7.759   8.430  17.392  0.00  0.00    +0.000 A 
ATOM     29  C   UNL     1       7.275   7.256  16.808  0.00  0.00    +0.000 A 
ENDBRANCH  23  24
ENDBRANCH  18  19
ENDBRANCH   3  18
TORSDOF 5
ENDMDL
