MODEL 1
REMARK VINA RESULT:      -9.1      0.000      0.000
REMARK  Name = 
REMARK  6 active torsions:
REMARK  status: ('A' for Active; 'I' for Inactive)
REMARK    1  A    between atoms: C_2  and  C_4
REMARK    2  A    between atoms: C_6  and  N_7
REMARK    3  A    between atoms: C_8  and  C_10
REMARK    4  A    between atoms: C_14  and  O_15
REMARK    5  A    between atoms: O_15  and  C_16
REMARK    6  A    between atoms: C_24  and  C_25
REMARK                            x       y       z     vdW  Elec       q    Type
REMARK                         _______ _______ _______ _____ _____    ______ ____
ROOT
ATOM      1  N   UNL     1       2.022   7.980  19.166  0.00  0.00    +0.000 N 
ATOM      2  C   UNL     1       2.709   8.050  17.960  0.00  0.00    +0.000 C 
ATOM      3  O   UNL     1       2.625   8.958  17.138  0.00  0.00    +0.000 OA
ATOM      4  H   UNL     1       2.208   7.201  19.785  0.00  0.00    +0.000 HD
ENDROOT
BRANCH   1   7
ATOM      5  C   UNL     1      -0.055  10.082  21.485  0.00  0.00    +0.000 A 
ATOM      6  C   UNL     1       0.853   9.126  21.019  0.00  0.00    +0.000 A 
ATOM      7  C   UNL     1       1.113   8.959  19.654  0.00  0.00    +0.000 A 
ATOM      8  C   UNL     1       0.427   9.772  18.747  0.00  0.00    +0.000 A 
ATOM      9  C   UNL     1      -0.514  10.715  19.201  0.00  0.00    +0.000 A 
ATOM     10  C   UNL     1      -0.741  10.882  20.572  0.00  0.00    +0.000 A 
BRANCH   5  12
ATOM     11  N   UNL     1      -1.456  10.937  23.294  0.00  0.00    +0.000 N 
ATOM     12  C   UNL     1      -0.353  10.214  22.934  0.00  0.00    +0.000 C 
ATOM     13  O   UNL     1       0.370   9.690  23.773  0.00  0.00    +0.000 OA
ATOM     14  H   UNL     1      -1.640  11.053  24.283  0.00  0.00    +0.000 HD
ATOM     15  H   UNL     1      -2.129  11.320  22.646  0.00  0.00    +0.000 HD
ENDBRANCH   5  12
BRANCH   9  16
ATOM     16  C   UNL     1      -1.266  11.512  18.196  0.00  0.00    +0.000 C 
ATOM     17  N   UNL     1      -1.330  12.864  18.389  0.00  0.00    +0.000 N 
ATOM     18  O   UNL     1      -1.839  10.976  17.258  0.00  0.00    +0.000 OA
ATOM     19  H   UNL     1      -1.044  13.319  19.247  0.00  0.00    +0.000 HD
ATOM     20  H   UNL     1      -1.919  13.394  17.759  0.00  0.00    +0.000 HD
ENDBRANCH   9  16
ENDBRANCH   1   7
BRANCH   2  21
ATOM     21  C   UNL     1       3.638   6.942  17.620  0.00  0.00    +0.000 A 
ATOM     22  C   UNL     1       4.960   7.141  17.209  0.00  0.00    +0.000 A 
ATOM     23  C   UNL     1       5.785   6.034  16.983  0.00  0.00    +0.000 A 
ATOM     24  C   UNL     1       5.303   4.737  17.183  0.00  0.00    +0.000 A 
ATOM     25  C   UNL     1       4.007   4.536  17.657  0.00  0.00    +0.000 A 
ATOM     26  C   UNL     1       3.167   5.634  17.830  0.00  0.00    +0.000 A 
BRANCH  25  27
ATOM     27  O   UNL     1       3.450   3.311  17.933  0.00  0.00    +0.000 OA
BRANCH  27  28
ATOM     28  C   UNL     1       2.689   3.136  19.067  0.00  0.00    +0.000 A 
ATOM     29  C   UNL     1       1.294   3.208  19.114  0.00  0.00    +0.000 A 
ATOM     30  C   UNL     1       0.626   3.072  20.332  0.00  0.00    +0.000 A 
ATOM     31  C   UNL     1       1.344   2.802  21.496  0.00  0.00    +0.000 A 
ATOM     32  C   UNL     1       2.729   2.647  21.439  0.00  0.00    +0.000 A 
ATOM     33  C   UNL     1       3.399   2.813  20.226  0.00  0.00    +0.000 A 
ENDBRANCH  27  28
ENDBRANCH  25  27
ENDBRANCH   2  21
TORSDOF 6
ENDMDL
MODEL 2
REMARK VINA RESULT:      -9.1      0.706      2.854
REMARK  Name = 
REMARK  6 active torsions:
REMARK  status: ('A' for Active; 'I' for Inactive)
REMARK    1  A    between atoms: C_2  and  C_4
REMARK    2  A    between atoms: C_6  and  N_7
REMARK    3  A    between atoms: C_8  and  C_10
REMARK    4  A    between atoms: C_14  and  O_15
REMARK    5  A    between atoms: O_15  and  C_16
REMARK    6  A    between atoms: C_24  and  C_25
REMARK                            x       y       z     vdW  Elec       q    Type
REMARK                         _______ _______ _______ _____ _____    ______ ____
ROOT
ATOM      1  N   UNL     1       1.968   8.205  19.128  0.00  0.00    +0.000 N 
ATOM      2  C   UNL     1       2.636   8.219  17.909  0.00  0.00    +0.000 C 
ATOM      3  O   UNL     1       2.554   9.097  17.056  0.00  0.00    +0.000 OA
ATOM      4  H   UNL     1       2.152   7.446  19.772  0.00  0.00    +0.000 HD
ENDROOT
BRANCH   1   7
ATOM      5  C   UNL     1      -0.272  11.217  19.230  0.00  0.00    +0.000 A 
ATOM      6  C   UNL     1       0.585  10.220  18.756  0.00  0.00    +0.000 A 
ATOM      7  C   UNL     1       1.083   9.216  19.594  0.00  0.00    +0.000 A 
ATOM      8  C   UNL     1       0.711   9.234  20.941  0.00  0.00    +0.000 A 
ATOM      9  C   UNL     1      -0.125  10.252  21.438  0.00  0.00    +0.000 A 
ATOM     10  C   UNL     1      -0.631  11.233  20.577  0.00  0.00    +0.000 A 
BRANCH   5  12
ATOM     11  N   UNL     1      -1.709  11.988  17.411  0.00  0.00    +0.000 N 
ATOM     12  C   UNL     1      -0.754  12.302  18.338  0.00  0.00    +0.000 C 
ATOM     13  O   UNL     1      -0.304  13.438  18.433  0.00  0.00    +0.000 OA
ATOM     14  H   UNL     1      -2.013  12.722  16.782  0.00  0.00    +0.000 HD
ATOM     15  H   UNL     1      -2.171  11.093  17.342  0.00  0.00    +0.000 HD
ENDBRANCH   5  12
BRANCH   9  16
ATOM     16  C   UNL     1      -0.443  10.267  22.890  0.00  0.00    +0.000 C 
ATOM     17  N   UNL     1      -1.541  10.979  23.285  0.00  0.00    +0.000 N 
ATOM     18  O   UNL     1       0.274   9.701  23.705  0.00  0.00    +0.000 OA
ATOM     19  H   UNL     1      -2.040  11.617  22.677  0.00  0.00    +0.000 HD
ATOM     20  H   UNL     1      -1.702  11.067  24.280  0.00  0.00    +0.000 HD
ENDBRANCH   9  16
ENDBRANCH   1   7
BRANCH   2  21
ATOM     21  C   UNL     1       3.543   7.084  17.596  0.00  0.00    +0.000 A 
ATOM     22  C   UNL     1       4.888   7.243  17.250  0.00  0.00    +0.000 A 
ATOM     23  C   UNL     1       5.685   6.111  17.046  0.00  0.00    +0.000 A 
ATOM     24  C   UNL     1       5.149   4.828  17.203  0.00  0.00    +0.000 A 
ATOM     25  C   UNL     1       3.827   4.667  17.613  0.00  0.00    +0.000 A 
ATOM     26  C   UNL     1       3.018   5.790  17.764  0.00  0.00    +0.000 A 
BRANCH  25  27
ATOM     27  O   UNL     1       3.216   3.458  17.844  0.00  0.00    +0.000 OA
BRANCH  27  28
ATOM     28  C   UNL     1       2.560   3.229  19.033  0.00  0.00    +0.000 A 
ATOM     29  C   UNL     1       1.172   3.236  19.196  0.00  0.00    +0.000 A 
ATOM     30  C   UNL     1       0.615   3.049  20.462  0.00  0.00    +0.000 A 
ATOM     31  C   UNL     1       1.438   2.793  21.557  0.00  0.00    +0.000 A 
ATOM     32  C   UNL     1       2.819   2.703  21.383  0.00  0.00    +0.000 A 
ATOM     33  C   UNL     1       3.378   2.919  20.122  0.00  0.00    +0.000 A 
ENDBRANCH  27  28
ENDBRANCH  25  27
ENDBRANCH   2  21
TORSDOF 6
ENDMDL
MODEL 3
REMARK VINA RESULT:      -9.0      2.814      8.500
REMARK  Name = 
REMARK  6 active torsions:
REMARK  status: ('A' for Active; 'I' for Inactive)
REMARK    1  A    between atoms: C_2  and  C_4
REMARK    2  A    between atoms: C_6  and  N_7
REMARK    3  A    between atoms: C_8  and  C_10
REMARK    4  A    between atoms: C_14  and  O_15
REMARK    5  A    between atoms: O_15  and  C_16
REMARK    6  A    between atoms: C_24  and  C_25
REMARK                            x       y       z     vdW  Elec       q    Type
REMARK                         _______ _______ _______ _____ _____    ______ ____
ROOT
ATOM      1  N   UNL     1       2.713   7.063  18.912  0.00  0.00    +0.000 N 
ATOM      2  C   UNL     1       2.048   7.077  20.132  0.00  0.00    +0.000 C 
ATOM      3  O   UNL     1       2.012   6.154  20.940  0.00  0.00    +0.000 OA
ATOM      4  H   UNL     1       2.708   7.905  18.348  0.00  0.00    +0.000 HD
ENDROOT
BRANCH   1   7
ATOM      5  C   UNL     1       5.485   5.070  17.348  0.00  0.00    +0.000 A 
ATOM      6  C   UNL     1       4.754   6.145  17.862  0.00  0.00    +0.000 A 
ATOM      7  C   UNL     1       3.473   5.976  18.400  0.00  0.00    +0.000 A 
ATOM      8  C   UNL     1       2.923   4.692  18.405  0.00  0.00    +0.000 A 
ATOM      9  C   UNL     1       3.635   3.606  17.860  0.00  0.00    +0.000 A 
ATOM     10  C   UNL     1       4.924   3.794  17.349  0.00  0.00    +0.000 A 
BRANCH   5  12
ATOM     11  N   UNL     1       7.806   4.372  17.040  0.00  0.00    +0.000 N 
ATOM     12  C   UNL     1       6.824   5.275  16.738  0.00  0.00    +0.000 C 
ATOM     13  O   UNL     1       7.034   6.224  15.992  0.00  0.00    +0.000 OA
ATOM     14  H   UNL     1       8.727   4.532  16.648  0.00  0.00    +0.000 HD
ATOM     15  H   UNL     1       7.668   3.532  17.581  0.00  0.00    +0.000 HD
ENDBRANCH   5  12
BRANCH   9  16
ATOM     16  C   UNL     1       2.983   2.270  17.829  0.00  0.00    +0.000 C 
ATOM     17  N   UNL     1       3.777   1.179  18.052  0.00  0.00    +0.000 N 
ATOM     18  O   UNL     1       1.794   2.148  17.572  0.00  0.00    +0.000 OA
ATOM     19  H   UNL     1       4.789   1.221  18.071  0.00  0.00    +0.000 HD
ATOM     20  H   UNL     1       3.353   0.268  17.938  0.00  0.00    +0.000 HD
ENDBRANCH   9  16
ENDBRANCH   1   7
BRANCH   2  21
ATOM     21  C   UNL     1       1.317   8.313  20.516  0.00  0.00    +0.000 A 
ATOM     22  C   UNL     1       1.188   8.755  21.836  0.00  0.00    +0.000 A 
ATOM     23  C   UNL     1       0.548   9.971  22.096  0.00  0.00    +0.000 A 
ATOM     24  C   UNL     1       0.053  10.751  21.045  0.00  0.00    +0.000 A 
ATOM     25  C   UNL     1       0.239  10.346  19.724  0.00  0.00    +0.000 A 
ATOM     26  C   UNL     1       0.828   9.111  19.467  0.00  0.00    +0.000 A 
BRANCH  25  27
ATOM     27  O   UNL     1      -0.162  11.056  18.619  0.00  0.00    +0.000 OA
BRANCH  27  28
ATOM     28  C   UNL     1      -1.469  10.992  18.189  0.00  0.00    +0.000 A 
ATOM     29  C   UNL     1      -2.501  11.819  18.641  0.00  0.00    +0.000 A 
ATOM     30  C   UNL     1      -3.805  11.626  18.180  0.00  0.00    +0.000 A 
ATOM     31  C   UNL     1      -4.070  10.650  17.221  0.00  0.00    +0.000 A 
ATOM     32  C   UNL     1      -3.028   9.878  16.708  0.00  0.00    +0.000 A 
ATOM     33  C   UNL     1      -1.730  10.050  17.191  0.00  0.00    +0.000 A 
ENDBRANCH  27  28
ENDBRANCH  25  27
ENDBRANCH   2  21
TORSDOF 6
ENDMDL
MODEL 4
REMARK VINA RESULT:      -9.0      2.742      8.559
REMARK  Name = 
REMARK  6 active torsions:
REMARK  status: ('A' for Active; 'I' for Inactive)
REMARK    1  A    between atoms: C_2  and  C_4
REMARK    2  A    between atoms: C_6  and  N_7
REMARK    3  A    between atoms: C_8  and  C_10
REMARK    4  A    between atoms: C_14  and  O_15
REMARK    5  A    between atoms: O_15  and  C_16
REMARK    6  A    between atoms: C_24  and  C_25
REMARK                            x       y       z     vdW  Elec       q    Type
REMARK                         _______ _______ _______ _____ _____    ______ ____
ROOT
ATOM      1  N   UNL     1       2.522   7.100  19.022  0.00  0.00    +0.000 N 
ATOM      2  C   UNL     1       2.058   8.253  18.399  0.00  0.00    +0.000 C 
ATOM      3  O   UNL     1       2.263   8.569  17.231  0.00  0.00    +0.000 OA
ATOM      4  H   UNL     1       2.248   6.925  19.982  0.00  0.00    +0.000 HD
ENDROOT
BRANCH   1   7
ATOM      5  C   UNL     1       3.678   3.763  17.745  0.00  0.00    +0.000 A 
ATOM      6  C   UNL     1       2.891   4.752  18.342  0.00  0.00    +0.000 A 
ATOM      7  C   UNL     1       3.305   6.087  18.403  0.00  0.00    +0.000 A 
ATOM      8  C   UNL     1       4.547   6.420  17.856  0.00  0.00    +0.000 A 
ATOM      9  C   UNL     1       5.364   5.427  17.281  0.00  0.00    +0.000 A 
ATOM     10  C   UNL     1       4.920   4.102  17.209  0.00  0.00    +0.000 A 
BRANCH   5  12
ATOM     11  N   UNL     1       4.138   1.399  18.157  0.00  0.00    +0.000 N 
ATOM     12  C   UNL     1       3.244   2.343  17.731  0.00  0.00    +0.000 C 
ATOM     13  O   UNL     1       2.122   2.034  17.347  0.00  0.00    +0.000 OA
ATOM     14  H   UNL     1       3.851   0.428  18.116  0.00  0.00    +0.000 HD
ATOM     15  H   UNL     1       5.042   1.604  18.557  0.00  0.00    +0.000 HD
ENDBRANCH   5  12
BRANCH   9  16
ATOM     16  C   UNL     1       6.704   5.816  16.769  0.00  0.00    +0.000 C 
ATOM     17  N   UNL     1       7.551   4.809  16.398  0.00  0.00    +0.000 N 
ATOM     18  O   UNL     1       7.052   6.988  16.721  0.00  0.00    +0.000 OA
ATOM     19  H   UNL     1       7.380   3.833  16.606  0.00  0.00    +0.000 HD
ATOM     20  H   UNL     1       8.494   5.069  16.139  0.00  0.00    +0.000 HD
ENDBRANCH   9  16
ENDBRANCH   1   7
BRANCH   2  21
ATOM     21  C   UNL     1       1.231   9.195  19.198  0.00  0.00    +0.000 A 
ATOM     22  C   UNL     1       1.265   9.259  20.594  0.00  0.00    +0.000 A 
ATOM     23  C   UNL     1       0.509  10.230  21.258  0.00  0.00    +0.000 A 
ATOM     24  C   UNL     1      -0.264  11.145  20.534  0.00  0.00    +0.000 A 
ATOM     25  C   UNL     1      -0.247  11.127  19.140  0.00  0.00    +0.000 A 
ATOM     26  C   UNL     1       0.462  10.127  18.480  0.00  0.00    +0.000 A 
BRANCH  25  27
ATOM     27  O   UNL     1      -0.927  12.007  18.333  0.00  0.00    +0.000 OA
BRANCH  27  28
ATOM     28  C   UNL     1      -2.193  11.699  17.884  0.00  0.00    +0.000 A 
ATOM     29  C   UNL     1      -2.485  11.133  16.640  0.00  0.00    +0.000 A 
ATOM     30  C   UNL     1      -3.812  10.917  16.264  0.00  0.00    +0.000 A 
ATOM     31  C   UNL     1      -4.846  11.207  17.152  0.00  0.00    +0.000 A 
ATOM     32  C   UNL     1      -4.553  11.695  18.426  0.00  0.00    +0.000 A 
ATOM     33  C   UNL     1      -3.229  11.939  18.791  0.00  0.00    +0.000 A 
ENDBRANCH  27  28
ENDBRANCH  25  27
ENDBRANCH   2  21
TORSDOF 6
ENDMDL
MODEL 5
REMARK VINA RESULT:      -9.0      2.832      8.302
REMARK  Name = 
REMARK  6 active torsions:
REMARK  status: ('A' for Active; 'I' for Inactive)
REMARK    1  A    between atoms: C_2  and  C_4
REMARK    2  A    between atoms: C_6  and  N_7
REMARK    3  A    between atoms: C_8  and  C_10
REMARK    4  A    between atoms: C_14  and  O_15
REMARK    5  A    between atoms: O_15  and  C_16
REMARK    6  A    between atoms: C_24  and  C_25
REMARK                            x       y       z     vdW  Elec       q    Type
REMARK                         _______ _______ _______ _____ _____    ______ ____
ROOT
ATOM      1  N   UNL     1       2.604   7.250  18.713  0.00  0.00    +0.000 N 
ATOM      2  C   UNL     1       2.013   7.186  19.969  0.00  0.00    +0.000 C 
ATOM      3  O   UNL     1       2.009   6.209  20.711  0.00  0.00    +0.000 OA
ATOM      4  H   UNL     1       2.580   8.130  18.211  0.00  0.00    +0.000 HD
ENDROOT
BRANCH   1   7
ATOM      5  C   UNL     1       3.618   3.826  17.553  0.00  0.00    +0.000 A 
ATOM      6  C   UNL     1       2.902   4.858  18.164  0.00  0.00    +0.000 A 
ATOM      7  C   UNL     1       3.315   6.193  18.082  0.00  0.00    +0.000 A 
ATOM      8  C   UNL     1       4.486   6.479  17.375  0.00  0.00    +0.000 A 
ATOM      9  C   UNL     1       5.235   5.445  16.782  0.00  0.00    +0.000 A 
ATOM     10  C   UNL     1       4.790   4.120  16.857  0.00  0.00    +0.000 A 
BRANCH   5  12
ATOM     11  N   UNL     1       4.108   1.510  18.157  0.00  0.00    +0.000 N 
ATOM     12  C   UNL     1       3.191   2.410  17.689  0.00  0.00    +0.000 C 
ATOM     13  O   UNL     1       2.054   2.067  17.390  0.00  0.00    +0.000 OA
ATOM     14  H   UNL     1       3.825   0.539  18.219  0.00  0.00    +0.000 HD
ATOM     15  H   UNL     1       5.029   1.750  18.493  0.00  0.00    +0.000 HD
ENDBRANCH   5  12
BRANCH   9  16
ATOM     16  C   UNL     1       6.507   5.790  16.095  0.00  0.00    +0.000 C 
ATOM     17  N   UNL     1       7.403   6.560  16.783  0.00  0.00    +0.000 N 
ATOM     18  O   UNL     1       6.725   5.437  14.944  0.00  0.00    +0.000 OA
ATOM     19  H   UNL     1       7.181   7.034  17.650  0.00  0.00    +0.000 HD
ATOM     20  H   UNL     1       8.225   6.873  16.283  0.00  0.00    +0.000 HD
ENDBRANCH   9  16
ENDBRANCH   1   7
BRANCH   2  21
ATOM     21  C   UNL     1       1.325   8.401  20.481  0.00  0.00    +0.000 A 
ATOM     22  C   UNL     1       1.290   8.755  21.833  0.00  0.00    +0.000 A 
ATOM     23  C   UNL     1       0.685   9.957  22.214  0.00  0.00    +0.000 A 
ATOM     24  C   UNL     1       0.134  10.810  21.253  0.00  0.00    +0.000 A 
ATOM     25  C   UNL     1       0.227  10.492  19.899  0.00  0.00    +0.000 A 
ATOM     26  C   UNL     1       0.781   9.271  19.522  0.00  0.00    +0.000 A 
BRANCH  25  27
ATOM     27  O   UNL     1      -0.236  11.279  18.871  0.00  0.00    +0.000 OA
BRANCH  27  28
ATOM     28  C   UNL     1      -1.525  11.130  18.411  0.00  0.00    +0.000 A 
ATOM     29  C   UNL     1      -2.627  11.858  18.868  0.00  0.00    +0.000 A 
ATOM     30  C   UNL     1      -3.903  11.583  18.372  0.00  0.00    +0.000 A 
ATOM     31  C   UNL     1      -4.072  10.625  17.373  0.00  0.00    +0.000 A 
ATOM     32  C   UNL     1      -2.964   9.956  16.856  0.00  0.00    +0.000 A 
ATOM     33  C   UNL     1      -1.693  10.209  17.373  0.00  0.00    +0.000 A 
ENDBRANCH  27  28
ENDBRANCH  25  27
ENDBRANCH   2  21
TORSDOF 6
ENDMDL
MODEL 6
REMARK VINA RESULT:      -9.0      2.738      8.658
REMARK  Name = 
REMARK  6 active torsions:
REMARK  status: ('A' for Active; 'I' for Inactive)
REMARK    1  A    between atoms: C_2  and  C_4
REMARK    2  A    between atoms: C_6  and  N_7
REMARK    3  A    between atoms: C_8  and  C_10
REMARK    4  A    between atoms: C_14  and  O_15
REMARK    5  A    between atoms: O_15  and  C_16
REMARK    6  A    between atoms: C_24  and  C_25
REMARK                            x       y       z     vdW  Elec       q    Type
REMARK                         _______ _______ _______ _____ _____    ______ ____
ROOT
ATOM      1  N   UNL     1       2.567   7.025  19.104  0.00  0.00    +0.000 N 
ATOM      2  C   UNL     1       2.136   8.183  18.468  0.00  0.00    +0.000 C 
ATOM      3  O   UNL     1       2.427   8.525  17.326  0.00  0.00    +0.000 OA
ATOM      4  H   UNL     1       2.223   6.827  20.036  0.00  0.00    +0.000 HD
ENDROOT
BRANCH   1   7
ATOM      5  C   UNL     1       5.477   5.362  17.409  0.00  0.00    +0.000 A 
ATOM      6  C   UNL     1       4.663   6.342  17.985  0.00  0.00    +0.000 A 
ATOM      7  C   UNL     1       3.411   6.035  18.530  0.00  0.00    +0.000 A 
ATOM      8  C   UNL     1       2.976   4.708  18.478  0.00  0.00    +0.000 A 
ATOM      9  C   UNL     1       3.771   3.717  17.871  0.00  0.00    +0.000 A 
ATOM     10  C   UNL     1       5.030   4.042  17.353  0.00  0.00    +0.000 A 
BRANCH   5  12
ATOM     11  N   UNL     1       7.105   7.039  16.698  0.00  0.00    +0.000 N 
ATOM     12  C   UNL     1       6.781   5.713  16.793  0.00  0.00    +0.000 C 
ATOM     13  O   UNL     1       7.536   4.840  16.383  0.00  0.00    +0.000 OA
ATOM     14  H   UNL     1       7.981   7.278  16.249  0.00  0.00    +0.000 HD
ATOM     15  H   UNL     1       6.560   7.793  17.090  0.00  0.00    +0.000 HD
ENDBRANCH   5  12
BRANCH   9  16
ATOM     16  C   UNL     1       3.238   2.332  17.782  0.00  0.00    +0.000 C 
ATOM     17  N   UNL     1       4.062   1.316  18.182  0.00  0.00    +0.000 N 
ATOM     18  O   UNL     1       2.124   2.106  17.330  0.00  0.00    +0.000 OA
ATOM     19  H   UNL     1       5.048   1.441  18.372  0.00  0.00    +0.000 HD
ATOM     20  H   UNL     1       3.735   0.370  18.033  0.00  0.00    +0.000 HD
ENDBRANCH   9  16
ENDBRANCH   1   7
BRANCH   2  21
ATOM     21  C   UNL     1       1.236   9.098  19.217  0.00  0.00    +0.000 A 
ATOM     22  C   UNL     1       1.184   9.158  20.612  0.00  0.00    +0.000 A 
ATOM     23  C   UNL     1       0.361  10.106  21.230  0.00  0.00    +0.000 A 
ATOM     24  C   UNL     1      -0.392  11.000  20.463  0.00  0.00    +0.000 A 
ATOM     25  C   UNL     1      -0.291  10.988  19.073  0.00  0.00    +0.000 A 
ATOM     26  C   UNL     1       0.486  10.011  18.455  0.00  0.00    +0.000 A 
BRANCH  25  27
ATOM     27  O   UNL     1      -0.946  11.851  18.227  0.00  0.00    +0.000 OA
BRANCH  27  28
ATOM     28  C   UNL     1      -2.280  11.662  17.942  0.00  0.00    +0.000 A 
ATOM     29  C   UNL     1      -3.335  11.977  18.804  0.00  0.00    +0.000 A 
ATOM     30  C   UNL     1      -4.650  11.689  18.435  0.00  0.00    +0.000 A 
ATOM     31  C   UNL     1      -4.920  11.144  17.181  0.00  0.00    +0.000 A 
ATOM     32  C   UNL     1      -3.877  10.905  16.287  0.00  0.00    +0.000 A 
ATOM     33  C   UNL     1      -2.560  11.165  16.667  0.00  0.00    +0.000 A 
ENDBRANCH  27  28
ENDBRANCH  25  27
ENDBRANCH   2  21
TORSDOF 6
ENDMDL
MODEL 7
REMARK VINA RESULT:      -8.9      2.739      8.684
REMARK  Name = 
REMARK  6 active torsions:
REMARK  status: ('A' for Active; 'I' for Inactive)
REMARK    1  A    between atoms: C_2  and  C_4
REMARK    2  A    between atoms: C_6  and  N_7
REMARK    3  A    between atoms: C_8  and  C_10
REMARK    4  A    between atoms: C_14  and  O_15
REMARK    5  A    between atoms: O_15  and  C_16
REMARK    6  A    between atoms: C_24  and  C_25
REMARK                            x       y       z     vdW  Elec       q    Type
REMARK                         _______ _______ _______ _____ _____    ______ ____
ROOT
ATOM      1  N   UNL     1       2.543   7.061  18.959  0.00  0.00    +0.000 N 
ATOM      2  C   UNL     1       2.102   8.242  18.374  0.00  0.00    +0.000 C 
ATOM      3  O   UNL     1       2.355   8.616  17.232  0.00  0.00    +0.000 OA
ATOM      4  H   UNL     1       2.231   6.839  19.896  0.00  0.00    +0.000 HD
ENDROOT
BRANCH   1   7
ATOM      5  C   UNL     1       5.285   5.441  16.968  0.00  0.00    +0.000 A 
ATOM      6  C   UNL     1       4.505   6.413  17.601  0.00  0.00    +0.000 A 
ATOM      7  C   UNL     1       3.354   6.080  18.324  0.00  0.00    +0.000 A 
ATOM      8  C   UNL     1       2.984   4.735  18.394  0.00  0.00    +0.000 A 
ATOM      9  C   UNL     1       3.743   3.749  17.734  0.00  0.00    +0.000 A 
ATOM     10  C   UNL     1       4.903   4.101  17.036  0.00  0.00    +0.000 A 
BRANCH   5  12
ATOM     11  N   UNL     1       6.466   5.521  14.831  0.00  0.00    +0.000 N 
ATOM     12  C   UNL     1       6.477   5.816  16.166  0.00  0.00    +0.000 C 
ATOM     13  O   UNL     1       7.435   6.371  16.690  0.00  0.00    +0.000 OA
ATOM     14  H   UNL     1       7.293   5.748  14.292  0.00  0.00    +0.000 HD
ATOM     15  H   UNL     1       5.674   5.140  14.333  0.00  0.00    +0.000 HD
ENDBRANCH   5  12
BRANCH   9  16
ATOM     16  C   UNL     1       3.275   2.339  17.783  0.00  0.00    +0.000 C 
ATOM     17  N   UNL     1       4.131   1.412  18.311  0.00  0.00    +0.000 N 
ATOM     18  O   UNL     1       2.186   2.013  17.332  0.00  0.00    +0.000 OA
ATOM     19  H   UNL     1       5.105   1.603  18.509  0.00  0.00    +0.000 HD
ATOM     20  H   UNL     1       3.851   0.441  18.258  0.00  0.00    +0.000 HD
ENDBRANCH   9  16
ENDBRANCH   1   7
BRANCH   2  21
ATOM     21  C   UNL     1       1.241   9.144  19.183  0.00  0.00    +0.000 A 
ATOM     22  C   UNL     1       1.228   9.150  20.580  0.00  0.00    +0.000 A 
ATOM     23  C   UNL     1       0.442  10.087  21.258  0.00  0.00    +0.000 A 
ATOM     24  C   UNL     1      -0.315  11.025  20.548  0.00  0.00    +0.000 A 
ATOM     25  C   UNL     1      -0.252  11.066  19.156  0.00  0.00    +0.000 A 
ATOM     26  C   UNL     1       0.489  10.100  18.478  0.00  0.00    +0.000 A 
BRANCH  25  27
ATOM     27  O   UNL     1      -0.912  11.973  18.363  0.00  0.00    +0.000 OA
BRANCH  27  28
ATOM     28  C   UNL     1      -2.161  11.677  17.863  0.00  0.00    +0.000 A 
ATOM     29  C   UNL     1      -2.414  11.203  16.572  0.00  0.00    +0.000 A 
ATOM     30  C   UNL     1      -3.727  10.991  16.149  0.00  0.00    +0.000 A 
ATOM     31  C   UNL     1      -4.786  11.191  17.033  0.00  0.00    +0.000 A 
ATOM     32  C   UNL     1      -4.532  11.584  18.347  0.00  0.00    +0.000 A 
ATOM     33  C   UNL     1      -3.221  11.825  18.760  0.00  0.00    +0.000 A 
ENDBRANCH  27  28
ENDBRANCH  25  27
ENDBRANCH   2  21
TORSDOF 6
ENDMDL
MODEL 8
REMARK VINA RESULT:      -8.9      2.770      8.346
REMARK  Name = 
REMARK  6 active torsions:
REMARK  status: ('A' for Active; 'I' for Inactive)
REMARK    1  A    between atoms: C_2  and  C_4
REMARK    2  A    between atoms: C_6  and  N_7
REMARK    3  A    between atoms: C_8  and  C_10
REMARK    4  A    between atoms: C_14  and  O_15
REMARK    5  A    between atoms: O_15  and  C_16
REMARK    6  A    between atoms: C_24  and  C_25
REMARK                            x       y       z     vdW  Elec       q    Type
REMARK                         _______ _______ _______ _____ _____    ______ ____
ROOT
ATOM      1  N   UNL     1       2.583   7.028  18.889  0.00  0.00    +0.000 N 
ATOM      2  C   UNL     1       1.910   7.067  20.104  0.00  0.00    +0.000 C 
ATOM      3  O   UNL     1       1.820   6.141  20.905  0.00  0.00    +0.000 OA
ATOM      4  H   UNL     1       2.627   7.873  18.332  0.00  0.00    +0.000 HD
ENDROOT
BRANCH   1   7
ATOM      5  C   UNL     1       3.511   3.505  17.978  0.00  0.00    +0.000 A 
ATOM      6  C   UNL     1       2.799   4.601  18.473  0.00  0.00    +0.000 A 
ATOM      7  C   UNL     1       3.291   5.907  18.375  0.00  0.00    +0.000 A 
ATOM      8  C   UNL     1       4.536   6.100  17.771  0.00  0.00    +0.000 A 
ATOM      9  C   UNL     1       5.279   5.002  17.298  0.00  0.00    +0.000 A 
ATOM     10  C   UNL     1       4.757   3.706  17.385  0.00  0.00    +0.000 A 
BRANCH   5  12
ATOM     11  N   UNL     1       1.640   1.950  18.200  0.00  0.00    +0.000 N 
ATOM     12  C   UNL     1       2.996   2.121  18.132  0.00  0.00    +0.000 C 
ATOM     13  O   UNL     1       3.765   1.170  18.198  0.00  0.00    +0.000 OA
ATOM     14  H   UNL     1       1.292   1.009  18.338  0.00  0.00    +0.000 HD
ATOM     15  H   UNL     1       0.961   2.685  18.071  0.00  0.00    +0.000 HD
ENDBRANCH   5  12
BRANCH   9  16
ATOM     16  C   UNL     1       6.627   5.249  16.721  0.00  0.00    +0.000 C 
ATOM     17  N   UNL     1       7.626   4.381  17.066  0.00  0.00    +0.000 N 
ATOM     18  O   UNL     1       6.845   6.214  16.002  0.00  0.00    +0.000 OA
ATOM     19  H   UNL     1       7.538   3.695  17.806  0.00  0.00    +0.000 HD
ATOM     20  H   UNL     1       8.561   4.603  16.750  0.00  0.00    +0.000 HD
ENDBRANCH   9  16
ENDBRANCH   1   7
BRANCH   2  21
ATOM     21  C   UNL     1       1.240   8.336  20.492  0.00  0.00    +0.000 A 
ATOM     22  C   UNL     1       1.171   8.801  21.809  0.00  0.00    +0.000 A 
ATOM     23  C   UNL     1       0.587  10.044  22.070  0.00  0.00    +0.000 A 
ATOM     24  C   UNL     1       0.091  10.830  21.024  0.00  0.00    +0.000 A 
ATOM     25  C   UNL     1       0.219  10.400  19.705  0.00  0.00    +0.000 A 
ATOM     26  C   UNL     1       0.751   9.139  19.447  0.00  0.00    +0.000 A 
BRANCH  25  27
ATOM     27  O   UNL     1      -0.187  11.111  18.601  0.00  0.00    +0.000 OA
BRANCH  27  28
ATOM     28  C   UNL     1      -1.449  10.923  18.082  0.00  0.00    +0.000 A 
ATOM     29  C   UNL     1      -1.772  10.007  17.077  0.00  0.00    +0.000 A 
ATOM     30  C   UNL     1      -3.076   9.941  16.583  0.00  0.00    +0.000 A 
ATOM     31  C   UNL     1      -4.073  10.745  17.133  0.00  0.00    +0.000 A 
ATOM     32  C   UNL     1      -3.771  11.601  18.192  0.00  0.00    +0.000 A 
ATOM     33  C   UNL     1      -2.461  11.688  18.666  0.00  0.00    +0.000 A 
ENDBRANCH  27  28
ENDBRANCH  25  27
ENDBRANCH   2  21
TORSDOF 6
ENDMDL
MODEL 9
REMARK VINA RESULT:      -8.9      0.886      3.019
REMARK  Name = 
REMARK  6 active torsions:
REMARK  status: ('A' for Active; 'I' for Inactive)
REMARK    1  A    between atoms: C_2  and  C_4
REMARK    2  A    between atoms: C_6  and  N_7
REMARK    3  A    between atoms: C_8  and  C_10
REMARK    4  A    between atoms: C_14  and  O_15
REMARK    5  A    between atoms: O_15  and  C_16
REMARK    6  A    between atoms: C_24  and  C_25
REMARK                            x       y       z     vdW  Elec       q    Type
REMARK                         _______ _______ _______ _____ _____    ______ ____
ROOT
ATOM      1  N   UNL     1       1.846   8.266  19.073  0.00  0.00    +0.000 N 
ATOM      2  C   UNL     1       2.618   8.350  17.920  0.00  0.00    +0.000 C 
ATOM      3  O   UNL     1       2.564   9.247  17.084  0.00  0.00    +0.000 OA
ATOM      4  H   UNL     1       2.013   7.499  19.712  0.00  0.00    +0.000 HD
ENDROOT
BRANCH   1   7
ATOM      5  C   UNL     1      -0.780  10.949  18.985  0.00  0.00    +0.000 A 
ATOM      6  C   UNL     1       0.165  10.007  18.569  0.00  0.00    +0.000 A 
ATOM      7  C   UNL     1       0.871   9.217  19.482  0.00  0.00    +0.000 A 
ATOM      8  C   UNL     1       0.619   9.398  20.845  0.00  0.00    +0.000 A 
ATOM      9  C   UNL     1      -0.306  10.366  21.279  0.00  0.00    +0.000 A 
ATOM     10  C   UNL     1      -1.019  11.129  20.347  0.00  0.00    +0.000 A 
BRANCH   5  12
ATOM     11  N   UNL     1      -0.909  13.006  17.673  0.00  0.00    +0.000 N 
ATOM     12  C   UNL     1      -1.487  11.812  18.004  0.00  0.00    +0.000 C 
ATOM     13  O   UNL     1      -2.552  11.459  17.513  0.00  0.00    +0.000 OA
ATOM     14  H   UNL     1      -1.408  13.608  17.028  0.00  0.00    +0.000 HD
ATOM     15  H   UNL     1       0.003  13.309  17.984  0.00  0.00    +0.000 HD
ENDBRANCH   5  12
BRANCH   9  16
ATOM     16  C   UNL     1      -0.494  10.567  22.740  0.00  0.00    +0.000 C 
ATOM     17  N   UNL     1      -0.489   9.453  23.532  0.00  0.00    +0.000 N 
ATOM     18  O   UNL     1      -0.687  11.680  23.210  0.00  0.00    +0.000 OA
ATOM     19  H   UNL     1      -0.532   8.509  23.167  0.00  0.00    +0.000 HD
ATOM     20  H   UNL     1      -0.711   9.580  24.511  0.00  0.00    +0.000 HD
ENDBRANCH   9  16
ENDBRANCH   1   7
BRANCH   2  21
ATOM     21  C   UNL     1       3.607   7.271  17.660  0.00  0.00    +0.000 A 
ATOM     22  C   UNL     1       4.663   7.395  16.752  0.00  0.00    +0.000 A 
ATOM     23  C   UNL     1       5.590   6.355  16.630  0.00  0.00    +0.000 A 
ATOM     24  C   UNL     1       5.478   5.207  17.420  0.00  0.00    +0.000 A 
ATOM     25  C   UNL     1       4.466   5.109  18.374  0.00  0.00    +0.000 A 
ATOM     26  C   UNL     1       3.510   6.119  18.459  0.00  0.00    +0.000 A 
BRANCH  25  27
ATOM     27  O   UNL     1       4.292   4.051  19.233  0.00  0.00    +0.000 OA
BRANCH  27  28
ATOM     28  C   UNL     1       3.037   3.520  19.434  0.00  0.00    +0.000 A 
ATOM     29  C   UNL     1       2.251   2.927  18.443  0.00  0.00    +0.000 A 
ATOM     30  C   UNL     1       0.966   2.473  18.747  0.00  0.00    +0.000 A 
ATOM     31  C   UNL     1       0.487   2.554  20.053  0.00  0.00    +0.000 A 
ATOM     32  C   UNL     1       1.301   3.071  21.062  0.00  0.00    +0.000 A 
ATOM     33  C   UNL     1       2.574   3.551  20.752  0.00  0.00    +0.000 A 
ENDBRANCH  27  28
ENDBRANCH  25  27
ENDBRANCH   2  21
TORSDOF 6
ENDMDL
