MODEL 1
REMARK VINA RESULT:      -8.3      0.000      0.000
REMARK  Name = 
REMARK  7 active torsions:
REMARK  status: ('A' for Active; 'I' for Inactive)
REMARK    1  A    between atoms: C_1  and  C_2
REMARK    2  A    between atoms: C_5  and  C_6
REMARK    3  A    between atoms: N_8  and  C_9
REMARK    4  A    between atoms: C_9  and  C_10
REMARK    5  A    between atoms: N_14  and  C_15
REMARK    6  A    between atoms: C_19  and  N_20
REMARK    7  A    between atoms: C_21  and  C_23
REMARK                            x       y       z     vdW  Elec       q    Type
REMARK                         _______ _______ _______ _____ _____    ______ ____
ROOT
ATOM      1  C   UNL     1       4.908   3.770  18.692  0.00  0.00    +0.000 C 
ATOM      2  C   UNL     1       4.075   5.019  18.559  0.00  0.00    +0.000 A 
ATOM      3  C   UNL     1       3.342   5.432  19.690  0.00  0.00    +0.000 A 
ATOM      4  C   UNL     1       2.609   6.624  19.683  0.00  0.00    +0.000 A 
ATOM      5  C   UNL     1       2.601   7.423  18.542  0.00  0.00    +0.000 A 
ATOM      6  C   UNL     1       3.253   6.969  17.389  0.00  0.00    +0.000 A 
ATOM      7  C   UNL     1       3.983   5.770  17.368  0.00  0.00    +0.000 A 
ENDROOT
BRANCH   5   8
ATOM      8  C   UNL     1       1.895   8.741  18.574  0.00  0.00    +0.000 C 
ATOM      9  O   UNL     1       1.790   9.428  17.563  0.00  0.00    +0.000 OA
ATOM     10  N   UNL     1       1.339   9.102  19.783  0.00  0.00    +0.000 N 
ATOM     11  H   UNL     1       1.340   8.451  20.563  0.00  0.00    +0.000 HD
BRANCH  10  12
ATOM     12  C   UNL     1       0.607  10.341  19.974  0.00  0.00    +0.000 C 
BRANCH  12  13
ATOM     13  C   UNL     1       0.223  10.443  21.402  0.00  0.00    +0.000 A 
ATOM     14  N   UNL     1       0.646   9.631  22.362  0.00  0.00    +0.000 NA
ATOM     15  N   UNL     1       0.066  10.055  23.523  0.00  0.00    +0.000 NA
ATOM     16  N   UNL     1      -0.713  11.100  23.306  0.00  0.00    +0.000 NA
ATOM     17  N   UNL     1      -0.627  11.356  21.987  0.00  0.00    +0.000 N 
BRANCH  17  18
ATOM     18  C   UNL     1      -1.388  12.460  21.445  0.00  0.00    +0.000 C 
ATOM     19  C   UNL     1      -2.889  12.620  21.568  0.00  0.00    +0.000 C 
ATOM     20  C   UNL     1      -2.285  12.363  20.229  0.00  0.00    +0.000 C 
ENDBRANCH  17  18
ENDBRANCH  12  13
ENDBRANCH  10  12
ENDBRANCH   5   8
BRANCH   7  21
ATOM     21  N   UNL     1       4.615   5.303  16.181  0.00  0.00    +0.000 N 
ATOM     22  C   UNL     1       5.878   5.654  15.720  0.00  0.00    +0.000 C 
ATOM     23  O   UNL     1       6.673   6.401  16.270  0.00  0.00    +0.000 OA
ATOM     24  H   UNL     1       4.107   4.616  15.643  0.00  0.00    +0.000 HD
BRANCH  22  25
ATOM     25  C   UNL     1       6.322   5.016  14.450  0.00  0.00    +0.000 A 
ATOM     26  C   UNL     1       7.500   5.383  13.792  0.00  0.00    +0.000 A 
ATOM     27  C   UNL     1       7.853   4.748  12.596  0.00  0.00    +0.000 A 
ATOM     28  C   UNL     1       7.041   3.745  12.064  0.00  0.00    +0.000 A 
ATOM     29  C   UNL     1       5.884   3.352  12.735  0.00  0.00    +0.000 A 
ATOM     30  C   UNL     1       5.529   3.981  13.929  0.00  0.00    +0.000 A 
ENDBRANCH  22  25
ENDBRANCH   7  21
TORSDOF 6
ENDMDL
MODEL 2
REMARK VINA RESULT:      -8.1      0.656      1.329
REMARK  Name = 
REMARK  7 active torsions:
REMARK  status: ('A' for Active; 'I' for Inactive)
REMARK    1  A    between atoms: C_1  and  C_2
REMARK    2  A    between atoms: C_5  and  C_6
REMARK    3  A    between atoms: N_8  and  C_9
REMARK    4  A    between atoms: C_9  and  C_10
REMARK    5  A    between atoms: N_14  and  C_15
REMARK    6  A    between atoms: C_19  and  N_20
REMARK    7  A    between atoms: C_21  and  C_23
REMARK                            x       y       z     vdW  Elec       q    Type
REMARK                         _______ _______ _______ _____ _____    ______ ____
ROOT
ATOM      1  C   UNL     1       4.880   3.765  18.695  0.00  0.00    +0.000 C 
ATOM      2  C   UNL     1       4.061   5.023  18.563  0.00  0.00    +0.000 A 
ATOM      3  C   UNL     1       3.345   5.451  19.700  0.00  0.00    +0.000 A 
ATOM      4  C   UNL     1       2.625   6.652  19.693  0.00  0.00    +0.000 A 
ATOM      5  C   UNL     1       2.615   7.445  18.548  0.00  0.00    +0.000 A 
ATOM      6  C   UNL     1       3.249   6.977  17.390  0.00  0.00    +0.000 A 
ATOM      7  C   UNL     1       3.965   5.768  17.369  0.00  0.00    +0.000 A 
ENDROOT
BRANCH   5   8
ATOM      8  C   UNL     1       1.925   8.771  18.579  0.00  0.00    +0.000 C 
ATOM      9  O   UNL     1       2.007   9.550  17.634  0.00  0.00    +0.000 OA
ATOM     10  N   UNL     1       1.166   9.033  19.700  0.00  0.00    +0.000 N 
ATOM     11  H   UNL     1       1.023   8.313  20.403  0.00  0.00    +0.000 HD
BRANCH  10  12
ATOM     12  C   UNL     1       0.422  10.267  19.875  0.00  0.00    +0.000 C 
BRANCH  12  13
ATOM     13  C   UNL     1       0.106  10.423  21.315  0.00  0.00    +0.000 A 
ATOM     14  N   UNL     1       0.173   9.453  22.216  0.00  0.00    +0.000 NA
ATOM     15  N   UNL     1      -0.196   9.998  23.412  0.00  0.00    +0.000 NA
ATOM     16  N   UNL     1      -0.501  11.276  23.274  0.00  0.00    +0.000 NA
ATOM     17  N   UNL     1      -0.318  11.559  21.971  0.00  0.00    +0.000 N 
BRANCH  17  18
ATOM     18  C   UNL     1      -0.582  12.904  21.510  0.00  0.00    +0.000 C 
ATOM     19  C   UNL     1       0.481  13.940  21.207  0.00  0.00    +0.000 C 
ATOM     20  C   UNL     1      -0.437  14.145  22.365  0.00  0.00    +0.000 C 
ENDBRANCH  17  18
ENDBRANCH  12  13
ENDBRANCH  10  12
ENDBRANCH   5   8
BRANCH   7  21
ATOM     21  N   UNL     1       4.580   5.287  16.178  0.00  0.00    +0.000 N 
ATOM     22  C   UNL     1       5.851   5.602  15.715  0.00  0.00    +0.000 C 
ATOM     23  O   UNL     1       6.670   6.324  16.264  0.00  0.00    +0.000 OA
ATOM     24  H   UNL     1       4.050   4.617  15.640  0.00  0.00    +0.000 HD
BRANCH  22  25
ATOM     25  C   UNL     1       6.272   4.956  14.441  0.00  0.00    +0.000 A 
ATOM     26  C   UNL     1       5.543   3.924  13.841  0.00  0.00    +0.000 A 
ATOM     27  C   UNL     1       6.001   3.356  12.647  0.00  0.00    +0.000 A 
ATOM     28  C   UNL     1       7.173   3.821  12.049  0.00  0.00    +0.000 A 
ATOM     29  C   UNL     1       7.883   4.872  12.625  0.00  0.00    +0.000 A 
ATOM     30  C   UNL     1       7.429   5.443  13.814  0.00  0.00    +0.000 A 
ENDBRANCH  22  25
ENDBRANCH   7  21
TORSDOF 6
ENDMDL
MODEL 3
REMARK VINA RESULT:      -7.6      3.488      9.846
REMARK  Name = 
REMARK  7 active torsions:
REMARK  status: ('A' for Active; 'I' for Inactive)
REMARK    1  A    between atoms: C_1  and  C_2
REMARK    2  A    between atoms: C_5  and  C_6
REMARK    3  A    between atoms: N_8  and  C_9
REMARK    4  A    between atoms: C_9  and  C_10
REMARK    5  A    between atoms: N_14  and  C_15
REMARK    6  A    between atoms: C_19  and  N_20
REMARK    7  A    between atoms: C_21  and  C_23
REMARK                            x       y       z     vdW  Elec       q    Type
REMARK                         _______ _______ _______ _____ _____    ______ ____
ROOT
ATOM      1  C   UNL     1      -0.873  10.730  22.865  0.00  0.00    +0.000 C 
ATOM      2  C   UNL     1      -0.019  10.173  21.755  0.00  0.00    +0.000 A 
ATOM      3  C   UNL     1       0.426   8.842  21.888  0.00  0.00    +0.000 A 
ATOM      4  C   UNL     1       1.153   8.216  20.868  0.00  0.00    +0.000 A 
ATOM      5  C   UNL     1       1.444   8.914  19.698  0.00  0.00    +0.000 A 
ATOM      6  C   UNL     1       1.082  10.264  19.603  0.00  0.00    +0.000 A 
ATOM      7  C   UNL     1       0.364  10.917  20.619  0.00  0.00    +0.000 A 
ENDROOT
BRANCH   5   8
ATOM      8  C   UNL     1       2.136   8.210  18.576  0.00  0.00    +0.000 C 
ATOM      9  O   UNL     1       2.265   8.742  17.477  0.00  0.00    +0.000 OA
ATOM     10  N   UNL     1       2.652   6.965  18.867  0.00  0.00    +0.000 N 
ATOM     11  H   UNL     1       2.633   6.612  19.820  0.00  0.00    +0.000 HD
BRANCH  10  12
ATOM     12  C   UNL     1       3.366   6.161  17.892  0.00  0.00    +0.000 C 
BRANCH  12  13
ATOM     13  C   UNL     1       3.954   4.993  18.589  0.00  0.00    +0.000 A 
ATOM     14  N   UNL     1       5.254   4.770  18.733  0.00  0.00    +0.000 NA
ATOM     15  N   UNL     1       5.380   3.599  19.423  0.00  0.00    +0.000 NA
ATOM     16  N   UNL     1       4.195   3.085  19.700  0.00  0.00    +0.000 NA
ATOM     17  N   UNL     1       3.292   3.942  19.187  0.00  0.00    +0.000 N 
BRANCH  17  18
ATOM     18  C   UNL     1       1.886   3.637  19.333  0.00  0.00    +0.000 C 
ATOM     19  C   UNL     1       0.987   4.195  20.417  0.00  0.00    +0.000 C 
ATOM     20  C   UNL     1       1.313   2.740  20.409  0.00  0.00    +0.000 C 
ENDBRANCH  17  18
ENDBRANCH  12  13
ENDBRANCH  10  12
ENDBRANCH   5   8
BRANCH   7  21
ATOM     21  N   UNL     1       0.029  12.297  20.526  0.00  0.00    +0.000 N 
ATOM     22  C   UNL     1      -0.897  12.870  19.664  0.00  0.00    +0.000 C 
ATOM     23  O   UNL     1      -1.603  12.283  18.858  0.00  0.00    +0.000 OA
ATOM     24  H   UNL     1       0.484  12.914  21.183  0.00  0.00    +0.000 HD
BRANCH  22  25
ATOM     25  C   UNL     1      -1.077  14.344  19.768  0.00  0.00    +0.000 A 
ATOM     26  C   UNL     1      -0.420  15.247  18.926  0.00  0.00    +0.000 A 
ATOM     27  C   UNL     1      -0.629  16.622  19.084  0.00  0.00    +0.000 A 
ATOM     28  C   UNL     1      -1.496  17.094  20.070  0.00  0.00    +0.000 A 
ATOM     29  C   UNL     1      -2.180  16.196  20.888  0.00  0.00    +0.000 A 
ATOM     30  C   UNL     1      -1.976  14.825  20.733  0.00  0.00    +0.000 A 
ENDBRANCH  22  25
ENDBRANCH   7  21
TORSDOF 6
ENDMDL
MODEL 4
REMARK VINA RESULT:      -7.6      1.818      2.483
REMARK  Name = 
REMARK  7 active torsions:
REMARK  status: ('A' for Active; 'I' for Inactive)
REMARK    1  A    between atoms: C_1  and  C_2
REMARK    2  A    between atoms: C_5  and  C_6
REMARK    3  A    between atoms: N_8  and  C_9
REMARK    4  A    between atoms: C_9  and  C_10
REMARK    5  A    between atoms: N_14  and  C_15
REMARK    6  A    between atoms: C_19  and  N_20
REMARK    7  A    between atoms: C_21  and  C_23
REMARK                            x       y       z     vdW  Elec       q    Type
REMARK                         _______ _______ _______ _____ _____    ______ ____
ROOT
ATOM      1  C   UNL     1       3.871   2.405  18.235  0.00  0.00    +0.000 C 
ATOM      2  C   UNL     1       3.361   3.815  18.395  0.00  0.00    +0.000 A 
ATOM      3  C   UNL     1       2.552   4.087  19.517  0.00  0.00    +0.000 A 
ATOM      4  C   UNL     1       2.104   5.385  19.790  0.00  0.00    +0.000 A 
ATOM      5  C   UNL     1       2.462   6.431  18.943  0.00  0.00    +0.000 A 
ATOM      6  C   UNL     1       3.188   6.148  17.779  0.00  0.00    +0.000 A 
ATOM      7  C   UNL     1       3.636   4.851  17.477  0.00  0.00    +0.000 A 
ENDROOT
BRANCH   5   8
ATOM      8  C   UNL     1       2.061   7.829  19.293  0.00  0.00    +0.000 C 
ATOM      9  O   UNL     1       1.895   8.167  20.461  0.00  0.00    +0.000 OA
ATOM     10  N   UNL     1       1.940   8.707  18.237  0.00  0.00    +0.000 N 
ATOM     11  H   UNL     1       2.205   8.421  17.299  0.00  0.00    +0.000 HD
BRANCH  10  12
ATOM     12  C   UNL     1       1.575  10.101  18.411  0.00  0.00    +0.000 C 
BRANCH  12  13
ATOM     13  C   UNL     1       0.097  10.205  18.385  0.00  0.00    +0.000 A 
ATOM     14  N   UNL     1      -0.688   9.648  17.473  0.00  0.00    +0.000 NA
ATOM     15  N   UNL     1      -1.972   9.980  17.799  0.00  0.00    +0.000 NA
ATOM     16  N   UNL     1      -2.002  10.737  18.881  0.00  0.00    +0.000 NA
ATOM     17  N   UNL     1      -0.720  10.888  19.261  0.00  0.00    +0.000 N 
BRANCH  17  18
ATOM     18  C   UNL     1      -0.433  11.686  20.433  0.00  0.00    +0.000 C 
ATOM     19  C   UNL     1       0.018  11.132  21.769  0.00  0.00    +0.000 C 
ATOM     20  C   UNL     1      -1.327  11.765  21.652  0.00  0.00    +0.000 C 
ENDBRANCH  17  18
ENDBRANCH  12  13
ENDBRANCH  10  12
ENDBRANCH   5   8
BRANCH   7  21
ATOM     21  N   UNL     1       4.346   4.569  16.276  0.00  0.00    +0.000 N 
ATOM     22  C   UNL     1       5.367   5.328  15.717  0.00  0.00    +0.000 C 
ATOM     23  O   UNL     1       5.849   6.352  16.176  0.00  0.00    +0.000 OA
ATOM     24  H   UNL     1       4.108   3.707  15.807  0.00  0.00    +0.000 HD
BRANCH  22  25
ATOM     25  C   UNL     1       5.962   4.812  14.454  0.00  0.00    +0.000 A 
ATOM     26  C   UNL     1       5.302   3.898  13.626  0.00  0.00    +0.000 A 
ATOM     27  C   UNL     1       5.923   3.448  12.456  0.00  0.00    +0.000 A 
ATOM     28  C   UNL     1       7.192   3.913  12.108  0.00  0.00    +0.000 A 
ATOM     29  C   UNL     1       7.838   4.850  12.912  0.00  0.00    +0.000 A 
ATOM     30  C   UNL     1       7.222   5.303  14.078  0.00  0.00    +0.000 A 
ENDBRANCH  22  25
ENDBRANCH   7  21
TORSDOF 6
ENDMDL
MODEL 5
REMARK VINA RESULT:      -7.6      3.838     10.332
REMARK  Name = 
REMARK  7 active torsions:
REMARK  status: ('A' for Active; 'I' for Inactive)
REMARK    1  A    between atoms: C_1  and  C_2
REMARK    2  A    between atoms: C_5  and  C_6
REMARK    3  A    between atoms: N_8  and  C_9
REMARK    4  A    between atoms: C_9  and  C_10
REMARK    5  A    between atoms: N_14  and  C_15
REMARK    6  A    between atoms: C_19  and  N_20
REMARK    7  A    between atoms: C_21  and  C_23
REMARK                            x       y       z     vdW  Elec       q    Type
REMARK                         _______ _______ _______ _____ _____    ______ ____
ROOT
ATOM      1  C   UNL     1       0.655  12.443  18.501  0.00  0.00    +0.000 C 
ATOM      2  C   UNL     1       0.906  11.030  18.963  0.00  0.00    +0.000 A 
ATOM      3  C   UNL     1       1.632  10.186  18.098  0.00  0.00    +0.000 A 
ATOM      4  C   UNL     1       1.983   8.886  18.480  0.00  0.00    +0.000 A 
ATOM      5  C   UNL     1       1.613   8.412  19.737  0.00  0.00    +0.000 A 
ATOM      6  C   UNL     1       0.814   9.216  20.560  0.00  0.00    +0.000 A 
ATOM      7  C   UNL     1       0.438  10.518  20.192  0.00  0.00    +0.000 A 
ENDROOT
BRANCH   5   8
ATOM      8  C   UNL     1       2.074   7.059  20.176  0.00  0.00    +0.000 C 
ATOM      9  O   UNL     1       1.465   6.430  21.036  0.00  0.00    +0.000 OA
ATOM     10  N   UNL     1       3.181   6.555  19.526  0.00  0.00    +0.000 N 
ATOM     11  H   UNL     1       3.582   7.052  18.736  0.00  0.00    +0.000 HD
BRANCH  10  12
ATOM     12  C   UNL     1       3.742   5.250  19.823  0.00  0.00    +0.000 C 
BRANCH  12  13
ATOM     13  C   UNL     1       3.374   4.321  18.728  0.00  0.00    +0.000 A 
ATOM     14  N   UNL     1       3.700   4.486  17.452  0.00  0.00    +0.000 NA
ATOM     15  N   UNL     1       3.176   3.425  16.771  0.00  0.00    +0.000 NA
ATOM     16  N   UNL     1       2.526   2.615  17.587  0.00  0.00    +0.000 NA
ATOM     17  N   UNL     1       2.639   3.159  18.813  0.00  0.00    +0.000 N 
BRANCH  17  18
ATOM     18  C   UNL     1       2.013   2.487  19.930  0.00  0.00    +0.000 C 
ATOM     19  C   UNL     1       0.987   3.112  20.853  0.00  0.00    +0.000 C 
ATOM     20  C   UNL     1       2.336   2.763  21.384  0.00  0.00    +0.000 C 
ENDBRANCH  17  18
ENDBRANCH  12  13
ENDBRANCH  10  12
ENDBRANCH   5   8
BRANCH   7  21
ATOM     21  N   UNL     1      -0.400  11.315  21.022  0.00  0.00    +0.000 N 
ATOM     22  C   UNL     1      -0.508  11.243  22.406  0.00  0.00    +0.000 C 
ATOM     23  O   UNL     1       0.119  10.502  23.148  0.00  0.00    +0.000 OA
ATOM     24  H   UNL     1      -0.939  12.032  20.559  0.00  0.00    +0.000 HD
BRANCH  22  25
ATOM     25  C   UNL     1      -1.452  12.197  23.048  0.00  0.00    +0.000 A 
ATOM     26  C   UNL     1      -1.111  13.525  23.328  0.00  0.00    +0.000 A 
ATOM     27  C   UNL     1      -2.045  14.366  23.942  0.00  0.00    +0.000 A 
ATOM     28  C   UNL     1      -3.317  13.891  24.265  0.00  0.00    +0.000 A 
ATOM     29  C   UNL     1      -3.673  12.580  23.956  0.00  0.00    +0.000 A 
ATOM     30  C   UNL     1      -2.745  11.737  23.343  0.00  0.00    +0.000 A 
ENDBRANCH  22  25
ENDBRANCH   7  21
TORSDOF 6
ENDMDL
MODEL 6
REMARK VINA RESULT:      -7.6      2.369      9.422
REMARK  Name = 
REMARK  7 active torsions:
REMARK  status: ('A' for Active; 'I' for Inactive)
REMARK    1  A    between atoms: C_1  and  C_2
REMARK    2  A    between atoms: C_5  and  C_6
REMARK    3  A    between atoms: N_8  and  C_9
REMARK    4  A    between atoms: C_9  and  C_10
REMARK    5  A    between atoms: N_14  and  C_15
REMARK    6  A    between atoms: C_19  and  N_20
REMARK    7  A    between atoms: C_21  and  C_23
REMARK                            x       y       z     vdW  Elec       q    Type
REMARK                         _______ _______ _______ _____ _____    ______ ____
ROOT
ATOM      1  C   UNL     1      -0.128   8.901  21.948  0.00  0.00    +0.000 C 
ATOM      2  C   UNL     1       0.819   8.319  20.929  0.00  0.00    +0.000 A 
ATOM      3  C   UNL     1       1.240   6.987  21.124  0.00  0.00    +0.000 A 
ATOM      4  C   UNL     1       2.051   6.340  20.185  0.00  0.00    +0.000 A 
ATOM      5  C   UNL     1       2.452   7.016  19.035  0.00  0.00    +0.000 A 
ATOM      6  C   UNL     1       2.111   8.366  18.885  0.00  0.00    +0.000 A 
ATOM      7  C   UNL     1       1.309   9.041  19.821  0.00  0.00    +0.000 A 
ENDROOT
BRANCH   5   8
ATOM      8  C   UNL     1       3.237   6.288  17.991  0.00  0.00    +0.000 C 
ATOM      9  O   UNL     1       3.823   6.895  17.100  0.00  0.00    +0.000 OA
ATOM     10  N   UNL     1       3.297   4.917  18.124  0.00  0.00    +0.000 N 
ATOM     11  H   UNL     1       2.903   4.463  18.944  0.00  0.00    +0.000 HD
BRANCH  10  12
ATOM     12  C   UNL     1       4.033   4.068  17.204  0.00  0.00    +0.000 C 
BRANCH  12  13
ATOM     13  C   UNL     1       5.480   4.336  17.375  0.00  0.00    +0.000 A 
ATOM     14  N   UNL     1       6.145   4.215  18.517  0.00  0.00    +0.000 NA
ATOM     15  N   UNL     1       7.442   4.553  18.257  0.00  0.00    +0.000 NA
ATOM     16  N   UNL     1       7.596   4.891  16.989  0.00  0.00    +0.000 NA
ATOM     17  N   UNL     1       6.382   4.762  16.423  0.00  0.00    +0.000 N 
BRANCH  17  18
ATOM     18  C   UNL     1       6.234   5.073  15.019  0.00  0.00    +0.000 C 
ATOM     19  C   UNL     1       6.020   4.049  13.923  0.00  0.00    +0.000 C 
ATOM     20  C   UNL     1       7.297   4.818  13.971  0.00  0.00    +0.000 C 
ENDBRANCH  17  18
ENDBRANCH  12  13
ENDBRANCH  10  12
ENDBRANCH   5   8
BRANCH   7  21
ATOM     21  N   UNL     1       0.995  10.421  19.674  0.00  0.00    +0.000 N 
ATOM     22  C   UNL     1       1.573  11.314  18.780  0.00  0.00    +0.000 C 
ATOM     23  O   UNL     1       2.430  11.060  17.948  0.00  0.00    +0.000 OA
ATOM     24  H   UNL     1       0.246  10.774  20.253  0.00  0.00    +0.000 HD
BRANCH  22  25
ATOM     25  C   UNL     1       1.060  12.711  18.814  0.00  0.00    +0.000 A 
ATOM     26  C   UNL     1      -0.287  13.017  19.030  0.00  0.00    +0.000 A 
ATOM     27  C   UNL     1      -0.702  14.353  19.040  0.00  0.00    +0.000 A 
ATOM     28  C   UNL     1       0.223  15.380  18.846  0.00  0.00    +0.000 A 
ATOM     29  C   UNL     1       1.572  15.082  18.665  0.00  0.00    +0.000 A 
ATOM     30  C   UNL     1       1.990  13.751  18.655  0.00  0.00    +0.000 A 
ENDBRANCH  22  25
ENDBRANCH   7  21
TORSDOF 6
ENDMDL
MODEL 7
REMARK VINA RESULT:      -7.5      2.587     10.249
REMARK  Name = 
REMARK  7 active torsions:
REMARK  status: ('A' for Active; 'I' for Inactive)
REMARK    1  A    between atoms: C_1  and  C_2
REMARK    2  A    between atoms: C_5  and  C_6
REMARK    3  A    between atoms: N_8  and  C_9
REMARK    4  A    between atoms: C_9  and  C_10
REMARK    5  A    between atoms: N_14  and  C_15
REMARK    6  A    between atoms: C_19  and  N_20
REMARK    7  A    between atoms: C_21  and  C_23
REMARK                            x       y       z     vdW  Elec       q    Type
REMARK                         _______ _______ _______ _____ _____    ______ ____
ROOT
ATOM      1  C   UNL     1       1.219  12.120  18.279  0.00  0.00    +0.000 C 
ATOM      2  C   UNL     1       1.333  10.697  18.763  0.00  0.00    +0.000 A 
ATOM      3  C   UNL     1       2.039   9.790  17.946  0.00  0.00    +0.000 A 
ATOM      4  C   UNL     1       2.265   8.471  18.356  0.00  0.00    +0.000 A 
ATOM      5  C   UNL     1       1.789   8.040  19.592  0.00  0.00    +0.000 A 
ATOM      6  C   UNL     1       1.010   8.912  20.363  0.00  0.00    +0.000 A 
ATOM      7  C   UNL     1       0.758  10.235  19.966  0.00  0.00    +0.000 A 
ENDROOT
BRANCH   5   8
ATOM      8  C   UNL     1       2.117   6.660  20.065  0.00  0.00    +0.000 C 
ATOM      9  O   UNL     1       1.327   6.021  20.753  0.00  0.00    +0.000 OA
ATOM     10  N   UNL     1       3.324   6.145  19.642  0.00  0.00    +0.000 N 
ATOM     11  H   UNL     1       3.893   6.655  18.972  0.00  0.00    +0.000 HD
BRANCH  10  12
ATOM     12  C   UNL     1       3.781   4.814  19.999  0.00  0.00    +0.000 C 
BRANCH  12  13
ATOM     13  C   UNL     1       3.475   3.896  18.876  0.00  0.00    +0.000 A 
ATOM     14  N   UNL     1       2.556   2.940  18.906  0.00  0.00    +0.000 NA
ATOM     15  N   UNL     1       2.587   2.324  17.688  0.00  0.00    +0.000 NA
ATOM     16  N   UNL     1       3.507   2.865  16.909  0.00  0.00    +0.000 NA
ATOM     17  N   UNL     1       4.072   3.848  17.634  0.00  0.00    +0.000 N 
BRANCH  17  18
ATOM     18  C   UNL     1       5.133   4.628  17.037  0.00  0.00    +0.000 C 
ATOM     19  C   UNL     1       4.938   5.938  16.303  0.00  0.00    +0.000 C 
ATOM     20  C   UNL     1       5.384   4.732  15.548  0.00  0.00    +0.000 C 
ENDBRANCH  17  18
ENDBRANCH  12  13
ENDBRANCH  10  12
ENDBRANCH   5   8
BRANCH   7  21
ATOM     21  N   UNL     1      -0.062  11.103  20.742  0.00  0.00    +0.000 N 
ATOM     22  C   UNL     1      -0.215  11.085  22.123  0.00  0.00    +0.000 C 
ATOM     23  O   UNL     1       0.350  10.340  22.910  0.00  0.00    +0.000 OA
ATOM     24  H   UNL     1      -0.548  11.830  20.238  0.00  0.00    +0.000 HD
BRANCH  22  25
ATOM     25  C   UNL     1      -1.126  12.110  22.702  0.00  0.00    +0.000 A 
ATOM     26  C   UNL     1      -0.804  13.470  22.745  0.00  0.00    +0.000 A 
ATOM     27  C   UNL     1      -1.704  14.379  23.312  0.00  0.00    +0.000 A 
ATOM     28  C   UNL     1      -2.924  13.936  23.825  0.00  0.00    +0.000 A 
ATOM     29  C   UNL     1      -3.264  12.586  23.753  0.00  0.00    +0.000 A 
ATOM     30  C   UNL     1      -2.370  11.677  23.187  0.00  0.00    +0.000 A 
ENDBRANCH  22  25
ENDBRANCH   7  21
TORSDOF 6
ENDMDL
MODEL 8
REMARK VINA RESULT:      -7.5      2.831      9.046
REMARK  Name = 
REMARK  7 active torsions:
REMARK  status: ('A' for Active; 'I' for Inactive)
REMARK    1  A    between atoms: C_1  and  C_2
REMARK    2  A    between atoms: C_5  and  C_6
REMARK    3  A    between atoms: N_8  and  C_9
REMARK    4  A    between atoms: C_9  and  C_10
REMARK    5  A    between atoms: N_14  and  C_15
REMARK    6  A    between atoms: C_19  and  N_20
REMARK    7  A    between atoms: C_21  and  C_23
REMARK                            x       y       z     vdW  Elec       q    Type
REMARK                         _______ _______ _______ _____ _____    ______ ____
ROOT
ATOM      1  C   UNL     1       0.759   8.498  21.871  0.00  0.00    +0.000 C 
ATOM      2  C   UNL     1       1.351   7.623  20.796  0.00  0.00    +0.000 A 
ATOM      3  C   UNL     1       1.456   6.243  21.069  0.00  0.00    +0.000 A 
ATOM      4  C   UNL     1       1.915   5.346  20.098  0.00  0.00    +0.000 A 
ATOM      5  C   UNL     1       2.275   5.816  18.837  0.00  0.00    +0.000 A 
ATOM      6  C   UNL     1       2.259   7.195  18.595  0.00  0.00    +0.000 A 
ATOM      7  C   UNL     1       1.815   8.116  19.558  0.00  0.00    +0.000 A 
ENDROOT
BRANCH   5   8
ATOM      8  C   UNL     1       2.673   4.840  17.776  0.00  0.00    +0.000 C 
ATOM      9  O   UNL     1       1.868   4.031  17.325  0.00  0.00    +0.000 OA
ATOM     10  N   UNL     1       3.968   4.942  17.314  0.00  0.00    +0.000 N 
ATOM     11  H   UNL     1       4.565   5.704  17.624  0.00  0.00    +0.000 HD
BRANCH  10  12
ATOM     12  C   UNL     1       4.503   4.081  16.275  0.00  0.00    +0.000 C 
BRANCH  12  13
ATOM     13  C   UNL     1       5.745   4.697  15.749  0.00  0.00    +0.000 A 
ATOM     14  N   UNL     1       6.245   4.482  14.540  0.00  0.00    +0.000 NA
ATOM     15  N   UNL     1       7.387   5.225  14.446  0.00  0.00    +0.000 NA
ATOM     16  N   UNL     1       7.613   5.885  15.568  0.00  0.00    +0.000 NA
ATOM     17  N   UNL     1       6.598   5.567  16.394  0.00  0.00    +0.000 N 
BRANCH  17  18
ATOM     18  C   UNL     1       6.576   6.143  17.719  0.00  0.00    +0.000 C 
ATOM     19  C   UNL     1       7.799   6.609  18.482  0.00  0.00    +0.000 C 
ATOM     20  C   UNL     1       7.035   5.426  18.971  0.00  0.00    +0.000 C 
ENDBRANCH  17  18
ENDBRANCH  12  13
ENDBRANCH  10  12
ENDBRANCH   5   8
BRANCH   7  21
ATOM     21  N   UNL     1       1.833   9.518  19.312  0.00  0.00    +0.000 N 
ATOM     22  C   UNL     1       0.773  10.295  18.861  0.00  0.00    +0.000 C 
ATOM     23  O   UNL     1      -0.363   9.912  18.626  0.00  0.00    +0.000 OA
ATOM     24  H   UNL     1       2.694  10.000  19.528  0.00  0.00    +0.000 HD
BRANCH  22  25
ATOM     25  C   UNL     1       1.042  11.750  18.692  0.00  0.00    +0.000 A 
ATOM     26  C   UNL     1       0.052  12.725  18.852  0.00  0.00    +0.000 A 
ATOM     27  C   UNL     1       0.371  14.074  18.669  0.00  0.00    +0.000 A 
ATOM     28  C   UNL     1       1.674  14.452  18.341  0.00  0.00    +0.000 A 
ATOM     29  C   UNL     1       2.672  13.487  18.216  0.00  0.00    +0.000 A 
ATOM     30  C   UNL     1       2.358  12.140  18.398  0.00  0.00    +0.000 A 
ENDBRANCH  22  25
ENDBRANCH   7  21
TORSDOF 6
ENDMDL
MODEL 9
REMARK VINA RESULT:      -7.4      1.068      1.254
REMARK  Name = 
REMARK  7 active torsions:
REMARK  status: ('A' for Active; 'I' for Inactive)
REMARK    1  A    between atoms: C_1  and  C_2
REMARK    2  A    between atoms: C_5  and  C_6
REMARK    3  A    between atoms: N_8  and  C_9
REMARK    4  A    between atoms: C_9  and  C_10
REMARK    5  A    between atoms: N_14  and  C_15
REMARK    6  A    between atoms: C_19  and  N_20
REMARK    7  A    between atoms: C_21  and  C_23
REMARK                            x       y       z     vdW  Elec       q    Type
REMARK                         _______ _______ _______ _____ _____    ______ ____
ROOT
ATOM      1  C   UNL     1       5.629   4.325  18.700  0.00  0.00    +0.000 C 
ATOM      2  C   UNL     1       4.606   5.422  18.552  0.00  0.00    +0.000 A 
ATOM      3  C   UNL     1       3.781   5.691  19.664  0.00  0.00    +0.000 A 
ATOM      4  C   UNL     1       2.862   6.746  19.645  0.00  0.00    +0.000 A 
ATOM      5  C   UNL     1       2.755   7.550  18.511  0.00  0.00    +0.000 A 
ATOM      6  C   UNL     1       3.507   7.226  17.375  0.00  0.00    +0.000 A 
ATOM      7  C   UNL     1       4.426   6.164  17.366  0.00  0.00    +0.000 A 
ENDROOT
BRANCH   5   8
ATOM      8  C   UNL     1       1.841   8.732  18.533  0.00  0.00    +0.000 C 
ATOM      9  O   UNL     1       1.769   9.495  17.574  0.00  0.00    +0.000 OA
ATOM     10  N   UNL     1       1.064   8.878  19.663  0.00  0.00    +0.000 N 
ATOM     11  H   UNL     1       1.063   8.158  20.380  0.00  0.00    +0.000 HD
BRANCH  10  12
ATOM     12  C   UNL     1       0.115   9.963  19.831  0.00  0.00    +0.000 C 
BRANCH  12  13
ATOM     13  C   UNL     1      -0.052  10.219  21.281  0.00  0.00    +0.000 A 
ATOM     14  N   UNL     1       0.035   9.296  22.230  0.00  0.00    +0.000 NA
ATOM     15  N   UNL     1      -0.182   9.930  23.419  0.00  0.00    +0.000 NA
ATOM     16  N   UNL     1      -0.413  11.217  23.232  0.00  0.00    +0.000 NA
ATOM     17  N   UNL     1      -0.336  11.416  21.903  0.00  0.00    +0.000 N 
BRANCH  17  18
ATOM     18  C   UNL     1      -0.553  12.749  21.387  0.00  0.00    +0.000 C 
ATOM     19  C   UNL     1       0.477  13.860  21.398  0.00  0.00    +0.000 C 
ATOM     20  C   UNL     1      -0.741  13.979  22.250  0.00  0.00    +0.000 C 
ENDBRANCH  17  18
ENDBRANCH  12  13
ENDBRANCH  10  12
ENDBRANCH   5   8
BRANCH   7  21
ATOM     21  N   UNL     1       5.162   5.824  16.196  0.00  0.00    +0.000 N 
ATOM     22  C   UNL     1       5.121   4.617  15.510  0.00  0.00    +0.000 C 
ATOM     23  O   UNL     1       4.425   3.649  15.778  0.00  0.00    +0.000 OA
ATOM     24  H   UNL     1       5.741   6.553  15.803  0.00  0.00    +0.000 HD
BRANCH  22  25
ATOM     25  C   UNL     1       5.981   4.512  14.299  0.00  0.00    +0.000 A 
ATOM     26  C   UNL     1       7.174   5.226  14.156  0.00  0.00    +0.000 A 
ATOM     27  C   UNL     1       7.930   5.087  12.987  0.00  0.00    +0.000 A 
ATOM     28  C   UNL     1       7.504   4.231  11.970  0.00  0.00    +0.000 A 
ATOM     29  C   UNL     1       6.334   3.490  12.123  0.00  0.00    +0.000 A 
ATOM     30  C   UNL     1       5.578   3.625  13.288  0.00  0.00    +0.000 A 
ENDBRANCH  22  25
ENDBRANCH   7  21
TORSDOF 6
ENDMDL
