MODEL 1
REMARK VINA RESULT:      -9.4      0.000      0.000
REMARK  Name = 
REMARK  5 active torsions:
REMARK  status: ('A' for Active; 'I' for Inactive)
REMARK    1  A    between atoms: C_1  and  C_2
REMARK    2  A    between atoms: C_9  and  C_10
REMARK    3  A    between atoms: N_16  and  C_17
REMARK    4  A    between atoms: C_21  and  S_22
REMARK    5  A    between atoms: S_22  and  N_23
REMARK                            x       y       z     vdW  Elec       q    Type
REMARK                         _______ _______ _______ _____ _____    ______ ____
ROOT
ATOM      1  C   UNL     1      -0.759  10.702  19.622  0.00  0.00    +0.000 C 
ATOM      2  C   UNL     1      -0.336  10.099  20.747  0.00  0.00    +0.000 C 
ATOM      3  C   UNL     1       0.899   9.255  20.847  0.00  0.00    +0.000 C 
ATOM      4  N   UNL     1       1.499   9.021  19.535  0.00  0.00    +0.000 N 
ATOM      5  C   UNL     1       2.082   7.780  19.320  0.00  0.00    +0.000 C 
ATOM      6  O   UNL     1       2.024   6.883  20.162  0.00  0.00    +0.000 OA
ATOM      7  N   UNL     1       2.769   7.639  18.128  0.00  0.00    +0.000 N 
ATOM      8  C   UNL     1       1.480  10.166  18.620  0.00  0.00    +0.000 C 
ATOM      9  C   UNL     1       0.042  10.628  18.349  0.00  0.00    +0.000 C 
ATOM     10  H   UNL     1       3.271   8.471  17.863  0.00  0.00    +0.000 HD
ENDROOT
BRANCH   1  19
ATOM     11  C   UNL     1      -2.360   9.592  16.876  0.00  0.00    +0.000 C 
ATOM     12  C   UNL     1      -3.290  10.642  17.423  0.00  0.00    +0.000 A 
ATOM     13  C   UNL     1      -4.489  10.900  16.722  0.00  0.00    +0.000 A 
ATOM     14  C   UNL     1      -5.407  11.851  17.158  0.00  0.00    +0.000 A 
ATOM     15  C   UNL     1      -5.163  12.594  18.309  0.00  0.00    +0.000 A 
ATOM     16  C   UNL     1      -3.969  12.356  18.999  0.00  0.00    +0.000 A 
ATOM     17  N   UNL     1      -3.500  12.946  20.150  0.00  0.00    +0.000 N 
ATOM     18  C   UNL     1      -2.286  12.423  20.496  0.00  0.00    +0.000 A 
ATOM     19  C   UNL     1      -1.956  11.475  19.553  0.00  0.00    +0.000 A 
ATOM     20  C   UNL     1      -3.021  11.409  18.591  0.00  0.00    +0.000 A 
ATOM     21  H   UNL     1      -3.996  13.658  20.667  0.00  0.00    +0.000 HD
ENDBRANCH   1  19
BRANCH   7  22
ATOM     22  C   UNL     1       3.425   6.424  17.823  0.00  0.00    +0.000 A 
ATOM     23  C   UNL     1       2.665   5.245  17.800  0.00  0.00    +0.000 A 
ATOM     24  C   UNL     1       3.244   4.044  17.395  0.00  0.00    +0.000 A 
ATOM     25  C   UNL     1       4.600   3.994  17.082  0.00  0.00    +0.000 A 
ATOM     26  C   UNL     1       5.372   5.156  17.180  0.00  0.00    +0.000 A 
ATOM     27  C   UNL     1       4.789   6.378  17.529  0.00  0.00    +0.000 A 
BRANCH  26  28
ATOM     28  S   UNL     1       7.116   5.038  16.937  0.00  0.00    +0.000 S 
ATOM     29  O   UNL     1       7.735   4.491  18.129  0.00  0.00    +0.000 OA
ATOM     30  O   UNL     1       7.374   4.496  15.622  0.00  0.00    +0.000 OA
BRANCH  28  31
ATOM     31  N   UNL     1       7.569   6.650  16.868  0.00  0.00    +0.000 NA
ATOM     32  H   UNL     1       7.198   7.082  16.024  0.00  0.00    +0.000 HD
ATOM     33  H   UNL     1       7.311   7.123  17.735  0.00  0.00    +0.000 HD
ENDBRANCH  28  31
ENDBRANCH  26  28
ENDBRANCH   7  22
TORSDOF 4
ENDMDL
MODEL 2
REMARK VINA RESULT:      -9.1      0.838      1.013
REMARK  Name = 
REMARK  5 active torsions:
REMARK  status: ('A' for Active; 'I' for Inactive)
REMARK    1  A    between atoms: C_1  and  C_2
REMARK    2  A    between atoms: C_9  and  C_10
REMARK    3  A    between atoms: N_16  and  C_17
REMARK    4  A    between atoms: C_21  and  S_22
REMARK    5  A    between atoms: S_22  and  N_23
REMARK                            x       y       z     vdW  Elec       q    Type
REMARK                         _______ _______ _______ _____ _____    ______ ____
ROOT
ATOM      1  C   UNL     1      -0.924  11.073  19.769  0.00  0.00    +0.000 C 
ATOM      2  C   UNL     1      -0.428  10.534  20.897  0.00  0.00    +0.000 C 
ATOM      3  C   UNL     1       0.802   9.680  20.963  0.00  0.00    +0.000 C 
ATOM      4  N   UNL     1       1.306   9.359  19.630  0.00  0.00    +0.000 N 
ATOM      5  C   UNL     1       1.861   8.099  19.452  0.00  0.00    +0.000 C 
ATOM      6  O   UNL     1       1.853   7.256  20.349  0.00  0.00    +0.000 OA
ATOM      7  N   UNL     1       2.461   7.876  18.226  0.00  0.00    +0.000 N 
ATOM      8  C   UNL     1       1.234  10.446  18.650  0.00  0.00    +0.000 C 
ATOM      9  C   UNL     1      -0.215  10.911  18.451  0.00  0.00    +0.000 C 
ATOM     10  H   UNL     1       2.951   8.684  17.876  0.00  0.00    +0.000 HD
ENDROOT
BRANCH   1  19
ATOM     11  C   UNL     1      -2.888   9.584  17.476  0.00  0.00    +0.000 C 
ATOM     12  C   UNL     1      -3.729  10.733  17.965  0.00  0.00    +0.000 A 
ATOM     13  C   UNL     1      -5.011  10.907  17.397  0.00  0.00    +0.000 A 
ATOM     14  C   UNL     1      -5.856  11.941  17.792  0.00  0.00    +0.000 A 
ATOM     15  C   UNL     1      -5.455  12.851  18.766  0.00  0.00    +0.000 A 
ATOM     16  C   UNL     1      -4.180  12.692  19.320  0.00  0.00    +0.000 A 
ATOM     17  N   UNL     1      -3.556  13.446  20.288  0.00  0.00    +0.000 N 
ATOM     18  C   UNL     1      -2.310  12.952  20.550  0.00  0.00    +0.000 A 
ATOM     19  C   UNL     1      -2.115  11.857  19.736  0.00  0.00    +0.000 A 
ATOM     20  C   UNL     1      -3.300  11.667  18.948  0.00  0.00    +0.000 A 
ATOM     21  H   UNL     1      -3.975  14.244  20.745  0.00  0.00    +0.000 HD
ENDBRANCH   1  19
BRANCH   7  22
ATOM     22  C   UNL     1       3.082   6.636  17.951  0.00  0.00    +0.000 A 
ATOM     23  C   UNL     1       2.285   5.482  17.938  0.00  0.00    +0.000 A 
ATOM     24  C   UNL     1       2.831   4.256  17.562  0.00  0.00    +0.000 A 
ATOM     25  C   UNL     1       4.190   4.157  17.270  0.00  0.00    +0.000 A 
ATOM     26  C   UNL     1       4.996   5.296  17.357  0.00  0.00    +0.000 A 
ATOM     27  C   UNL     1       4.448   6.542  17.677  0.00  0.00    +0.000 A 
BRANCH  26  28
ATOM     28  S   UNL     1       6.739   5.119  17.141  0.00  0.00    +0.000 S 
ATOM     29  O   UNL     1       7.268   6.303  16.491  0.00  0.00    +0.000 OA
ATOM     30  O   UNL     1       7.315   4.591  18.357  0.00  0.00    +0.000 OA
BRANCH  28  31
ATOM     31  N   UNL     1       6.827   3.883  16.013  0.00  0.00    +0.000 NA
ATOM     32  H   UNL     1       7.800   3.631  15.846  0.00  0.00    +0.000 HD
ATOM     33  H   UNL     1       6.230   3.106  16.298  0.00  0.00    +0.000 HD
ENDBRANCH  28  31
ENDBRANCH  26  28
ENDBRANCH   7  22
TORSDOF 4
ENDMDL
MODEL 3
REMARK VINA RESULT:      -9.1      1.067      2.373
REMARK  Name = 
REMARK  5 active torsions:
REMARK  status: ('A' for Active; 'I' for Inactive)
REMARK    1  A    between atoms: C_1  and  C_2
REMARK    2  A    between atoms: C_9  and  C_10
REMARK    3  A    between atoms: N_16  and  C_17
REMARK    4  A    between atoms: C_21  and  S_22
REMARK    5  A    between atoms: S_22  and  N_23
REMARK                            x       y       z     vdW  Elec       q    Type
REMARK                         _______ _______ _______ _____ _____    ______ ____
ROOT
ATOM      1  C   UNL     1      -0.764  10.594  19.695  0.00  0.00    +0.000 C 
ATOM      2  C   UNL     1      -0.332   9.984  20.812  0.00  0.00    +0.000 C 
ATOM      3  C   UNL     1       0.907   9.145  20.899  0.00  0.00    +0.000 C 
ATOM      4  N   UNL     1       1.503   8.926  19.583  0.00  0.00    +0.000 N 
ATOM      5  C   UNL     1       2.092   7.691  19.354  0.00  0.00    +0.000 C 
ATOM      6  O   UNL     1       2.042   6.786  20.187  0.00  0.00    +0.000 OA
ATOM      7  N   UNL     1       2.775   7.565  18.157  0.00  0.00    +0.000 N 
ATOM      8  C   UNL     1       1.474  10.080  18.678  0.00  0.00    +0.000 C 
ATOM      9  C   UNL     1       0.032  10.537  18.417  0.00  0.00    +0.000 C 
ATOM     10  H   UNL     1       3.271   8.402  17.898  0.00  0.00    +0.000 HD
ENDROOT
BRANCH   1  19
ATOM     11  C   UNL     1      -0.948  12.152  22.673  0.00  0.00    +0.000 C 
ATOM     12  C   UNL     1      -2.171  12.643  21.945  0.00  0.00    +0.000 A 
ATOM     13  C   UNL     1      -3.029  13.541  22.618  0.00  0.00    +0.000 A 
ATOM     14  C   UNL     1      -4.180  14.047  22.018  0.00  0.00    +0.000 A 
ATOM     15  C   UNL     1      -4.529  13.671  20.725  0.00  0.00    +0.000 A 
ATOM     16  C   UNL     1      -3.691  12.767  20.060  0.00  0.00    +0.000 A 
ATOM     17  N   UNL     1      -3.810  12.247  18.791  0.00  0.00    +0.000 N 
ATOM     18  C   UNL     1      -2.774  11.398  18.523  0.00  0.00    +0.000 A 
ATOM     19  C   UNL     1      -1.965  11.362  19.638  0.00  0.00    +0.000 A 
ATOM     20  C   UNL     1      -2.527  12.236  20.629  0.00  0.00    +0.000 A 
ATOM     21  H   UNL     1      -4.557  12.477  18.151  0.00  0.00    +0.000 HD
ENDBRANCH   1  19
BRANCH   7  22
ATOM     22  C   UNL     1       3.435   6.356  17.838  0.00  0.00    +0.000 A 
ATOM     23  C   UNL     1       2.682   5.174  17.808  0.00  0.00    +0.000 A 
ATOM     24  C   UNL     1       3.266   3.979  17.389  0.00  0.00    +0.000 A 
ATOM     25  C   UNL     1       4.621   3.940  17.070  0.00  0.00    +0.000 A 
ATOM     26  C   UNL     1       5.387   5.105  17.174  0.00  0.00    +0.000 A 
ATOM     27  C   UNL     1       4.799   6.321  17.537  0.00  0.00    +0.000 A 
BRANCH  26  28
ATOM     28  S   UNL     1       7.130   4.999  16.921  0.00  0.00    +0.000 S 
ATOM     29  O   UNL     1       7.757   4.436  18.101  0.00  0.00    +0.000 OA
ATOM     30  O   UNL     1       7.385   4.479  15.597  0.00  0.00    +0.000 OA
BRANCH  28  31
ATOM     31  N   UNL     1       7.575   6.614  16.876  0.00  0.00    +0.000 NA
ATOM     32  H   UNL     1       8.151   6.795  16.056  0.00  0.00    +0.000 HD
ATOM     33  H   UNL     1       6.748   7.207  16.953  0.00  0.00    +0.000 HD
ENDBRANCH  28  31
ENDBRANCH  26  28
ENDBRANCH   7  22
TORSDOF 4
ENDMDL
MODEL 4
REMARK VINA RESULT:      -9.1      6.335      9.193
REMARK  Name = 
REMARK  5 active torsions:
REMARK  status: ('A' for Active; 'I' for Inactive)
REMARK    1  A    between atoms: C_1  and  C_2
REMARK    2  A    between atoms: C_9  and  C_10
REMARK    3  A    between atoms: N_16  and  C_17
REMARK    4  A    between atoms: C_21  and  S_22
REMARK    5  A    between atoms: S_22  and  N_23
REMARK                            x       y       z     vdW  Elec       q    Type
REMARK                         _______ _______ _______ _____ _____    ______ ____
ROOT
ATOM      1  C   UNL     1       5.814   5.414  18.291  0.00  0.00    +0.000 C 
ATOM      2  C   UNL     1       5.755   6.188  17.193  0.00  0.00    +0.000 C 
ATOM      3  C   UNL     1       6.712   7.300  16.884  0.00  0.00    +0.000 C 
ATOM      4  N   UNL     1       7.618   7.557  18.001  0.00  0.00    +0.000 N 
ATOM      5  C   UNL     1       7.982   8.877  18.227  0.00  0.00    +0.000 C 
ATOM      6  O   UNL     1       7.501   9.802  17.573  0.00  0.00    +0.000 OA
ATOM      7  N   UNL     1       8.952   9.074  19.194  0.00  0.00    +0.000 N 
ATOM      8  C   UNL     1       8.098   6.367  18.710  0.00  0.00    +0.000 C 
ATOM      9  C   UNL     1       6.927   5.565  19.293  0.00  0.00    +0.000 C 
ATOM     10  H   UNL     1       9.664   8.361  19.187  0.00  0.00    +0.000 HD
ENDROOT
BRANCH   1  19
ATOM     11  C   UNL     1       3.152   7.000  19.608  0.00  0.00    +0.000 C 
ATOM     12  C   UNL     1       2.727   5.556  19.592  0.00  0.00    +0.000 A 
ATOM     13  C   UNL     1       1.445   5.234  20.093  0.00  0.00    +0.000 A 
ATOM     14  C   UNL     1       0.970   3.926  20.113  0.00  0.00    +0.000 A 
ATOM     15  C   UNL     1       1.757   2.879  19.642  0.00  0.00    +0.000 A 
ATOM     16  C   UNL     1       3.034   3.190  19.159  0.00  0.00    +0.000 A 
ATOM     17  N   UNL     1       3.993   2.349  18.642  0.00  0.00    +0.000 N 
ATOM     18  C   UNL     1       5.105   3.056  18.282  0.00  0.00    +0.000 A 
ATOM     19  C   UNL     1       4.869   4.383  18.571  0.00  0.00    +0.000 A 
ATOM     20  C   UNL     1       3.548   4.493  19.124  0.00  0.00    +0.000 A 
ATOM     21  H   UNL     1       3.878   1.351  18.536  0.00  0.00    +0.000 HD
ENDBRANCH   1  19
BRANCH   7  22
ATOM     22  C   UNL     1       9.417  10.378  19.482  0.00  0.00    +0.000 A 
ATOM     23  C   UNL     1       9.265  10.864  20.789  0.00  0.00    +0.000 A 
ATOM     24  C   UNL     1       9.808  12.097  21.146  0.00  0.00    +0.000 A 
ATOM     25  C   UNL     1      10.439  12.886  20.187  0.00  0.00    +0.000 A 
ATOM     26  C   UNL     1      10.521  12.432  18.868  0.00  0.00    +0.000 A 
ATOM     27  C   UNL     1      10.031  11.171  18.511  0.00  0.00    +0.000 A 
BRANCH  26  28
ATOM     28  S   UNL     1      11.177  13.513  17.637  0.00  0.00    +0.000 S 
ATOM     29  O   UNL     1      12.062  14.477  18.263  0.00  0.00    +0.000 OA
ATOM     30  O   UNL     1      11.583  12.732  16.491  0.00  0.00    +0.000 OA
BRANCH  28  31
ATOM     31  N   UNL     1       9.816  14.364  17.157  0.00  0.00    +0.000 NA
ATOM     32  H   UNL     1       9.181  13.751  16.650  0.00  0.00    +0.000 HD
ATOM     33  H   UNL     1       9.400  14.838  17.959  0.00  0.00    +0.000 HD
ENDBRANCH  28  31
ENDBRANCH  26  28
ENDBRANCH   7  22
TORSDOF 4
ENDMDL
MODEL 5
REMARK VINA RESULT:      -9.0      6.287      9.219
REMARK  Name = 
REMARK  5 active torsions:
REMARK  status: ('A' for Active; 'I' for Inactive)
REMARK    1  A    between atoms: C_1  and  C_2
REMARK    2  A    between atoms: C_9  and  C_10
REMARK    3  A    between atoms: N_16  and  C_17
REMARK    4  A    between atoms: C_21  and  S_22
REMARK    5  A    between atoms: S_22  and  N_23
REMARK                            x       y       z     vdW  Elec       q    Type
REMARK                         _______ _______ _______ _____ _____    ______ ____
ROOT
ATOM      1  C   UNL     1       5.691   5.125  18.598  0.00  0.00    +0.000 C 
ATOM      2  C   UNL     1       5.609   5.735  17.402  0.00  0.00    +0.000 C 
ATOM      3  C   UNL     1       6.559   6.789  16.919  0.00  0.00    +0.000 C 
ATOM      4  N   UNL     1       7.487   7.201  17.970  0.00  0.00    +0.000 N 
ATOM      5  C   UNL     1       7.856   8.538  17.999  0.00  0.00    +0.000 C 
ATOM      6  O   UNL     1       7.360   9.362  17.230  0.00  0.00    +0.000 OA
ATOM      7  N   UNL     1       8.845   8.868  18.908  0.00  0.00    +0.000 N 
ATOM      8  C   UNL     1       7.983   6.122  18.831  0.00  0.00    +0.000 C 
ATOM      9  C   UNL     1       6.824   5.414  19.546  0.00  0.00    +0.000 C 
ATOM     10  H   UNL     1       9.557   8.160  18.988  0.00  0.00    +0.000 HD
ENDROOT
BRANCH   1  19
ATOM     11  C   UNL     1       2.946   6.872  19.463  0.00  0.00    +0.000 C 
ATOM     12  C   UNL     1       2.547   5.443  19.719  0.00  0.00    +0.000 A 
ATOM     13  C   UNL     1       1.250   5.195  20.223  0.00  0.00    +0.000 A 
ATOM     14  C   UNL     1       0.798   3.905  20.485  0.00  0.00    +0.000 A 
ATOM     15  C   UNL     1       1.623   2.806  20.265  0.00  0.00    +0.000 A 
ATOM     16  C   UNL     1       2.915   3.047  19.781  0.00  0.00    +0.000 A 
ATOM     17  N   UNL     1       3.910   2.145  19.482  0.00  0.00    +0.000 N 
ATOM     18  C   UNL     1       5.024   2.795  19.032  0.00  0.00    +0.000 A 
ATOM     19  C   UNL     1       4.752   4.146  19.040  0.00  0.00    +0.000 A 
ATOM     20  C   UNL     1       3.407   4.330  19.507  0.00  0.00    +0.000 A 
ATOM     21  H   UNL     1       3.816   1.144  19.573  0.00  0.00    +0.000 HD
ENDBRANCH   1  19
BRANCH   7  22
ATOM     22  C   UNL     1       9.315  10.199  18.999  0.00  0.00    +0.000 A 
ATOM     23  C   UNL     1      10.104  10.699  17.953  0.00  0.00    +0.000 A 
ATOM     24  C   UNL     1      10.494  12.037  17.945  0.00  0.00    +0.000 A 
ATOM     25  C   UNL     1      10.165  12.865  19.015  0.00  0.00    +0.000 A 
ATOM     26  C   UNL     1       9.442  12.344  20.092  0.00  0.00    +0.000 A 
ATOM     27  C   UNL     1       8.996  11.018  20.084  0.00  0.00    +0.000 A 
BRANCH  26  28
ATOM     28  S   UNL     1       9.175  13.364  21.508  0.00  0.00    +0.000 S 
ATOM     29  O   UNL     1      10.317  14.237  21.697  0.00  0.00    +0.000 OA
ATOM     30  O   UNL     1       7.821  13.870  21.476  0.00  0.00    +0.000 OA
BRANCH  28  31
ATOM     31  N   UNL     1       9.223  12.248  22.757  0.00  0.00    +0.000 NA
ATOM     32  H   UNL     1      10.097  12.335  23.270  0.00  0.00    +0.000 HD
ATOM     33  H   UNL     1       8.383  12.330  23.331  0.00  0.00    +0.000 HD
ENDBRANCH  28  31
ENDBRANCH  26  28
ENDBRANCH   7  22
TORSDOF 4
ENDMDL
MODEL 6
REMARK VINA RESULT:      -8.9      4.622      9.237
REMARK  Name = 
REMARK  5 active torsions:
REMARK  status: ('A' for Active; 'I' for Inactive)
REMARK    1  A    between atoms: C_1  and  C_2
REMARK    2  A    between atoms: C_9  and  C_10
REMARK    3  A    between atoms: N_16  and  C_17
REMARK    4  A    between atoms: C_21  and  S_22
REMARK    5  A    between atoms: S_22  and  N_23
REMARK                            x       y       z     vdW  Elec       q    Type
REMARK                         _______ _______ _______ _____ _____    ______ ____
ROOT
ATOM      1  C   UNL     1       2.434   7.372  18.823  0.00  0.00    +0.000 C 
ATOM      2  C   UNL     1       2.001   7.679  20.058  0.00  0.00    +0.000 C 
ATOM      3  C   UNL     1       1.205   8.902  20.402  0.00  0.00    +0.000 C 
ATOM      4  N   UNL     1       1.098   9.812  19.263  0.00  0.00    +0.000 N 
ATOM      5  C   UNL     1       1.112  11.172  19.539  0.00  0.00    +0.000 C 
ATOM      6  O   UNL     1       1.292  11.599  20.680  0.00  0.00    +0.000 OA
ATOM      7  N   UNL     1       0.862  12.005  18.463  0.00  0.00    +0.000 N 
ATOM      8  C   UNL     1       0.910   9.170  17.959  0.00  0.00    +0.000 C 
ATOM      9  C   UNL     1       2.078   8.228  17.636  0.00  0.00    +0.000 C 
ATOM     10  H   UNL     1       0.165  11.637  17.836  0.00  0.00    +0.000 HD
ENDROOT
BRANCH   1  19
ATOM     11  C   UNL     1       0.806   4.825  20.304  0.00  0.00    +0.000 C 
ATOM     12  C   UNL     1       1.985   4.154  19.649  0.00  0.00    +0.000 A 
ATOM     13  C   UNL     1       2.125   2.757  19.804  0.00  0.00    +0.000 A 
ATOM     14  C   UNL     1       3.182   2.056  19.230  0.00  0.00    +0.000 A 
ATOM     15  C   UNL     1       4.151   2.721  18.484  0.00  0.00    +0.000 A 
ATOM     16  C   UNL     1       4.026   4.108  18.342  0.00  0.00    +0.000 A 
ATOM     17  N   UNL     1       4.839   4.985  17.661  0.00  0.00    +0.000 N 
ATOM     18  C   UNL     1       4.361   6.261  17.768  0.00  0.00    +0.000 A 
ATOM     19  C   UNL     1       3.216   6.215  18.534  0.00  0.00    +0.000 A 
ATOM     20  C   UNL     1       2.979   4.848  18.905  0.00  0.00    +0.000 A 
ATOM     21  H   UNL     1       5.664   4.714  17.147  0.00  0.00    +0.000 HD
ENDBRANCH   1  19
BRANCH   7  22
ATOM     22  C   UNL     1       0.825  13.407  18.641  0.00  0.00    +0.000 A 
ATOM     23  C   UNL     1      -0.392  13.999  19.009  0.00  0.00    +0.000 A 
ATOM     24  C   UNL     1      -0.450  15.360  19.304  0.00  0.00    +0.000 A 
ATOM     25  C   UNL     1       0.686  16.153  19.162  0.00  0.00    +0.000 A 
ATOM     26  C   UNL     1       1.880  15.574  18.721  0.00  0.00    +0.000 A 
ATOM     27  C   UNL     1       1.963  14.199  18.478  0.00  0.00    +0.000 A 
BRANCH  26  28
ATOM     28  S   UNL     1       3.261  16.622  18.393  0.00  0.00    +0.000 S 
ATOM     29  O   UNL     1       3.375  17.614  19.444  0.00  0.00    +0.000 OA
ATOM     30  O   UNL     1       4.383  15.809  17.982  0.00  0.00    +0.000 OA
BRANCH  28  31
ATOM     31  N   UNL     1       2.759  17.443  17.021  0.00  0.00    +0.000 NA
ATOM     32  H   UNL     1       2.320  18.324  17.282  0.00  0.00    +0.000 HD
ATOM     33  H   UNL     1       3.535  17.532  16.364  0.00  0.00    +0.000 HD
ENDBRANCH  28  31
ENDBRANCH  26  28
ENDBRANCH   7  22
TORSDOF 4
ENDMDL
MODEL 7
REMARK VINA RESULT:      -8.8      2.820      3.995
REMARK  Name = 
REMARK  5 active torsions:
REMARK  status: ('A' for Active; 'I' for Inactive)
REMARK    1  A    between atoms: C_1  and  C_2
REMARK    2  A    between atoms: C_9  and  C_10
REMARK    3  A    between atoms: N_16  and  C_17
REMARK    4  A    between atoms: C_21  and  S_22
REMARK    5  A    between atoms: S_22  and  N_23
REMARK                            x       y       z     vdW  Elec       q    Type
REMARK                         _______ _______ _______ _____ _____    ______ ____
ROOT
ATOM      1  C   UNL     1       0.839  11.802  20.315  0.00  0.00    +0.000 C 
ATOM      2  C   UNL     1       0.472  11.641  19.032  0.00  0.00    +0.000 C 
ATOM      3  C   UNL     1       0.534  10.343  18.285  0.00  0.00    +0.000 C 
ATOM      4  N   UNL     1       1.203   9.304  19.065  0.00  0.00    +0.000 N 
ATOM      5  C   UNL     1       1.990   8.398  18.368  0.00  0.00    +0.000 C 
ATOM      6  O   UNL     1       2.187   8.511  17.158  0.00  0.00    +0.000 OA
ATOM      7  N   UNL     1       2.490   7.343  19.109  0.00  0.00    +0.000 N 
ATOM      8  C   UNL     1       0.898   9.299  20.500  0.00  0.00    +0.000 C 
ATOM      9  C   UNL     1       1.290  10.632  21.150  0.00  0.00    +0.000 C 
ATOM     10  H   UNL     1       1.836   7.001  19.796  0.00  0.00    +0.000 HD
ENDROOT
BRANCH   1  19
ATOM     11  C   UNL     1      -1.751  11.560  22.452  0.00  0.00    +0.000 C 
ATOM     12  C   UNL     1      -1.209  12.940  22.713  0.00  0.00    +0.000 A 
ATOM     13  C   UNL     1      -1.856  13.735  23.686  0.00  0.00    +0.000 A 
ATOM     14  C   UNL     1      -1.420  15.021  23.992  0.00  0.00    +0.000 A 
ATOM     15  C   UNL     1      -0.325  15.574  23.334  0.00  0.00    +0.000 A 
ATOM     16  C   UNL     1       0.309  14.797  22.357  0.00  0.00    +0.000 A 
ATOM     17  N   UNL     1       1.399  15.107  21.577  0.00  0.00    +0.000 N 
ATOM     18  C   UNL     1       1.704  14.066  20.747  0.00  0.00    +0.000 A 
ATOM     19  C   UNL     1       0.795  13.058  20.988  0.00  0.00    +0.000 A 
ATOM     20  C   UNL     1      -0.101  13.500  22.020  0.00  0.00    +0.000 A 
ATOM     21  H   UNL     1       1.904  15.980  21.626  0.00  0.00    +0.000 HD
ENDBRANCH   1  19
BRANCH   7  22
ATOM     22  C   UNL     1       3.279   6.347  18.489  0.00  0.00    +0.000 A 
ATOM     23  C   UNL     1       2.660   5.148  18.108  0.00  0.00    +0.000 A 
ATOM     24  C   UNL     1       3.372   4.186  17.394  0.00  0.00    +0.000 A 
ATOM     25  C   UNL     1       4.724   4.379  17.121  0.00  0.00    +0.000 A 
ATOM     26  C   UNL     1       5.358   5.541  17.570  0.00  0.00    +0.000 A 
ATOM     27  C   UNL     1       4.639   6.539  18.236  0.00  0.00    +0.000 A 
BRANCH  26  28
ATOM     28  S   UNL     1       7.103   5.693  17.356  0.00  0.00    +0.000 S 
ATOM     29  O   UNL     1       7.402   5.893  15.951  0.00  0.00    +0.000 OA
ATOM     30  O   UNL     1       7.631   6.562  18.383  0.00  0.00    +0.000 OA
BRANCH  28  31
ATOM     31  N   UNL     1       7.637   4.150  17.736  0.00  0.00    +0.000 NA
ATOM     32  H   UNL     1       8.173   4.170  18.601  0.00  0.00    +0.000 HD
ATOM     33  H   UNL     1       6.851   3.499  17.738  0.00  0.00    +0.000 HD
ENDBRANCH  28  31
ENDBRANCH  26  28
ENDBRANCH   7  22
TORSDOF 4
ENDMDL
MODEL 8
REMARK VINA RESULT:      -8.7      2.441      2.698
REMARK  Name = 
REMARK  5 active torsions:
REMARK  status: ('A' for Active; 'I' for Inactive)
REMARK    1  A    between atoms: C_1  and  C_2
REMARK    2  A    between atoms: C_9  and  C_10
REMARK    3  A    between atoms: N_16  and  C_17
REMARK    4  A    between atoms: C_21  and  S_22
REMARK    5  A    between atoms: S_22  and  N_23
REMARK                            x       y       z     vdW  Elec       q    Type
REMARK                         _______ _______ _______ _____ _____    ______ ____
ROOT
ATOM      1  C   UNL     1      -1.076  11.253  19.770  0.00  0.00    +0.000 C 
ATOM      2  C   UNL     1      -0.486  10.843  20.906  0.00  0.00    +0.000 C 
ATOM      3  C   UNL     1       0.754  10.002  20.966  0.00  0.00    +0.000 C 
ATOM      4  N   UNL     1       1.153   9.537  19.640  0.00  0.00    +0.000 N 
ATOM      5  C   UNL     1       1.704   8.266  19.556  0.00  0.00    +0.000 C 
ATOM      6  O   UNL     1       1.777   7.527  20.538  0.00  0.00    +0.000 OA
ATOM      7  N   UNL     1       2.207   7.910  18.318  0.00  0.00    +0.000 N 
ATOM      8  C   UNL     1       0.992  10.510  18.555  0.00  0.00    +0.000 C 
ATOM      9  C   UNL     1      -0.473  10.948  18.424  0.00  0.00    +0.000 C 
ATOM     10  H   UNL     1       2.659   8.675  17.843  0.00  0.00    +0.000 HD
ENDROOT
BRANCH   1  19
ATOM     11  C   UNL     1      -3.114   9.649  17.625  0.00  0.00    +0.000 C 
ATOM     12  C   UNL     1      -3.946  10.813  18.093  0.00  0.00    +0.000 A 
ATOM     13  C   UNL     1      -5.250  10.953  17.568  0.00  0.00    +0.000 A 
ATOM     14  C   UNL     1      -6.087  11.998  17.948  0.00  0.00    +0.000 A 
ATOM     15  C   UNL     1      -5.657  12.955  18.863  0.00  0.00    +0.000 A 
ATOM     16  C   UNL     1      -4.359  12.830  19.374  0.00  0.00    +0.000 A 
ATOM     17  N   UNL     1      -3.705  13.631  20.282  0.00  0.00    +0.000 N 
ATOM     18  C   UNL     1      -2.446  13.158  20.517  0.00  0.00    +0.000 A 
ATOM     19  C   UNL     1      -2.273  12.028  19.747  0.00  0.00    +0.000 A 
ATOM     20  C   UNL     1      -3.487  11.795  19.015  0.00  0.00    +0.000 A 
ATOM     21  H   UNL     1      -4.112  14.447  20.717  0.00  0.00    +0.000 HD
ENDBRANCH   1  19
BRANCH   7  22
ATOM     22  C   UNL     1       2.816   6.647  18.131  0.00  0.00    +0.000 A 
ATOM     23  C   UNL     1       4.065   6.599  17.496  0.00  0.00    +0.000 A 
ATOM     24  C   UNL     1       4.753   5.391  17.392  0.00  0.00    +0.000 A 
ATOM     25  C   UNL     1       4.169   4.213  17.852  0.00  0.00    +0.000 A 
ATOM     26  C   UNL     1       2.890   4.254  18.415  0.00  0.00    +0.000 A 
ATOM     27  C   UNL     1       2.215   5.468  18.577  0.00  0.00    +0.000 A 
BRANCH  26  28
ATOM     28  S   UNL     1       2.103   2.734  18.843  0.00  0.00    +0.000 S 
ATOM     29  O   UNL     1       2.265   2.488  20.263  0.00  0.00    +0.000 OA
ATOM     30  O   UNL     1       0.810   2.674  18.198  0.00  0.00    +0.000 OA
BRANCH  28  31
ATOM     31  N   UNL     1       3.064   1.609  18.056  0.00  0.00    +0.000 NA
ATOM     32  H   UNL     1       4.047   1.848  18.171  0.00  0.00    +0.000 HD
ATOM     33  H   UNL     1       2.817   0.666  18.359  0.00  0.00    +0.000 HD
ENDBRANCH  28  31
ENDBRANCH  26  28
ENDBRANCH   7  22
TORSDOF 4
ENDMDL
MODEL 9
REMARK VINA RESULT:      -8.6      4.585      9.172
REMARK  Name = 
REMARK  5 active torsions:
REMARK  status: ('A' for Active; 'I' for Inactive)
REMARK    1  A    between atoms: C_1  and  C_2
REMARK    2  A    between atoms: C_9  and  C_10
REMARK    3  A    between atoms: N_16  and  C_17
REMARK    4  A    between atoms: C_21  and  S_22
REMARK    5  A    between atoms: S_22  and  N_23
REMARK                            x       y       z     vdW  Elec       q    Type
REMARK                         _______ _______ _______ _____ _____    ______ ____
ROOT
ATOM      1  C   UNL     1       2.888   6.700  19.181  0.00  0.00    +0.000 C 
ATOM      2  C   UNL     1       2.085   7.016  20.212  0.00  0.00    +0.000 C 
ATOM      3  C   UNL     1       1.205   8.228  20.265  0.00  0.00    +0.000 C 
ATOM      4  N   UNL     1       1.449   9.120  19.134  0.00  0.00    +0.000 N 
ATOM      5  C   UNL     1       1.359  10.484  19.374  0.00  0.00    +0.000 C 
ATOM      6  O   UNL     1       1.166  10.930  20.505  0.00  0.00    +0.000 OA
ATOM      7  N   UNL     1       1.448  11.297  18.258  0.00  0.00    +0.000 N 
ATOM      8  C   UNL     1       1.689   8.457  17.848  0.00  0.00    +0.000 C 
ATOM      9  C   UNL     1       2.911   7.532  17.926  0.00  0.00    +0.000 C 
ATOM     10  H   UNL     1       0.988  10.907  17.451  0.00  0.00    +0.000 HD
ENDROOT
BRANCH   1  19
ATOM     11  C   UNL     1       0.851   4.108  18.495  0.00  0.00    +0.000 C 
ATOM     12  C   UNL     1       2.207   3.466  18.615  0.00  0.00    +0.000 A 
ATOM     13  C   UNL     1       2.297   2.066  18.442  0.00  0.00    +0.000 A 
ATOM     14  C   UNL     1       3.511   1.391  18.534  0.00  0.00    +0.000 A 
ATOM     15  C   UNL     1       4.687   2.082  18.811  0.00  0.00    +0.000 A 
ATOM     16  C   UNL     1       4.601   3.466  19.000  0.00  0.00    +0.000 A 
ATOM     17  N   UNL     1       5.604   4.366  19.279  0.00  0.00    +0.000 N 
ATOM     18  C   UNL     1       5.096   5.630  19.385  0.00  0.00    +0.000 A 
ATOM     19  C   UNL     1       3.736   5.553  19.175  0.00  0.00    +0.000 A 
ATOM     20  C   UNL     1       3.399   4.181  18.918  0.00  0.00    +0.000 A 
ATOM     21  H   UNL     1       6.578   4.120  19.377  0.00  0.00    +0.000 HD
ENDBRANCH   1  19
BRANCH   7  22
ATOM     22  C   UNL     1       1.339  12.701  18.388  0.00  0.00    +0.000 A 
ATOM     23  C   UNL     1       0.061  13.257  18.542  0.00  0.00    +0.000 A 
ATOM     24  C   UNL     1      -0.086  14.622  18.786  0.00  0.00    +0.000 A 
ATOM     25  C   UNL     1       1.033  15.451  18.804  0.00  0.00    +0.000 A 
ATOM     26  C   UNL     1       2.299  14.905  18.575  0.00  0.00    +0.000 A 
ATOM     27  C   UNL     1       2.463  13.529  18.386  0.00  0.00    +0.000 A 
BRANCH  26  28
ATOM     28  S   UNL     1       3.681  15.993  18.442  0.00  0.00    +0.000 S 
ATOM     29  O   UNL     1       3.314  17.146  17.642  0.00  0.00    +0.000 OA
ATOM     30  O   UNL     1       4.303  16.128  19.740  0.00  0.00    +0.000 OA
BRANCH  28  31
ATOM     31  N   UNL     1       4.746  15.094  17.511  0.00  0.00    +0.000 NA
ATOM     32  H   UNL     1       5.353  14.541  18.111  0.00  0.00    +0.000 HD
ATOM     33  H   UNL     1       4.231  14.555  16.814  0.00  0.00    +0.000 HD
ENDBRANCH  28  31
ENDBRANCH  26  28
ENDBRANCH   7  22
TORSDOF 4
ENDMDL
