MODEL 1
REMARK VINA RESULT:      -8.1      0.000      0.000
REMARK  Name = 
REMARK  6 active torsions:
REMARK  status: ('A' for Active; 'I' for Inactive)
REMARK    1  A    between atoms: N_3  and  C_4
REMARK    2  A    between atoms: N_7  and  C_8
REMARK    3  A    between atoms: C_8  and  C_9
REMARK    4  A    between atoms: C_9  and  N_10
REMARK    5  A    between atoms: N_21  and  C_22
REMARK    6  A    between atoms: C_22  and  C_23
REMARK                            x       y       z     vdW  Elec       q    Type
REMARK                         _______ _______ _______ _____ _____    ______ ____
ROOT
ATOM      1  O   UNL     1       7.993  10.078  17.451  0.00  0.00    +0.000 OA
ATOM      2  C   UNL     1       8.368   9.160  18.178  0.00  0.00    +0.000 C 
ATOM      3  N   UNL     1       9.172   9.313  19.276  0.00  0.00    +0.000 N 
ATOM      4  N   UNL     1       8.035   7.845  17.915  0.00  0.00    +0.000 N 
ATOM      5  C   UNL     1       7.356   7.495  16.679  0.00  0.00    +0.000 C 
ATOM      6  C   UNL     1       6.486   6.317  17.044  0.00  0.00    +0.000 C 
ATOM      7  C   UNL     1       5.164   6.697  17.696  0.00  0.00    +0.000 C 
ATOM      8  N   UNL     1       4.821   5.527  18.525  0.00  0.00    +0.000 NA
ATOM      9  C   UNL     1       6.108   4.950  18.979  0.00  0.00    +0.000 C 
ATOM     10  C   UNL     1       7.223   5.624  18.183  0.00  0.00    +0.000 C 
ATOM     11  C   UNL     1       7.925   6.779  18.906  0.00  0.00    +0.000 C 
ATOM     12  H   UNL     1       9.696   8.509  19.580  0.00  0.00    +0.000 HD
ENDROOT
BRANCH   3  13
ATOM     13  C   UNL     1       9.610  10.544  19.732  0.00  0.00    +0.000 A 
ATOM     14  C   UNL     1      10.679  11.350  19.298  0.00  0.00    +0.000 A 
ATOM     15  N   UNL     1      10.797  12.463  20.026  0.00  0.00    +0.000 NA
ATOM     16  N   UNL     1       9.797  12.369  20.928  0.00  0.00    +0.000 N 
ATOM     17  C   UNL     1       9.036  11.243  20.767  0.00  0.00    +0.000 A 
BRANCH  16  18
ATOM     18  C   UNL     1       9.598  13.437  21.905  0.00  0.00    +0.000 C 
BRANCH  18  19
ATOM     19  C   UNL     1       8.251  13.268  22.618  0.00  0.00    +0.000 C 
BRANCH  19  20
ATOM     20  N   UNL     1       8.239  13.010  24.073  0.00  0.00    +0.000 NA
ATOM     21  C   UNL     1       7.670  11.707  24.469  0.00  0.00    +0.000 C 
ATOM     22  C   UNL     1       6.154  11.580  24.235  0.00  0.00    +0.000 C 
ATOM     23  O   UNL     1       5.425  12.641  24.864  0.00  0.00    +0.000 OA
ATOM     24  C   UNL     1       5.907  13.925  24.446  0.00  0.00    +0.000 C 
ATOM     25  C   UNL     1       7.416  14.067  24.728  0.00  0.00    +0.000 C 
ENDBRANCH  19  20
ENDBRANCH  18  19
ENDBRANCH  16  18
ENDBRANCH   3  13
BRANCH   8  26
ATOM     26  C   UNL     1       4.008   4.574  17.745  0.00  0.00    +0.000 C 
BRANCH  26  27
ATOM     27  C   UNL     1       2.820   4.024  18.504  0.00  0.00    +0.000 A 
ATOM     28  C   UNL     1       2.334   4.677  19.645  0.00  0.00    +0.000 A 
ATOM     29  C   UNL     1       1.247   4.154  20.347  0.00  0.00    +0.000 A 
ATOM     30  C   UNL     1       0.633   2.981  19.913  0.00  0.00    +0.000 A 
ATOM     31  C   UNL     1       1.096   2.334  18.769  0.00  0.00    +0.000 A 
ATOM     32  C   UNL     1       2.181   2.855  18.066  0.00  0.00    +0.000 A 
ENDBRANCH  26  27
ENDBRANCH   8  26
TORSDOF 6
ENDMDL
MODEL 2
REMARK VINA RESULT:      -8.1      2.620      4.095
REMARK  Name = 
REMARK  6 active torsions:
REMARK  status: ('A' for Active; 'I' for Inactive)
REMARK    1  A    between atoms: N_3  and  C_4
REMARK    2  A    between atoms: N_7  and  C_8
REMARK    3  A    between atoms: C_8  and  C_9
REMARK    4  A    between atoms: C_9  and  N_10
REMARK    5  A    between atoms: N_21  and  C_22
REMARK    6  A    between atoms: C_22  and  C_23
REMARK                            x       y       z     vdW  Elec       q    Type
REMARK                         _______ _______ _______ _____ _____    ______ ____
ROOT
ATOM      1  O   UNL     1       7.941  10.103  17.608  0.00  0.00    +0.000 OA
ATOM      2  C   UNL     1       8.387   9.176  18.282  0.00  0.00    +0.000 C 
ATOM      3  N   UNL     1       9.237   9.322  19.345  0.00  0.00    +0.000 N 
ATOM      4  N   UNL     1       8.091   7.859  17.985  0.00  0.00    +0.000 N 
ATOM      5  C   UNL     1       7.366   7.527  16.771  0.00  0.00    +0.000 C 
ATOM      6  C   UNL     1       6.560   6.302  17.132  0.00  0.00    +0.000 C 
ATOM      7  C   UNL     1       5.259   6.606  17.860  0.00  0.00    +0.000 C 
ATOM      8  N   UNL     1       5.001   5.395  18.661  0.00  0.00    +0.000 NA
ATOM      9  C   UNL     1       6.330   4.854  19.031  0.00  0.00    +0.000 C 
ATOM     10  C   UNL     1       7.378   5.599  18.208  0.00  0.00    +0.000 C 
ATOM     11  C   UNL     1       8.070   6.755  18.941  0.00  0.00    +0.000 C 
ATOM     12  H   UNL     1       9.805   8.529  19.593  0.00  0.00    +0.000 HD
ENDROOT
BRANCH   3  13
ATOM     13  C   UNL     1       9.649  10.552  19.825  0.00  0.00    +0.000 A 
ATOM     14  C   UNL     1       9.215  11.289  20.942  0.00  0.00    +0.000 A 
ATOM     15  N   UNL     1       9.844  12.462  21.046  0.00  0.00    +0.000 NA
ATOM     16  N   UNL     1      10.688  12.474  19.993  0.00  0.00    +0.000 N 
ATOM     17  C   UNL     1      10.626  11.329  19.246  0.00  0.00    +0.000 A 
BRANCH  16  18
ATOM     18  C   UNL     1      11.571  13.618  19.784  0.00  0.00    +0.000 C 
BRANCH  18  19
ATOM     19  C   UNL     1      11.174  14.376  18.511  0.00  0.00    +0.000 C 
BRANCH  19  20
ATOM     20  N   UNL     1      12.026  15.489  18.044  0.00  0.00    +0.000 NA
ATOM     21  C   UNL     1      12.243  16.563  19.032  0.00  0.00    +0.000 C 
ATOM     22  C   UNL     1      10.989  17.397  19.348  0.00  0.00    +0.000 C 
ATOM     23  O   UNL     1      10.395  17.940  18.163  0.00  0.00    +0.000 OA
ATOM     24  C   UNL     1      10.105  16.911  17.207  0.00  0.00    +0.000 C 
ATOM     25  C   UNL     1      11.375  16.111  16.855  0.00  0.00    +0.000 C 
ENDBRANCH  19  20
ENDBRANCH  18  19
ENDBRANCH  16  18
ENDBRANCH   3  13
BRANCH   8  26
ATOM     26  C   UNL     1       4.188   4.439  17.885  0.00  0.00    +0.000 C 
BRANCH  26  27
ATOM     27  C   UNL     1       2.961   3.947  18.621  0.00  0.00    +0.000 A 
ATOM     28  C   UNL     1       2.681   4.385  19.923  0.00  0.00    +0.000 A 
ATOM     29  C   UNL     1       1.555   3.914  20.599  0.00  0.00    +0.000 A 
ATOM     30  C   UNL     1       0.696   3.008  19.980  0.00  0.00    +0.000 A 
ATOM     31  C   UNL     1       0.953   2.580  18.679  0.00  0.00    +0.000 A 
ATOM     32  C   UNL     1       2.077   3.050  18.001  0.00  0.00    +0.000 A 
ENDBRANCH  26  27
ENDBRANCH   8  26
TORSDOF 6
ENDMDL
MODEL 3
REMARK VINA RESULT:      -8.1      2.404      3.408
REMARK  Name = 
REMARK  6 active torsions:
REMARK  status: ('A' for Active; 'I' for Inactive)
REMARK    1  A    between atoms: N_3  and  C_4
REMARK    2  A    between atoms: N_7  and  C_8
REMARK    3  A    between atoms: C_8  and  C_9
REMARK    4  A    between atoms: C_9  and  N_10
REMARK    5  A    between atoms: N_21  and  C_22
REMARK    6  A    between atoms: C_22  and  C_23
REMARK                            x       y       z     vdW  Elec       q    Type
REMARK                         _______ _______ _______ _____ _____    ______ ____
ROOT
ATOM      1  O   UNL     1       7.934  10.088  17.579  0.00  0.00    +0.000 OA
ATOM      2  C   UNL     1       8.374   9.166  18.264  0.00  0.00    +0.000 C 
ATOM      3  N   UNL     1       9.228   9.321  19.324  0.00  0.00    +0.000 N 
ATOM      4  N   UNL     1       8.068   7.848  17.987  0.00  0.00    +0.000 N 
ATOM      5  C   UNL     1       7.338   7.504  16.780  0.00  0.00    +0.000 C 
ATOM      6  C   UNL     1       6.523   6.291  17.161  0.00  0.00    +0.000 C 
ATOM      7  C   UNL     1       5.226   6.615  17.887  0.00  0.00    +0.000 C 
ATOM      8  N   UNL     1       4.961   5.417  18.706  0.00  0.00    +0.000 NA
ATOM      9  C   UNL     1       6.287   4.871  19.080  0.00  0.00    +0.000 C 
ATOM     10  C   UNL     1       7.338   5.597  18.244  0.00  0.00    +0.000 C 
ATOM     11  C   UNL     1       8.041   6.758  18.958  0.00  0.00    +0.000 C 
ATOM     12  H   UNL     1       9.791   8.527  19.582  0.00  0.00    +0.000 HD
ENDROOT
BRANCH   3  13
ATOM     13  C   UNL     1       9.652  10.555  19.785  0.00  0.00    +0.000 A 
ATOM     14  C   UNL     1       9.197  11.330  20.867  0.00  0.00    +0.000 A 
ATOM     15  N   UNL     1       9.847  12.492  20.962  0.00  0.00    +0.000 NA
ATOM     16  N   UNL     1      10.726  12.458  19.938  0.00  0.00    +0.000 N 
ATOM     17  C   UNL     1      10.664  11.295  19.220  0.00  0.00    +0.000 A 
BRANCH  16  18
ATOM     18  C   UNL     1      11.640  13.577  19.728  0.00  0.00    +0.000 C 
BRANCH  18  19
ATOM     19  C   UNL     1      10.953  14.904  20.077  0.00  0.00    +0.000 C 
BRANCH  19  20
ATOM     20  N   UNL     1      10.804  15.931  19.026  0.00  0.00    +0.000 NA
ATOM     21  C   UNL     1       9.994  17.103  19.411  0.00  0.00    +0.000 C 
ATOM     22  C   UNL     1       8.497  16.802  19.603  0.00  0.00    +0.000 C 
ATOM     23  O   UNL     1       7.925  16.173  18.450  0.00  0.00    +0.000 OA
ATOM     24  C   UNL     1       8.649  14.989  18.089  0.00  0.00    +0.000 C 
ATOM     25  C   UNL     1      10.139  15.304  17.848  0.00  0.00    +0.000 C 
ENDBRANCH  19  20
ENDBRANCH  18  19
ENDBRANCH  16  18
ENDBRANCH   3  13
BRANCH   8  26
ATOM     26  C   UNL     1       4.139   4.456  17.945  0.00  0.00    +0.000 C 
BRANCH  26  27
ATOM     27  C   UNL     1       2.909   3.984  18.691  0.00  0.00    +0.000 A 
ATOM     28  C   UNL     1       2.664   4.403  20.006  0.00  0.00    +0.000 A 
ATOM     29  C   UNL     1       1.536   3.950  20.691  0.00  0.00    +0.000 A 
ATOM     30  C   UNL     1       0.641   3.083  20.068  0.00  0.00    +0.000 A 
ATOM     31  C   UNL     1       0.865   2.675  18.755  0.00  0.00    +0.000 A 
ATOM     32  C   UNL     1       1.991   3.126  18.068  0.00  0.00    +0.000 A 
ENDBRANCH  26  27
ENDBRANCH   8  26
TORSDOF 6
ENDMDL
MODEL 4
REMARK VINA RESULT:      -8.1      2.438      4.081
REMARK  Name = 
REMARK  6 active torsions:
REMARK  status: ('A' for Active; 'I' for Inactive)
REMARK    1  A    between atoms: N_3  and  C_4
REMARK    2  A    between atoms: N_7  and  C_8
REMARK    3  A    between atoms: C_8  and  C_9
REMARK    4  A    between atoms: C_9  and  N_10
REMARK    5  A    between atoms: N_21  and  C_22
REMARK    6  A    between atoms: C_22  and  C_23
REMARK                            x       y       z     vdW  Elec       q    Type
REMARK                         _______ _______ _______ _____ _____    ______ ____
ROOT
ATOM      1  O   UNL     1       7.979  10.056  17.596  0.00  0.00    +0.000 OA
ATOM      2  C   UNL     1       8.402   9.139  18.299  0.00  0.00    +0.000 C 
ATOM      3  N   UNL     1       9.240   9.300  19.370  0.00  0.00    +0.000 N 
ATOM      4  N   UNL     1       8.091   7.820  18.031  0.00  0.00    +0.000 N 
ATOM      5  C   UNL     1       7.379   7.467  16.816  0.00  0.00    +0.000 C 
ATOM      6  C   UNL     1       6.551   6.263  17.197  0.00  0.00    +0.000 C 
ATOM      7  C   UNL     1       5.244   6.603  17.899  0.00  0.00    +0.000 C 
ATOM      8  N   UNL     1       4.958   5.416  18.726  0.00  0.00    +0.000 NA
ATOM      9  C   UNL     1       6.275   4.866  19.127  0.00  0.00    +0.000 C 
ATOM     10  C   UNL     1       7.344   5.576  18.301  0.00  0.00    +0.000 C 
ATOM     11  C   UNL     1       8.043   6.741  19.013  0.00  0.00    +0.000 C 
ATOM     12  H   UNL     1       9.794   8.507  19.645  0.00  0.00    +0.000 HD
ENDROOT
BRANCH   3  13
ATOM     13  C   UNL     1       9.663  10.537  19.824  0.00  0.00    +0.000 A 
ATOM     14  C   UNL     1       9.209  11.318  20.903  0.00  0.00    +0.000 A 
ATOM     15  N   UNL     1       9.860  12.480  20.991  0.00  0.00    +0.000 NA
ATOM     16  N   UNL     1      10.737  12.441  19.966  0.00  0.00    +0.000 N 
ATOM     17  C   UNL     1      10.675  11.274  19.254  0.00  0.00    +0.000 A 
BRANCH  16  18
ATOM     18  C   UNL     1      11.652  13.559  19.751  0.00  0.00    +0.000 C 
BRANCH  18  19
ATOM     19  C   UNL     1      10.910  14.894  19.896  0.00  0.00    +0.000 C 
BRANCH  19  20
ATOM     20  N   UNL     1      11.587  16.139  19.480  0.00  0.00    +0.000 NA
ATOM     21  C   UNL     1      10.704  17.313  19.344  0.00  0.00    +0.000 C 
ATOM     22  C   UNL     1       9.713  17.227  18.169  0.00  0.00    +0.000 C 
ATOM     23  O   UNL     1      10.378  16.973  16.926  0.00  0.00    +0.000 OA
ATOM     24  C   UNL     1      11.193  15.796  17.002  0.00  0.00    +0.000 C 
ATOM     25  C   UNL     1      12.218  15.907  18.149  0.00  0.00    +0.000 C 
ENDBRANCH  19  20
ENDBRANCH  18  19
ENDBRANCH  16  18
ENDBRANCH   3  13
BRANCH   8  26
ATOM     26  C   UNL     1       4.143   4.452  17.963  0.00  0.00    +0.000 C 
BRANCH  26  27
ATOM     27  C   UNL     1       2.911   3.977  18.704  0.00  0.00    +0.000 A 
ATOM     28  C   UNL     1       2.075   2.997  18.152  0.00  0.00    +0.000 A 
ATOM     29  C   UNL     1       0.934   2.577  18.836  0.00  0.00    +0.000 A 
ATOM     30  C   UNL     1       0.622   3.126  20.078  0.00  0.00    +0.000 A 
ATOM     31  C   UNL     1       1.455   4.088  20.645  0.00  0.00    +0.000 A 
ATOM     32  C   UNL     1       2.597   4.508  19.964  0.00  0.00    +0.000 A 
ENDBRANCH  26  27
ENDBRANCH   8  26
TORSDOF 6
ENDMDL
MODEL 5
REMARK VINA RESULT:      -8.1      2.339      3.440
REMARK  Name = 
REMARK  6 active torsions:
REMARK  status: ('A' for Active; 'I' for Inactive)
REMARK    1  A    between atoms: N_3  and  C_4
REMARK    2  A    between atoms: N_7  and  C_8
REMARK    3  A    between atoms: C_8  and  C_9
REMARK    4  A    between atoms: C_9  and  N_10
REMARK    5  A    between atoms: N_21  and  C_22
REMARK    6  A    between atoms: C_22  and  C_23
REMARK                            x       y       z     vdW  Elec       q    Type
REMARK                         _______ _______ _______ _____ _____    ______ ____
ROOT
ATOM      1  O   UNL     1       7.947  10.111  17.606  0.00  0.00    +0.000 OA
ATOM      2  C   UNL     1       8.392   9.187  18.286  0.00  0.00    +0.000 C 
ATOM      3  N   UNL     1       9.241   9.340  19.350  0.00  0.00    +0.000 N 
ATOM      4  N   UNL     1       8.099   7.869  17.997  0.00  0.00    +0.000 N 
ATOM      5  C   UNL     1       7.377   7.529  16.783  0.00  0.00    +0.000 C 
ATOM      6  C   UNL     1       6.572   6.305  17.150  0.00  0.00    +0.000 C 
ATOM      7  C   UNL     1       5.268   6.612  17.873  0.00  0.00    +0.000 C 
ATOM      8  N   UNL     1       5.010   5.405  18.680  0.00  0.00    +0.000 NA
ATOM      9  C   UNL     1       6.339   4.867  19.056  0.00  0.00    +0.000 C 
ATOM     10  C   UNL     1       7.388   5.609  18.231  0.00  0.00    +0.000 C 
ATOM     11  C   UNL     1       8.078   6.770  18.958  0.00  0.00    +0.000 C 
ATOM     12  H   UNL     1       9.809   8.550  19.604  0.00  0.00    +0.000 HD
ENDROOT
BRANCH   3  13
ATOM     13  C   UNL     1       9.651  10.574  19.824  0.00  0.00    +0.000 A 
ATOM     14  C   UNL     1       9.223  11.311  20.943  0.00  0.00    +0.000 A 
ATOM     15  N   UNL     1       9.846  12.487  21.039  0.00  0.00    +0.000 NA
ATOM     16  N   UNL     1      10.680  12.501  19.978  0.00  0.00    +0.000 N 
ATOM     17  C   UNL     1      10.618  11.355  19.235  0.00  0.00    +0.000 A 
BRANCH  16  18
ATOM     18  C   UNL     1      11.556  13.650  19.759  0.00  0.00    +0.000 C 
BRANCH  18  19
ATOM     19  C   UNL     1      11.004  14.538  18.636  0.00  0.00    +0.000 C 
BRANCH  19  20
ATOM     20  N   UNL     1      10.730  15.962  18.918  0.00  0.00    +0.000 NA
ATOM     21  C   UNL     1       9.958  16.215  20.149  0.00  0.00    +0.000 C 
ATOM     22  C   UNL     1       8.494  15.744  20.086  0.00  0.00    +0.000 C 
ATOM     23  O   UNL     1       7.803  16.292  18.957  0.00  0.00    +0.000 OA
ATOM     24  C   UNL     1       8.492  16.002  17.733  0.00  0.00    +0.000 C 
ATOM     25  C   UNL     1       9.944  16.521  17.781  0.00  0.00    +0.000 C 
ENDBRANCH  19  20
ENDBRANCH  18  19
ENDBRANCH  16  18
ENDBRANCH   3  13
BRANCH   8  26
ATOM     26  C   UNL     1       4.200   4.443  17.908  0.00  0.00    +0.000 C 
BRANCH  26  27
ATOM     27  C   UNL     1       2.957   3.975  18.634  0.00  0.00    +0.000 A 
ATOM     28  C   UNL     1       2.127   2.994  18.076  0.00  0.00    +0.000 A 
ATOM     29  C   UNL     1       0.975   2.579  18.745  0.00  0.00    +0.000 A 
ATOM     30  C   UNL     1       0.646   3.136  19.980  0.00  0.00    +0.000 A 
ATOM     31  C   UNL     1       1.473   4.099  20.554  0.00  0.00    +0.000 A 
ATOM     32  C   UNL     1       2.625   4.514  19.886  0.00  0.00    +0.000 A 
ENDBRANCH  26  27
ENDBRANCH   8  26
TORSDOF 6
ENDMDL
MODEL 6
REMARK VINA RESULT:      -7.9      2.198      2.838
REMARK  Name = 
REMARK  6 active torsions:
REMARK  status: ('A' for Active; 'I' for Inactive)
REMARK    1  A    between atoms: N_3  and  C_4
REMARK    2  A    between atoms: N_7  and  C_8
REMARK    3  A    between atoms: C_8  and  C_9
REMARK    4  A    between atoms: C_9  and  N_10
REMARK    5  A    between atoms: N_21  and  C_22
REMARK    6  A    between atoms: C_22  and  C_23
REMARK                            x       y       z     vdW  Elec       q    Type
REMARK                         _______ _______ _______ _____ _____    ______ ____
ROOT
ATOM      1  O   UNL     1       7.982  10.066  17.508  0.00  0.00    +0.000 OA
ATOM      2  C   UNL     1       8.393   9.161  18.233  0.00  0.00    +0.000 C 
ATOM      3  N   UNL     1       9.215   9.339  19.313  0.00  0.00    +0.000 N 
ATOM      4  N   UNL     1       8.083   7.838  17.984  0.00  0.00    +0.000 N 
ATOM      5  C   UNL     1       7.386   7.465  16.765  0.00  0.00    +0.000 C 
ATOM      6  C   UNL     1       6.550   6.270  17.154  0.00  0.00    +0.000 C 
ATOM      7  C   UNL     1       5.234   6.626  17.831  0.00  0.00    +0.000 C 
ATOM      8  N   UNL     1       4.933   5.454  18.675  0.00  0.00    +0.000 NA
ATOM      9  C   UNL     1       6.242   4.908  19.105  0.00  0.00    +0.000 C 
ATOM     10  C   UNL     1       7.325   5.601  18.282  0.00  0.00    +0.000 C 
ATOM     11  C   UNL     1       8.017   6.776  18.984  0.00  0.00    +0.000 C 
ATOM     12  H   UNL     1       9.763   8.549  19.610  0.00  0.00    +0.000 HD
ENDROOT
BRANCH   3  13
ATOM     13  C   UNL     1       9.636  10.582  19.751  0.00  0.00    +0.000 A 
ATOM     14  C   UNL     1      10.707  11.387  19.323  0.00  0.00    +0.000 A 
ATOM     15  N   UNL     1      10.803  12.515  20.031  0.00  0.00    +0.000 NA
ATOM     16  N   UNL     1       9.785  12.433  20.913  0.00  0.00    +0.000 N 
ATOM     17  C   UNL     1       9.036  11.298  20.761  0.00  0.00    +0.000 A 
BRANCH  16  18
ATOM     18  C   UNL     1       9.560  13.519  21.864  0.00  0.00    +0.000 C 
BRANCH  18  19
ATOM     19  C   UNL     1       9.691  14.878  21.165  0.00  0.00    +0.000 C 
BRANCH  19  20
ATOM     20  N   UNL     1       8.465  15.616  20.797  0.00  0.00    +0.000 NA
ATOM     21  C   UNL     1       7.483  14.839  20.016  0.00  0.00    +0.000 C 
ATOM     22  C   UNL     1       7.941  14.493  18.587  0.00  0.00    +0.000 C 
ATOM     23  O   UNL     1       8.332  15.661  17.854  0.00  0.00    +0.000 OA
ATOM     24  C   UNL     1       9.339  16.403  18.554  0.00  0.00    +0.000 C 
ATOM     25  C   UNL     1       8.857  16.790  19.967  0.00  0.00    +0.000 C 
ENDBRANCH  19  20
ENDBRANCH  18  19
ENDBRANCH  16  18
ENDBRANCH   3  13
BRANCH   8  26
ATOM     26  C   UNL     1       4.126   4.479  17.918  0.00  0.00    +0.000 C 
BRANCH  26  27
ATOM     27  C   UNL     1       2.892   4.008  18.656  0.00  0.00    +0.000 A 
ATOM     28  C   UNL     1       2.533   4.573  19.887  0.00  0.00    +0.000 A 
ATOM     29  C   UNL     1       1.401   4.122  20.567  0.00  0.00    +0.000 A 
ATOM     30  C   UNL     1       0.615   3.109  20.021  0.00  0.00    +0.000 A 
ATOM     31  C   UNL     1       0.952   2.552  18.789  0.00  0.00    +0.000 A 
ATOM     32  C   UNL     1       2.081   3.002  18.107  0.00  0.00    +0.000 A 
ENDBRANCH  26  27
ENDBRANCH   8  26
TORSDOF 6
ENDMDL
MODEL 7
REMARK VINA RESULT:      -7.8      0.539      1.326
REMARK  Name = 
REMARK  6 active torsions:
REMARK  status: ('A' for Active; 'I' for Inactive)
REMARK    1  A    between atoms: N_3  and  C_4
REMARK    2  A    between atoms: N_7  and  C_8
REMARK    3  A    between atoms: C_8  and  C_9
REMARK    4  A    between atoms: C_9  and  N_10
REMARK    5  A    between atoms: N_21  and  C_22
REMARK    6  A    between atoms: C_22  and  C_23
REMARK                            x       y       z     vdW  Elec       q    Type
REMARK                         _______ _______ _______ _____ _____    ______ ____
ROOT
ATOM      1  O   UNL     1       8.019  10.160  17.611  0.00  0.00    +0.000 OA
ATOM      2  C   UNL     1       8.442   9.234  18.300  0.00  0.00    +0.000 C 
ATOM      3  N   UNL     1       9.264   9.381  19.385  0.00  0.00    +0.000 N 
ATOM      4  N   UNL     1       8.147   7.917  18.003  0.00  0.00    +0.000 N 
ATOM      5  C   UNL     1       7.453   7.582  16.772  0.00  0.00    +0.000 C 
ATOM      6  C   UNL     1       6.632   6.363  17.118  0.00  0.00    +0.000 C 
ATOM      7  C   UNL     1       5.313   6.677  17.809  0.00  0.00    +0.000 C 
ATOM      8  N   UNL     1       5.028   5.471  18.609  0.00  0.00    +0.000 NA
ATOM      9  C   UNL     1       6.345   4.926  19.016  0.00  0.00    +0.000 C 
ATOM     10  C   UNL     1       7.418   5.662  18.218  0.00  0.00    +0.000 C 
ATOM     11  C   UNL     1       8.096   6.818  18.963  0.00  0.00    +0.000 C 
ATOM     12  H   UNL     1       9.822   8.587  19.652  0.00  0.00    +0.000 HD
ENDROOT
BRANCH   3  13
ATOM     13  C   UNL     1       9.670  10.612  19.869  0.00  0.00    +0.000 A 
ATOM     14  C   UNL     1      10.780  11.406  19.528  0.00  0.00    +0.000 A 
ATOM     15  N   UNL     1      10.842  12.523  20.257  0.00  0.00    +0.000 NA
ATOM     16  N   UNL     1       9.764  12.445  21.065  0.00  0.00    +0.000 N 
ATOM     17  C   UNL     1       9.011  11.324  20.844  0.00  0.00    +0.000 A 
BRANCH  16  18
ATOM     18  C   UNL     1       9.488  13.523  22.012  0.00  0.00    +0.000 C 
BRANCH  18  19
ATOM     19  C   UNL     1       8.694  12.991  23.212  0.00  0.00    +0.000 C 
BRANCH  19  20
ATOM     20  N   UNL     1       7.319  13.482  23.436  0.00  0.00    +0.000 NA
ATOM     21  C   UNL     1       7.117  14.207  24.705  0.00  0.00    +0.000 C 
ATOM     22  C   UNL     1       7.217  13.325  25.962  0.00  0.00    +0.000 C 
ATOM     23  O   UNL     1       6.331  12.200  25.898  0.00  0.00    +0.000 OA
ATOM     24  C   UNL     1       6.550  11.432  24.708  0.00  0.00    +0.000 C 
ATOM     25  C   UNL     1       6.399  12.309  23.449  0.00  0.00    +0.000 C 
ENDBRANCH  19  20
ENDBRANCH  18  19
ENDBRANCH  16  18
ENDBRANCH   3  13
BRANCH   8  26
ATOM     26  C   UNL     1       4.232   4.515  17.817  0.00  0.00    +0.000 C 
BRANCH  26  27
ATOM     27  C   UNL     1       3.017   3.984  18.547  0.00  0.00    +0.000 A 
ATOM     28  C   UNL     1       2.265   2.927  18.016  0.00  0.00    +0.000 A 
ATOM     29  C   UNL     1       1.139   2.455  18.689  0.00  0.00    +0.000 A 
ATOM     30  C   UNL     1       0.757   3.027  19.901  0.00  0.00    +0.000 A 
ATOM     31  C   UNL     1       1.507   4.066  20.448  0.00  0.00    +0.000 A 
ATOM     32  C   UNL     1       2.634   4.539  19.778  0.00  0.00    +0.000 A 
ENDBRANCH  26  27
ENDBRANCH   8  26
TORSDOF 6
ENDMDL
MODEL 8
REMARK VINA RESULT:      -7.7      0.752      1.127
REMARK  Name = 
REMARK  6 active torsions:
REMARK  status: ('A' for Active; 'I' for Inactive)
REMARK    1  A    between atoms: N_3  and  C_4
REMARK    2  A    between atoms: N_7  and  C_8
REMARK    3  A    between atoms: C_8  and  C_9
REMARK    4  A    between atoms: C_9  and  N_10
REMARK    5  A    between atoms: N_21  and  C_22
REMARK    6  A    between atoms: C_22  and  C_23
REMARK                            x       y       z     vdW  Elec       q    Type
REMARK                         _______ _______ _______ _____ _____    ______ ____
ROOT
ATOM      1  O   UNL     1       7.868  10.027  17.500  0.00  0.00    +0.000 OA
ATOM      2  C   UNL     1       8.307   9.111  18.192  0.00  0.00    +0.000 C 
ATOM      3  N   UNL     1       9.158   9.273  19.253  0.00  0.00    +0.000 N 
ATOM      4  N   UNL     1       8.003   7.791  17.922  0.00  0.00    +0.000 N 
ATOM      5  C   UNL     1       7.277   7.438  16.715  0.00  0.00    +0.000 C 
ATOM      6  C   UNL     1       6.463   6.226  17.100  0.00  0.00    +0.000 C 
ATOM      7  C   UNL     1       5.163   6.553  17.821  0.00  0.00    +0.000 C 
ATOM      8  N   UNL     1       4.897   5.360  18.646  0.00  0.00    +0.000 NA
ATOM      9  C   UNL     1       6.223   4.818  19.027  0.00  0.00    +0.000 C 
ATOM     10  C   UNL     1       7.276   5.540  18.191  0.00  0.00    +0.000 C 
ATOM     11  C   UNL     1       7.976   6.706  18.900  0.00  0.00    +0.000 C 
ATOM     12  H   UNL     1       9.721   8.482  19.517  0.00  0.00    +0.000 HD
ENDROOT
BRANCH   3  13
ATOM     13  C   UNL     1       9.578  10.511  19.708  0.00  0.00    +0.000 A 
ATOM     14  C   UNL     1      10.567  11.378  19.210  0.00  0.00    +0.000 A 
ATOM     15  N   UNL     1      10.698  12.474  19.960  0.00  0.00    +0.000 NA
ATOM     16  N   UNL     1       9.786  12.309  20.941  0.00  0.00    +0.000 N 
ATOM     17  C   UNL     1       9.065  11.153  20.811  0.00  0.00    +0.000 A 
BRANCH  16  18
ATOM     18  C   UNL     1       9.625  13.339  21.964  0.00  0.00    +0.000 C 
BRANCH  18  19
ATOM     19  C   UNL     1       8.644  12.871  23.047  0.00  0.00    +0.000 C 
BRANCH  19  20
ATOM     20  N   UNL     1       7.790  13.871  23.720  0.00  0.00    +0.000 NA
ATOM     21  C   UNL     1       8.429  14.575  24.848  0.00  0.00    +0.000 C 
ATOM     22  C   UNL     1       8.700  13.689  26.077  0.00  0.00    +0.000 C 
ATOM     23  O   UNL     1       7.514  13.023  26.528  0.00  0.00    +0.000 OA
ATOM     24  C   UNL     1       6.904  12.270  25.471  0.00  0.00    +0.000 C 
ATOM     25  C   UNL     1       6.589  13.173  24.261  0.00  0.00    +0.000 C 
ENDBRANCH  19  20
ENDBRANCH  18  19
ENDBRANCH  16  18
ENDBRANCH   3  13
BRANCH   8  26
ATOM     26  C   UNL     1       4.079   4.393  17.889  0.00  0.00    +0.000 C 
BRANCH  26  27
ATOM     27  C   UNL     1       2.859   3.909  18.642  0.00  0.00    +0.000 A 
ATOM     28  C   UNL     1       2.551   4.416  19.912  0.00  0.00    +0.000 A 
ATOM     29  C   UNL     1       1.432   3.953  20.604  0.00  0.00    +0.000 A 
ATOM     30  C   UNL     1       0.609   2.985  20.034  0.00  0.00    +0.000 A 
ATOM     31  C   UNL     1       0.894   2.486  18.765  0.00  0.00    +0.000 A 
ATOM     32  C   UNL     1       2.011   2.948  18.070  0.00  0.00    +0.000 A 
ENDBRANCH  26  27
ENDBRANCH   8  26
TORSDOF 6
ENDMDL
MODEL 9
REMARK VINA RESULT:      -7.5      2.153      2.988
REMARK  Name = 
REMARK  6 active torsions:
REMARK  status: ('A' for Active; 'I' for Inactive)
REMARK    1  A    between atoms: N_3  and  C_4
REMARK    2  A    between atoms: N_7  and  C_8
REMARK    3  A    between atoms: C_8  and  C_9
REMARK    4  A    between atoms: C_9  and  N_10
REMARK    5  A    between atoms: N_21  and  C_22
REMARK    6  A    between atoms: C_22  and  C_23
REMARK                            x       y       z     vdW  Elec       q    Type
REMARK                         _______ _______ _______ _____ _____    ______ ____
ROOT
ATOM      1  O   UNL     1       8.102  10.052  17.422  0.00  0.00    +0.000 OA
ATOM      2  C   UNL     1       8.431   9.150  18.190  0.00  0.00    +0.000 C 
ATOM      3  N   UNL     1       9.204   9.319  19.308  0.00  0.00    +0.000 N 
ATOM      4  N   UNL     1       8.072   7.836  17.958  0.00  0.00    +0.000 N 
ATOM      5  C   UNL     1       7.423   7.463  16.713  0.00  0.00    +0.000 C 
ATOM      6  C   UNL     1       6.512   6.318  17.087  0.00  0.00    +0.000 C 
ATOM      7  C   UNL     1       5.181   6.752  17.684  0.00  0.00    +0.000 C 
ATOM      8  N   UNL     1       4.782   5.619  18.539  0.00  0.00    +0.000 NA
ATOM      9  C   UNL     1       6.039   5.026  19.052  0.00  0.00    +0.000 C 
ATOM     10  C   UNL     1       7.195   5.645  18.271  0.00  0.00    +0.000 C 
ATOM     11  C   UNL     1       7.904   6.806  18.979  0.00  0.00    +0.000 C 
ATOM     12  H   UNL     1       9.697   8.513  19.654  0.00  0.00    +0.000 HD
ENDROOT
BRANCH   3  13
ATOM     13  C   UNL     1       9.659  10.553  19.737  0.00  0.00    +0.000 A 
ATOM     14  C   UNL     1      10.771  11.310  19.325  0.00  0.00    +0.000 A 
ATOM     15  N   UNL     1      10.891  12.445  20.017  0.00  0.00    +0.000 NA
ATOM     16  N   UNL     1       9.847  12.417  20.872  0.00  0.00    +0.000 N 
ATOM     17  C   UNL     1       9.060  11.309  20.718  0.00  0.00    +0.000 A 
BRANCH  16  18
ATOM     18  C   UNL     1       9.638  13.527  21.799  0.00  0.00    +0.000 C 
BRANCH  18  19
ATOM     19  C   UNL     1       8.813  14.634  21.130  0.00  0.00    +0.000 C 
BRANCH  19  20
ATOM     20  N   UNL     1       8.613  14.595  19.667  0.00  0.00    +0.000 NA
ATOM     21  C   UNL     1       9.272  15.683  18.920  0.00  0.00    +0.000 C 
ATOM     22  C   UNL     1       8.665  17.077  19.163  0.00  0.00    +0.000 C 
ATOM     23  O   UNL     1       7.255  17.097  18.910  0.00  0.00    +0.000 OA
ATOM     24  C   UNL     1       6.573  16.095  19.675  0.00  0.00    +0.000 C 
ATOM     25  C   UNL     1       7.151  14.694  19.391  0.00  0.00    +0.000 C 
ENDBRANCH  19  20
ENDBRANCH  18  19
ENDBRANCH  16  18
ENDBRANCH   3  13
BRANCH   8  26
ATOM     26  C   UNL     1       3.970   4.661  17.764  0.00  0.00    +0.000 C 
BRANCH  26  27
ATOM     27  C   UNL     1       2.816   4.071  18.545  0.00  0.00    +0.000 A 
ATOM     28  C   UNL     1       2.270   2.830  18.190  0.00  0.00    +0.000 A 
ATOM     29  C   UNL     1       1.197   2.300  18.907  0.00  0.00    +0.000 A 
ATOM     30  C   UNL     1       0.665   3.001  19.988  0.00  0.00    +0.000 A 
ATOM     31  C   UNL     1       1.211   4.227  20.362  0.00  0.00    +0.000 A 
ATOM     32  C   UNL     1       2.284   4.757  19.647  0.00  0.00    +0.000 A 
ENDBRANCH  26  27
ENDBRANCH   8  26
TORSDOF 6
ENDMDL
