MODEL 1
REMARK VINA RESULT:      -8.6      0.000      0.000
REMARK  Name = 
REMARK  7 active torsions:
REMARK  status: ('A' for Active; 'I' for Inactive)
REMARK    1  A    between atoms: C_1  and  N_2
REMARK    2  A    between atoms: C_3  and  C_5
REMARK    3  A    between atoms: C_7  and  C_8
REMARK    4  A    between atoms: C_11  and  N_12
REMARK    5  A    between atoms: N_12  and  C_13
REMARK    6  A    between atoms: C_13  and  C_14
REMARK    7  A    between atoms: C_17  and  C_18
REMARK                            x       y       z     vdW  Elec       q    Type
REMARK                         _______ _______ _______ _____ _____    ______ ____
ROOT
ATOM      1  C   UNL     1       2.124   8.932  18.272  0.00  0.00    +0.000 C 
ENDROOT
BRANCH   1   2
ATOM      2  C   UNL     1       2.244   7.475  18.609  0.00  0.00    +0.000 A 
ATOM      3  N   UNL     1       2.447   7.030  19.856  0.00  0.00    +0.000 NA
ATOM      4  O   UNL     1       2.930   5.732  19.652  0.00  0.00    +0.000 OA
ATOM      5  C   UNL     1       2.957   5.527  18.298  0.00  0.00    +0.000 A 
ATOM      6  N   UNL     1       2.505   6.556  17.617  0.00  0.00    +0.000 NA
BRANCH   5   7
ATOM      7  C   UNL     1       3.613   4.286  17.771  0.00  0.00    +0.000 C 
ATOM      8  C   UNL     1       4.246   3.416  18.856  0.00  0.00    +0.000 C 
ATOM      9  O   UNL     1       5.408   3.994  19.463  0.00  0.00    +0.000 OA
ATOM     10  C   UNL     1       6.063   4.886  18.657  0.00  0.00    +0.000 A 
ATOM     11  C   UNL     1       7.092   5.615  19.243  0.00  0.00    +0.000 A 
ATOM     12  C   UNL     1       7.724   6.626  18.516  0.00  0.00    +0.000 A 
ATOM     13  C   UNL     1       7.370   6.865  17.187  0.00  0.00    +0.000 A 
ATOM     14  C   UNL     1       6.370   6.106  16.583  0.00  0.00    +0.000 A 
ATOM     15  C   UNL     1       5.694   5.151  17.336  0.00  0.00    +0.000 A 
ATOM     16  O   UNL     1       4.580   4.599  16.757  0.00  0.00    +0.000 OA
ENDBRANCH   5   7
ENDBRANCH   1   2
BRANCH   1  17
ATOM     17  N   UNL     1       0.836   9.513  17.832  0.00  0.00    +0.000 N 
ATOM     18  H   UNL     1       0.191   8.758  17.587  0.00  0.00    +0.000 HD
BRANCH  17  25
ATOM     19  C   UNL     1      -1.093  10.833  18.701  0.00  0.00    +0.000 A 
ATOM     20  C   UNL     1      -1.631  11.683  19.692  0.00  0.00    +0.000 A 
ATOM     21  C   UNL     1      -0.856  12.138  20.763  0.00  0.00    +0.000 A 
ATOM     22  C   UNL     1      -1.434  13.018  21.829  0.00  0.00    +0.000 C 
ATOM     23  C   UNL     1       0.476  11.744  20.830  0.00  0.00    +0.000 A 
ATOM     24  C   UNL     1       1.017  10.909  19.851  0.00  0.00    +0.000 A 
ATOM     25  C   UNL     1       0.243  10.382  18.794  0.00  0.00    +0.000 A 
BRANCH  19  28
ATOM     26  C   UNL     1      -3.028  10.898  15.452  0.00  0.00    +0.000 C 
ATOM     27  N   UNL     1      -2.009  11.129  16.450  0.00  0.00    +0.000 N 
ATOM     28  C   UNL     1      -2.050  10.424  17.635  0.00  0.00    +0.000 C 
ATOM     29  O   UNL     1      -2.857   9.525  17.849  0.00  0.00    +0.000 OA
ATOM     30  H   UNL     1      -1.481  11.997  16.438  0.00  0.00    +0.000 HD
ENDBRANCH  19  28
ENDBRANCH  17  25
ENDBRANCH   1  17
TORSDOF 5
ENDMDL
MODEL 2
REMARK VINA RESULT:      -8.5      1.205      2.945
REMARK  Name = 
REMARK  7 active torsions:
REMARK  status: ('A' for Active; 'I' for Inactive)
REMARK    1  A    between atoms: C_1  and  N_2
REMARK    2  A    between atoms: C_3  and  C_5
REMARK    3  A    between atoms: C_7  and  C_8
REMARK    4  A    between atoms: C_11  and  N_12
REMARK    5  A    between atoms: N_12  and  C_13
REMARK    6  A    between atoms: C_13  and  C_14
REMARK    7  A    between atoms: C_17  and  C_18
REMARK                            x       y       z     vdW  Elec       q    Type
REMARK                         _______ _______ _______ _____ _____    ______ ____
ROOT
ATOM      1  C   UNL     1       2.108   9.386  17.869  0.00  0.00    +0.000 C 
ENDROOT
BRANCH   1   2
ATOM      2  C   UNL     1       2.443   8.004  18.343  0.00  0.00    +0.000 A 
ATOM      3  N   UNL     1       2.139   7.560  19.571  0.00  0.00    +0.000 NA
ATOM      4  O   UNL     1       2.992   6.462  19.728  0.00  0.00    +0.000 OA
ATOM      5  C   UNL     1       3.716   6.352  18.570  0.00  0.00    +0.000 A 
ATOM      6  N   UNL     1       3.383   7.253  17.673  0.00  0.00    +0.000 NA
BRANCH   5   7
ATOM      7  C   UNL     1       4.853   5.375  18.522  0.00  0.00    +0.000 C 
ATOM      8  C   UNL     1       5.020   4.692  17.166  0.00  0.00    +0.000 C 
ATOM      9  O   UNL     1       3.972   3.769  16.844  0.00  0.00    +0.000 OA
ATOM     10  C   UNL     1       3.346   3.244  17.943  0.00  0.00    +0.000 A 
ATOM     11  C   UNL     1       2.207   2.482  17.706  0.00  0.00    +0.000 A 
ATOM     12  C   UNL     1       1.451   2.016  18.783  0.00  0.00    +0.000 A 
ATOM     13  C   UNL     1       1.866   2.258  20.093  0.00  0.00    +0.000 A 
ATOM     14  C   UNL     1       3.030   2.984  20.334  0.00  0.00    +0.000 A 
ATOM     15  C   UNL     1       3.738   3.509  19.257  0.00  0.00    +0.000 A 
ATOM     16  O   UNL     1       4.740   4.394  19.564  0.00  0.00    +0.000 OA
ENDBRANCH   5   7
ENDBRANCH   1   2
BRANCH   1  17
ATOM     17  N   UNL     1       0.711   9.776  17.569  0.00  0.00    +0.000 N 
ATOM     18  H   UNL     1       0.162   8.937  17.371  0.00  0.00    +0.000 HD
BRANCH  17  25
ATOM     19  C   UNL     1      -1.269  10.903  18.583  0.00  0.00    +0.000 A 
ATOM     20  C   UNL     1      -1.825  11.651  19.644  0.00  0.00    +0.000 A 
ATOM     21  C   UNL     1      -1.044  12.092  20.715  0.00  0.00    +0.000 A 
ATOM     22  C   UNL     1      -1.641  12.863  21.853  0.00  0.00    +0.000 C 
ATOM     23  C   UNL     1       0.313  11.789  20.714  0.00  0.00    +0.000 A 
ATOM     24  C   UNL     1       0.872  11.055  19.666  0.00  0.00    +0.000 A 
ATOM     25  C   UNL     1       0.097  10.541  18.604  0.00  0.00    +0.000 A 
BRANCH  19  28
ATOM     26  C   UNL     1      -3.278  11.004  15.381  0.00  0.00    +0.000 C 
ATOM     27  N   UNL     1      -2.246  11.238  16.364  0.00  0.00    +0.000 N 
ATOM     28  C   UNL     1      -2.234  10.494  17.525  0.00  0.00    +0.000 C 
ATOM     29  O   UNL     1      -3.004   9.561  17.726  0.00  0.00    +0.000 OA
ATOM     30  H   UNL     1      -1.750  12.124  16.369  0.00  0.00    +0.000 HD
ENDBRANCH  19  28
ENDBRANCH  17  25
ENDBRANCH   1  17
TORSDOF 5
ENDMDL
MODEL 3
REMARK VINA RESULT:      -8.5      2.314      2.788
REMARK  Name = 
REMARK  7 active torsions:
REMARK  status: ('A' for Active; 'I' for Inactive)
REMARK    1  A    between atoms: C_1  and  N_2
REMARK    2  A    between atoms: C_3  and  C_5
REMARK    3  A    between atoms: C_7  and  C_8
REMARK    4  A    between atoms: C_11  and  N_12
REMARK    5  A    between atoms: N_12  and  C_13
REMARK    6  A    between atoms: C_13  and  C_14
REMARK    7  A    between atoms: C_17  and  C_18
REMARK                            x       y       z     vdW  Elec       q    Type
REMARK                         _______ _______ _______ _____ _____    ______ ____
ROOT
ATOM      1  C   UNL     1       1.294   7.892  20.838  0.00  0.00    +0.000 C 
ENDROOT
BRANCH   1   2
ATOM      2  C   UNL     1       2.172   7.441  19.709  0.00  0.00    +0.000 A 
ATOM      3  N   UNL     1       2.119   7.981  18.484  0.00  0.00    +0.000 NA
ATOM      4  O   UNL     1       2.733   7.010  17.684  0.00  0.00    +0.000 OA
ATOM      5  C   UNL     1       3.102   5.986  18.517  0.00  0.00    +0.000 A 
ATOM      6  N   UNL     1       2.815   6.225  19.777  0.00  0.00    +0.000 NA
BRANCH   5   7
ATOM      7  C   UNL     1       3.613   4.714  17.910  0.00  0.00    +0.000 C 
ATOM      8  C   UNL     1       4.185   3.731  18.930  0.00  0.00    +0.000 C 
ATOM      9  O   UNL     1       5.417   4.159  19.526  0.00  0.00    +0.000 OA
ATOM     10  C   UNL     1       6.136   5.020  18.742  0.00  0.00    +0.000 A 
ATOM     11  C   UNL     1       7.249   5.612  19.327  0.00  0.00    +0.000 A 
ATOM     12  C   UNL     1       7.960   6.590  18.628  0.00  0.00    +0.000 A 
ATOM     13  C   UNL     1       7.595   6.930  17.325  0.00  0.00    +0.000 A 
ATOM     14  C   UNL     1       6.506   6.308  16.719  0.00  0.00    +0.000 A 
ATOM     15  C   UNL     1       5.758   5.388  17.448  0.00  0.00    +0.000 A 
ATOM     16  O   UNL     1       4.578   4.980  16.880  0.00  0.00    +0.000 OA
ENDBRANCH   5   7
ENDBRANCH   1   2
BRANCH   1  17
ATOM     17  N   UNL     1       1.681   9.031  21.702  0.00  0.00    +0.000 N 
ATOM     18  H   UNL     1       2.455   9.537  21.266  0.00  0.00    +0.000 HD
BRANCH  17  25
ATOM     19  C   UNL     1       0.387  11.120  21.278  0.00  0.00    +0.000 A 
ATOM     20  C   UNL     1      -0.705  11.954  21.601  0.00  0.00    +0.000 A 
ATOM     21  C   UNL     1      -1.571  11.649  22.654  0.00  0.00    +0.000 A 
ATOM     22  C   UNL     1      -2.745  12.521  22.980  0.00  0.00    +0.000 C 
ATOM     23  C   UNL     1      -1.330  10.499  23.398  0.00  0.00    +0.000 A 
ATOM     24  C   UNL     1      -0.248   9.671  23.088  0.00  0.00    +0.000 A 
ATOM     25  C   UNL     1       0.605   9.919  21.991  0.00  0.00    +0.000 A 
BRANCH  19  28
ATOM     26  C   UNL     1       2.550  13.344  19.115  0.00  0.00    +0.000 C 
ATOM     27  N   UNL     1       1.888  12.765  20.261  0.00  0.00    +0.000 N 
ATOM     28  C   UNL     1       1.207  11.574  20.120  0.00  0.00    +0.000 C 
ATOM     29  O   UNL     1       1.219  10.918  19.084  0.00  0.00    +0.000 OA
ATOM     30  H   UNL     1       1.643  13.355  21.051  0.00  0.00    +0.000 HD
ENDBRANCH  19  28
ENDBRANCH  17  25
ENDBRANCH   1  17
TORSDOF 5
ENDMDL
MODEL 4
REMARK VINA RESULT:      -8.4      1.614      2.763
REMARK  Name = 
REMARK  7 active torsions:
REMARK  status: ('A' for Active; 'I' for Inactive)
REMARK    1  A    between atoms: C_1  and  N_2
REMARK    2  A    between atoms: C_3  and  C_5
REMARK    3  A    between atoms: C_7  and  C_8
REMARK    4  A    between atoms: C_11  and  N_12
REMARK    5  A    between atoms: N_12  and  C_13
REMARK    6  A    between atoms: C_13  and  C_14
REMARK    7  A    between atoms: C_17  and  C_18
REMARK                            x       y       z     vdW  Elec       q    Type
REMARK                         _______ _______ _______ _____ _____    ______ ____
ROOT
ATOM      1  C   UNL     1       2.015   8.756  18.596  0.00  0.00    +0.000 C 
ENDROOT
BRANCH   1   2
ATOM      2  C   UNL     1       2.180   7.288  18.855  0.00  0.00    +0.000 A 
ATOM      3  N   UNL     1       2.425   6.786  20.072  0.00  0.00    +0.000 NA
ATOM      4  O   UNL     1       2.934   5.512  19.790  0.00  0.00    +0.000 OA
ATOM      5  C   UNL     1       2.934   5.378  18.427  0.00  0.00    +0.000 A 
ATOM      6  N   UNL     1       2.439   6.428  17.811  0.00  0.00    +0.000 NA
BRANCH   5   7
ATOM      7  C   UNL     1       3.608   4.183  17.822  0.00  0.00    +0.000 C 
ATOM      8  C   UNL     1       4.326   3.300  18.841  0.00  0.00    +0.000 C 
ATOM      9  O   UNL     1       5.495   3.900  19.413  0.00  0.00    +0.000 OA
ATOM     10  C   UNL     1       6.076   4.845  18.610  0.00  0.00    +0.000 A 
ATOM     11  C   UNL     1       7.105   5.592  19.172  0.00  0.00    +0.000 A 
ATOM     12  C   UNL     1       7.662   6.652  18.454  0.00  0.00    +0.000 A 
ATOM     13  C   UNL     1       7.233   6.925  17.153  0.00  0.00    +0.000 A 
ATOM     14  C   UNL     1       6.232   6.150  16.571  0.00  0.00    +0.000 A 
ATOM     15  C   UNL     1       5.631   5.143  17.320  0.00  0.00    +0.000 A 
ATOM     16  O   UNL     1       4.511   4.570  16.775  0.00  0.00    +0.000 OA
ENDBRANCH   5   7
ENDBRANCH   1   2
BRANCH   1  17
ATOM     17  N   UNL     1       1.280   9.624  19.545  0.00  0.00    +0.000 N 
ATOM     18  H   UNL     1       1.877  10.408  19.818  0.00  0.00    +0.000 HD
BRANCH  17  25
ATOM     19  C   UNL     1      -0.805  10.975  19.760  0.00  0.00    +0.000 A 
ATOM     20  C   UNL     1      -2.021  11.423  19.199  0.00  0.00    +0.000 A 
ATOM     21  C   UNL     1      -2.452  10.985  17.945  0.00  0.00    +0.000 A 
ATOM     22  C   UNL     1      -3.730  11.481  17.339  0.00  0.00    +0.000 C 
ATOM     23  C   UNL     1      -1.658  10.078  17.251  0.00  0.00    +0.000 A 
ATOM     24  C   UNL     1      -0.457   9.625  17.801  0.00  0.00    +0.000 A 
ATOM     25  C   UNL     1       0.036  10.098  19.037  0.00  0.00    +0.000 A 
BRANCH  19  28
ATOM     26  C   UNL     1      -1.251  12.772  23.057  0.00  0.00    +0.000 C 
ATOM     27  N   UNL     1      -1.527  12.047  21.839  0.00  0.00    +0.000 N 
ATOM     28  C   UNL     1      -0.478  11.546  21.096  0.00  0.00    +0.000 C 
ATOM     29  O   UNL     1       0.688  11.595  21.473  0.00  0.00    +0.000 OA
ATOM     30  H   UNL     1      -2.416  12.180  21.366  0.00  0.00    +0.000 HD
ENDBRANCH  19  28
ENDBRANCH  17  25
ENDBRANCH   1  17
TORSDOF 5
ENDMDL
MODEL 5
REMARK VINA RESULT:      -8.4      4.942     10.326
REMARK  Name = 
REMARK  7 active torsions:
REMARK  status: ('A' for Active; 'I' for Inactive)
REMARK    1  A    between atoms: C_1  and  N_2
REMARK    2  A    between atoms: C_3  and  C_5
REMARK    3  A    between atoms: C_7  and  C_8
REMARK    4  A    between atoms: C_11  and  N_12
REMARK    5  A    between atoms: N_12  and  C_13
REMARK    6  A    between atoms: C_13  and  C_14
REMARK    7  A    between atoms: C_17  and  C_18
REMARK                            x       y       z     vdW  Elec       q    Type
REMARK                         _______ _______ _______ _____ _____    ______ ____
ROOT
ATOM      1  C   UNL     1      -2.371  12.867  20.898  0.00  0.00    +0.000 C 
ENDROOT
BRANCH   1   2
ATOM      2  C   UNL     1      -3.510  13.006  21.862  0.00  0.00    +0.000 A 
ATOM      3  N   UNL     1      -3.631  12.252  22.963  0.00  0.00    +0.000 NA
ATOM      4  O   UNL     1      -4.984  12.389  23.292  0.00  0.00    +0.000 OA
ATOM      5  C   UNL     1      -5.537  13.224  22.357  0.00  0.00    +0.000 A 
ATOM      6  N   UNL     1      -4.660  13.662  21.482  0.00  0.00    +0.000 NA
BRANCH   5   7
ATOM      7  C   UNL     1      -7.026  13.402  22.344  0.00  0.00    +0.000 C 
ATOM      8  C   UNL     1      -7.788  12.271  23.031  0.00  0.00    +0.000 C 
ATOM      9  O   UNL     1      -7.747  11.025  22.324  0.00  0.00    +0.000 OA
ATOM     10  C   UNL     1      -7.548  11.165  20.977  0.00  0.00    +0.000 A 
ATOM     11  C   UNL     1      -7.320   9.998  20.257  0.00  0.00    +0.000 A 
ATOM     12  C   UNL     1      -6.992  10.074  18.902  0.00  0.00    +0.000 A 
ATOM     13  C   UNL     1      -6.953  11.310  18.254  0.00  0.00    +0.000 A 
ATOM     14  C   UNL     1      -7.224  12.478  18.963  0.00  0.00    +0.000 A 
ATOM     15  C   UNL     1      -7.477  12.401  20.329  0.00  0.00    +0.000 A 
ATOM     16  O   UNL     1      -7.515  13.592  21.007  0.00  0.00    +0.000 OA
ENDBRANCH   5   7
ENDBRANCH   1   2
BRANCH   1  17
ATOM     17  N   UNL     1      -2.544  12.170  19.603  0.00  0.00    +0.000 N 
ATOM     18  H   UNL     1      -2.752  12.857  18.875  0.00  0.00    +0.000 HD
BRANCH  17  25
ATOM     19  C   UNL     1      -1.442  10.490  18.125  0.00  0.00    +0.000 A 
ATOM     20  C   UNL     1      -0.295   9.735  17.795  0.00  0.00    +0.000 A 
ATOM     21  C   UNL     1       0.869   9.800  18.564  0.00  0.00    +0.000 A 
ATOM     22  C   UNL     1       2.094   9.019  18.198  0.00  0.00    +0.000 C 
ATOM     23  C   UNL     1       0.877  10.623  19.685  0.00  0.00    +0.000 A 
ATOM     24  C   UNL     1      -0.255  11.369  20.023  0.00  0.00    +0.000 A 
ATOM     25  C   UNL     1      -1.423  11.373  19.229  0.00  0.00    +0.000 A 
BRANCH  19  28
ATOM     26  C   UNL     1      -3.475  10.575  14.938  0.00  0.00    +0.000 C 
ATOM     27  N   UNL     1      -2.362  10.545  15.857  0.00  0.00    +0.000 N 
ATOM     28  C   UNL     1      -2.595  10.323  17.199  0.00  0.00    +0.000 C 
ATOM     29  O   UNL     1      -3.704  10.044  17.644  0.00  0.00    +0.000 OA
ATOM     30  H   UNL     1      -1.487  10.994  15.601  0.00  0.00    +0.000 HD
ENDBRANCH  19  28
ENDBRANCH  17  25
ENDBRANCH   1  17
TORSDOF 5
ENDMDL
MODEL 6
REMARK VINA RESULT:      -8.3      2.151      4.179
REMARK  Name = 
REMARK  7 active torsions:
REMARK  status: ('A' for Active; 'I' for Inactive)
REMARK    1  A    between atoms: C_1  and  N_2
REMARK    2  A    between atoms: C_3  and  C_5
REMARK    3  A    between atoms: C_7  and  C_8
REMARK    4  A    between atoms: C_11  and  N_12
REMARK    5  A    between atoms: N_12  and  C_13
REMARK    6  A    between atoms: C_13  and  C_14
REMARK    7  A    between atoms: C_17  and  C_18
REMARK                            x       y       z     vdW  Elec       q    Type
REMARK                         _______ _______ _______ _____ _____    ______ ____
ROOT
ATOM      1  C   UNL     1       1.474   9.898  18.154  0.00  0.00    +0.000 C 
ENDROOT
BRANCH   1   2
ATOM      2  C   UNL     1       1.830   8.531  18.658  0.00  0.00    +0.000 A 
ATOM      3  N   UNL     1       1.720   8.178  19.946  0.00  0.00    +0.000 NA
ATOM      4  O   UNL     1       2.544   7.050  20.035  0.00  0.00    +0.000 OA
ATOM      5  C   UNL     1       3.058   6.835  18.784  0.00  0.00    +0.000 A 
ATOM      6  N   UNL     1       2.615   7.696  17.895  0.00  0.00    +0.000 NA
BRANCH   5   7
ATOM      7  C   UNL     1       4.132   5.803  18.615  0.00  0.00    +0.000 C 
ATOM      8  C   UNL     1       4.058   5.047  17.289  0.00  0.00    +0.000 C 
ATOM      9  O   UNL     1       2.934   4.162  17.185  0.00  0.00    +0.000 OA
ATOM     10  C   UNL     1       2.467   3.723  18.394  0.00  0.00    +0.000 A 
ATOM     11  C   UNL     1       1.275   3.007  18.378  0.00  0.00    +0.000 A 
ATOM     12  C   UNL     1       0.678   2.631  19.583  0.00  0.00    +0.000 A 
ATOM     13  C   UNL     1       1.303   2.916  20.798  0.00  0.00    +0.000 A 
ATOM     14  C   UNL     1       2.519   3.595  20.816  0.00  0.00    +0.000 A 
ATOM     15  C   UNL     1       3.071   4.031  19.616  0.00  0.00    +0.000 A 
ATOM     16  O   UNL     1       4.144   4.879  19.714  0.00  0.00    +0.000 OA
ENDBRANCH   5   7
ENDBRANCH   1   2
BRANCH   1  17
ATOM     17  N   UNL     1       0.643  10.820  18.961  0.00  0.00    +0.000 N 
ATOM     18  H   UNL     1       1.087  11.741  18.986  0.00  0.00    +0.000 HD
BRANCH  17  25
ATOM     19  C   UNL     1      -1.625  11.855  19.035  0.00  0.00    +0.000 A 
ATOM     20  C   UNL     1      -2.941  11.926  18.528  0.00  0.00    +0.000 A 
ATOM     21  C   UNL     1      -3.384  11.062  17.523  0.00  0.00    +0.000 A 
ATOM     22  C   UNL     1      -4.773  11.155  16.968  0.00  0.00    +0.000 C 
ATOM     23  C   UNL     1      -2.499  10.109  17.031  0.00  0.00    +0.000 A 
ATOM     24  C   UNL     1      -1.197  10.029  17.531  0.00  0.00    +0.000 A 
ATOM     25  C   UNL     1      -0.702  10.928  18.499  0.00  0.00    +0.000 A 
BRANCH  19  28
ATOM     26  C   UNL     1      -1.363  15.182  20.814  0.00  0.00    +0.000 C 
ATOM     27  N   UNL     1      -1.792  14.131  19.920  0.00  0.00    +0.000 N 
ATOM     28  C   UNL     1      -1.301  12.854  20.091  0.00  0.00    +0.000 C 
ATOM     29  O   UNL     1      -0.589  12.535  21.038  0.00  0.00    +0.000 OA
ATOM     30  H   UNL     1      -2.169  14.371  19.008  0.00  0.00    +0.000 HD
ENDBRANCH  19  28
ENDBRANCH  17  25
ENDBRANCH   1  17
TORSDOF 5
ENDMDL
MODEL 7
REMARK VINA RESULT:      -8.3      4.924     10.669
REMARK  Name = 
REMARK  7 active torsions:
REMARK  status: ('A' for Active; 'I' for Inactive)
REMARK    1  A    between atoms: C_1  and  N_2
REMARK    2  A    between atoms: C_3  and  C_5
REMARK    3  A    between atoms: C_7  and  C_8
REMARK    4  A    between atoms: C_11  and  N_12
REMARK    5  A    between atoms: N_12  and  C_13
REMARK    6  A    between atoms: C_13  and  C_14
REMARK    7  A    between atoms: C_17  and  C_18
REMARK                            x       y       z     vdW  Elec       q    Type
REMARK                         _______ _______ _______ _____ _____    ______ ____
ROOT
ATOM      1  C   UNL     1      -2.518  13.220  21.202  0.00  0.00    +0.000 C 
ENDROOT
BRANCH   1   2
ATOM      2  C   UNL     1      -3.685  13.162  22.142  0.00  0.00    +0.000 A 
ATOM      3  N   UNL     1      -3.766  12.284  23.151  0.00  0.00    +0.000 NA
ATOM      4  O   UNL     1      -5.133  12.276  23.452  0.00  0.00    +0.000 OA
ATOM      5  C   UNL     1      -5.733  13.161  22.596  0.00  0.00    +0.000 A 
ATOM      6  N   UNL     1      -4.877  13.761  21.800  0.00  0.00    +0.000 NA
BRANCH   5   7
ATOM      7  C   UNL     1      -7.231  13.221  22.557  0.00  0.00    +0.000 C 
ATOM      8  C   UNL     1      -7.911  11.949  23.059  0.00  0.00    +0.000 C 
ATOM      9  O   UNL     1      -7.750  10.819  22.191  0.00  0.00    +0.000 OA
ATOM     10  C   UNL     1      -7.534  11.159  20.883  0.00  0.00    +0.000 A 
ATOM     11  C   UNL     1      -7.194  10.124  20.019  0.00  0.00    +0.000 A 
ATOM     12  C   UNL     1      -6.843  10.412  18.699  0.00  0.00    +0.000 A 
ATOM     13  C   UNL     1      -6.893  11.725  18.227  0.00  0.00    +0.000 A 
ATOM     14  C   UNL     1      -7.276  12.759  19.077  0.00  0.00    +0.000 A 
ATOM     15  C   UNL     1      -7.552  12.474  20.411  0.00  0.00    +0.000 A 
ATOM     16  O   UNL     1      -7.705  13.553  21.243  0.00  0.00    +0.000 OA
ENDBRANCH   5   7
ENDBRANCH   1   2
BRANCH   1  17
ATOM     17  N   UNL     1      -1.712  12.013  20.907  0.00  0.00    +0.000 N 
ATOM     18  H   UNL     1      -1.886  11.306  21.624  0.00  0.00    +0.000 HD
BRANCH  17  25
ATOM     19  C   UNL     1      -1.064  10.565  18.982  0.00  0.00    +0.000 A 
ATOM     20  C   UNL     1      -1.357  10.053  17.700  0.00  0.00    +0.000 A 
ATOM     21  C   UNL     1      -2.493  10.457  16.994  0.00  0.00    +0.000 A 
ATOM     22  C   UNL     1      -2.818   9.893  15.644  0.00  0.00    +0.000 C 
ATOM     23  C   UNL     1      -3.338  11.394  17.579  0.00  0.00    +0.000 A 
ATOM     24  C   UNL     1      -3.052  11.910  18.845  0.00  0.00    +0.000 A 
ATOM     25  C   UNL     1      -1.947  11.474  19.608  0.00  0.00    +0.000 A 
BRANCH  19  28
ATOM     26  C   UNL     1       1.181   8.814  21.471  0.00  0.00    +0.000 C 
ATOM     27  N   UNL     1       0.017   9.218  20.717  0.00  0.00    +0.000 N 
ATOM     28  C   UNL     1       0.174  10.025  19.609  0.00  0.00    +0.000 C 
ATOM     29  O   UNL     1       1.273  10.339  19.164  0.00  0.00    +0.000 OA
ATOM     30  H   UNL     1      -0.898   9.196  21.156  0.00  0.00    +0.000 HD
ENDBRANCH  19  28
ENDBRANCH  17  25
ENDBRANCH   1  17
TORSDOF 5
ENDMDL
MODEL 8
REMARK VINA RESULT:      -8.1      1.774      2.833
REMARK  Name = 
REMARK  7 active torsions:
REMARK  status: ('A' for Active; 'I' for Inactive)
REMARK    1  A    between atoms: C_1  and  N_2
REMARK    2  A    between atoms: C_3  and  C_5
REMARK    3  A    between atoms: C_7  and  C_8
REMARK    4  A    between atoms: C_11  and  N_12
REMARK    5  A    between atoms: N_12  and  C_13
REMARK    6  A    between atoms: C_13  and  C_14
REMARK    7  A    between atoms: C_17  and  C_18
REMARK                            x       y       z     vdW  Elec       q    Type
REMARK                         _______ _______ _______ _____ _____    ______ ____
ROOT
ATOM      1  C   UNL     1       2.056   8.444  17.865  0.00  0.00    +0.000 C 
ENDROOT
BRANCH   1   2
ATOM      2  C   UNL     1       2.160   7.129  18.578  0.00  0.00    +0.000 A 
ATOM      3  N   UNL     1       2.553   7.021  19.855  0.00  0.00    +0.000 NA
ATOM      4  O   UNL     1       2.929   5.676  19.956  0.00  0.00    +0.000 OA
ATOM      5  C   UNL     1       2.713   5.111  18.727  0.00  0.00    +0.000 A 
ATOM      6  N   UNL     1       2.201   5.955  17.859  0.00  0.00    +0.000 NA
BRANCH   5   7
ATOM      7  C   UNL     1       3.208   3.717  18.480  0.00  0.00    +0.000 C 
ATOM      8  C   UNL     1       4.241   3.241  19.499  0.00  0.00    +0.000 C 
ATOM      9  O   UNL     1       5.508   3.905  19.399  0.00  0.00    +0.000 OA
ATOM     10  C   UNL     1       5.771   4.401  18.151  0.00  0.00    +0.000 A 
ATOM     11  C   UNL     1       6.896   5.208  18.026  0.00  0.00    +0.000 A 
ATOM     12  C   UNL     1       7.159   5.844  16.811  0.00  0.00    +0.000 A 
ATOM     13  C   UNL     1       6.334   5.624  15.707  0.00  0.00    +0.000 A 
ATOM     14  C   UNL     1       5.231   4.781  15.816  0.00  0.00    +0.000 A 
ATOM     15  C   UNL     1       4.933   4.209  17.049  0.00  0.00    +0.000 A 
ATOM     16  O   UNL     1       3.721   3.575  17.147  0.00  0.00    +0.000 OA
ENDBRANCH   5   7
ENDBRANCH   1   2
BRANCH   1  17
ATOM     17  N   UNL     1       1.806   9.701  18.607  0.00  0.00    +0.000 N 
ATOM     18  H   UNL     1       2.455  10.420  18.281  0.00  0.00    +0.000 HD
BRANCH  17  25
ATOM     19  C   UNL     1      -0.072  11.159  19.360  0.00  0.00    +0.000 A 
ATOM     20  C   UNL     1      -1.409  11.586  19.209  0.00  0.00    +0.000 A 
ATOM     21  C   UNL     1      -2.256  11.013  18.257  0.00  0.00    +0.000 A 
ATOM     22  C   UNL     1      -3.667  11.484  18.079  0.00  0.00    +0.000 C 
ATOM     23  C   UNL     1      -1.756   9.991  17.456  0.00  0.00    +0.000 A 
ATOM     24  C   UNL     1      -0.436   9.559  17.603  0.00  0.00    +0.000 A 
ATOM     25  C   UNL     1       0.460  10.162  18.512  0.00  0.00    +0.000 A 
BRANCH  19  28
ATOM     26  C   UNL     1       1.755  13.957  21.130  0.00  0.00    +0.000 C 
ATOM     27  N   UNL     1       0.864  13.239  20.249  0.00  0.00    +0.000 N 
ATOM     28  C   UNL     1       0.705  11.878  20.408  0.00  0.00    +0.000 C 
ATOM     29  O   UNL     1       1.208  11.252  21.335  0.00  0.00    +0.000 OA
ATOM     30  H   UNL     1       0.621  13.638  19.347  0.00  0.00    +0.000 HD
ENDBRANCH  19  28
ENDBRANCH  17  25
ENDBRANCH   1  17
TORSDOF 5
ENDMDL
MODEL 9
REMARK VINA RESULT:      -8.1      1.908      3.045
REMARK  Name = 
REMARK  7 active torsions:
REMARK  status: ('A' for Active; 'I' for Inactive)
REMARK    1  A    between atoms: C_1  and  N_2
REMARK    2  A    between atoms: C_3  and  C_5
REMARK    3  A    between atoms: C_7  and  C_8
REMARK    4  A    between atoms: C_11  and  N_12
REMARK    5  A    between atoms: N_12  and  C_13
REMARK    6  A    between atoms: C_13  and  C_14
REMARK    7  A    between atoms: C_17  and  C_18
REMARK                            x       y       z     vdW  Elec       q    Type
REMARK                         _______ _______ _______ _____ _____    ______ ____
ROOT
ATOM      1  C   UNL     1       1.384   8.490  20.103  0.00  0.00    +0.000 C 
ENDROOT
BRANCH   1   2
ATOM      2  C   UNL     1       2.239   7.527  19.334  0.00  0.00    +0.000 A 
ATOM      3  N   UNL     1       2.549   7.699  18.042  0.00  0.00    +0.000 NA
ATOM      4  O   UNL     1       2.943   6.417  17.640  0.00  0.00    +0.000 OA
ATOM      5  C   UNL     1       2.838   5.607  18.740  0.00  0.00    +0.000 A 
ATOM      6  N   UNL     1       2.449   6.254  19.815  0.00  0.00    +0.000 NA
BRANCH   5   7
ATOM      7  C   UNL     1       3.012   4.128  18.563  0.00  0.00    +0.000 C 
ATOM      8  C   UNL     1       3.954   3.492  19.584  0.00  0.00    +0.000 C 
ATOM      9  O   UNL     1       5.329   3.860  19.417  0.00  0.00    +0.000 OA
ATOM     10  C   UNL     1       5.649   4.221  18.136  0.00  0.00    +0.000 A 
ATOM     11  C   UNL     1       6.916   4.758  17.938  0.00  0.00    +0.000 A 
ATOM     12  C   UNL     1       7.268   5.258  16.683  0.00  0.00    +0.000 A 
ATOM     13  C   UNL     1       6.377   5.165  15.613  0.00  0.00    +0.000 A 
ATOM     14  C   UNL     1       5.123   4.588  15.796  0.00  0.00    +0.000 A 
ATOM     15  C   UNL     1       4.752   4.160  17.067  0.00  0.00    +0.000 A 
ATOM     16  O   UNL     1       3.436   3.810  17.229  0.00  0.00    +0.000 OA
ENDBRANCH   5   7
ENDBRANCH   1   2
BRANCH   1  17
ATOM     17  N   UNL     1       1.312   9.921  19.726  0.00  0.00    +0.000 N 
ATOM     18  H   UNL     1       2.055  10.131  19.055  0.00  0.00    +0.000 HD
BRANCH  17  25
ATOM     19  C   UNL     1      -0.843  11.163  19.898  0.00  0.00    +0.000 A 
ATOM     20  C   UNL     1      -2.081  11.526  19.324  0.00  0.00    +0.000 A 
ATOM     21  C   UNL     1      -2.486  11.024  18.085  0.00  0.00    +0.000 A 
ATOM     22  C   UNL     1      -3.789  11.430  17.464  0.00  0.00    +0.000 C 
ATOM     23  C   UNL     1      -1.644  10.139  17.421  0.00  0.00    +0.000 A 
ATOM     24  C   UNL     1      -0.420   9.770  17.985  0.00  0.00    +0.000 A 
ATOM     25  C   UNL     1       0.044  10.310  19.204  0.00  0.00    +0.000 A 
BRANCH  19  28
ATOM     26  C   UNL     1      -1.382  13.069  23.120  0.00  0.00    +0.000 C 
ATOM     27  N   UNL     1      -1.622  12.289  21.928  0.00  0.00    +0.000 N 
ATOM     28  C   UNL     1      -0.549  11.794  21.215  0.00  0.00    +0.000 C 
ATOM     29  O   UNL     1       0.611  11.895  21.600  0.00  0.00    +0.000 OA
ATOM     30  H   UNL     1      -2.509  12.375  21.441  0.00  0.00    +0.000 HD
ENDBRANCH  19  28
ENDBRANCH  17  25
ENDBRANCH   1  17
TORSDOF 5
ENDMDL
