MODEL 1
REMARK VINA RESULT:      -9.4      0.000      0.000
REMARK  Name = 
REMARK  4 active torsions:
REMARK  status: ('A' for Active; 'I' for Inactive)
REMARK    1  A    between atoms: C_1  and  C_2
REMARK    2  A    between atoms: C_6  and  C_7
REMARK    3  A    between atoms: C_11  and  N_12
REMARK    4  A    between atoms: C_13  and  C_15
REMARK                            x       y       z     vdW  Elec       q    Type
REMARK                         _______ _______ _______ _____ _____    ______ ____
ROOT
ATOM      1  N   UNL     1       3.079   6.326  18.922  0.00  0.00    +0.000 N 
ATOM      2  C   UNL     1       2.856   5.158  18.203  0.00  0.00    +0.000 C 
ATOM      3  O   UNL     1       1.885   4.818  17.553  0.00  0.00    +0.000 OA
ATOM      4  H   UNL     1       3.987   6.342  19.386  0.00  0.00    +0.000 HD
ENDROOT
BRANCH   2   5
ATOM      5  C   UNL     1       4.170   4.368  18.123  0.00  0.00    +0.000 A 
ATOM      6  N   UNL     1       4.644   3.979  19.278  0.00  0.00    +0.000 NA
ATOM      7  N   UNL     1       6.008   3.886  19.370  0.00  0.00    +0.000 N 
ATOM      8  C   UNL     1       6.834   4.603  18.519  0.00  0.00    +0.000 A 
ATOM      9  O   UNL     1       7.923   5.044  18.858  0.00  0.00    +0.000 OA
ATOM     10  C   UNL     1       6.331   4.727  17.138  0.00  0.00    +0.000 A 
ATOM     11  C   UNL     1       7.184   5.029  16.079  0.00  0.00    +0.000 A 
ATOM     12  C   UNL     1       6.719   4.890  14.771  0.00  0.00    +0.000 A 
ATOM     13  C   UNL     1       5.412   4.444  14.535  0.00  0.00    +0.000 A 
ATOM     14  C   UNL     1       4.532   4.233  15.602  0.00  0.00    +0.000 A 
ATOM     15  C   UNL     1       4.994   4.422  16.905  0.00  0.00    +0.000 A 
ATOM     16  H   UNL     1       6.359   3.767  20.317  0.00  0.00    +0.000 HD
ENDBRANCH   2   5
BRANCH   1  21
ATOM     17  C   UNL     1       1.129   9.302  20.003  0.00  0.00    +0.000 A 
ATOM     18  C   UNL     1       1.173  10.050  18.811  0.00  0.00    +0.000 A 
ATOM     19  C   UNL     1       1.793   9.562  17.660  0.00  0.00    +0.000 A 
ATOM     20  C   UNL     1       2.405   8.315  17.669  0.00  0.00    +0.000 A 
ATOM     21  C   UNL     1       2.401   7.549  18.830  0.00  0.00    +0.000 A 
ATOM     22  C   UNL     1       1.755   8.040  19.984  0.00  0.00    +0.000 A 
BRANCH  17  28
ATOM     23  C   UNL     1      -1.040  13.085  22.143  0.00  0.00    +0.000 C 
ATOM     24  C   UNL     1      -0.584  11.661  22.208  0.00  0.00    +0.000 A 
ATOM     25  N   UNL     1      -0.927  10.959  23.300  0.00  0.00    +0.000 NA
ATOM     26  C   UNL     1      -0.539   9.678  23.328  0.00  0.00    +0.000 A 
ATOM     27  C   UNL     1       0.170   9.081  22.309  0.00  0.00    +0.000 A 
ATOM     28  C   UNL     1       0.469   9.863  21.210  0.00  0.00    +0.000 A 
ATOM     29  N   UNL     1       0.111  11.170  21.156  0.00  0.00    +0.000 NA
ENDBRANCH  17  28
ENDBRANCH   1  21
TORSDOF 3
ENDMDL
MODEL 2
REMARK VINA RESULT:      -8.6      3.471      5.552
REMARK  Name = 
REMARK  4 active torsions:
REMARK  status: ('A' for Active; 'I' for Inactive)
REMARK    1  A    between atoms: C_1  and  C_2
REMARK    2  A    between atoms: C_6  and  C_7
REMARK    3  A    between atoms: C_11  and  N_12
REMARK    4  A    between atoms: C_13  and  C_15
REMARK                            x       y       z     vdW  Elec       q    Type
REMARK                         _______ _______ _______ _____ _____    ______ ____
ROOT
ATOM      1  N   UNL     1       1.584   8.839  19.960  0.00  0.00    +0.000 N 
ATOM      2  C   UNL     1       1.441   7.631  20.630  0.00  0.00    +0.000 C 
ATOM      3  O   UNL     1       0.744   7.350  21.588  0.00  0.00    +0.000 OA
ATOM      4  H   UNL     1       2.252   8.793  19.191  0.00  0.00    +0.000 HD
ENDROOT
BRANCH   2   5
ATOM      5  C   UNL     1       2.148   6.532  19.824  0.00  0.00    +0.000 A 
ATOM      6  N   UNL     1       2.483   6.878  18.608  0.00  0.00    +0.000 NA
ATOM      7  N   UNL     1       2.489   5.874  17.675  0.00  0.00    +0.000 N 
ATOM      8  C   UNL     1       1.738   4.723  17.857  0.00  0.00    +0.000 A 
ATOM      9  O   UNL     1       1.224   4.107  16.935  0.00  0.00    +0.000 OA
ATOM     10  C   UNL     1       1.675   4.248  19.253  0.00  0.00    +0.000 A 
ATOM     11  C   UNL     1       1.342   2.930  19.556  0.00  0.00    +0.000 A 
ATOM     12  C   UNL     1       1.536   2.463  20.856  0.00  0.00    +0.000 A 
ATOM     13  C   UNL     1       2.068   3.311  21.835  0.00  0.00    +0.000 A 
ATOM     14  C   UNL     1       2.312   4.659  21.547  0.00  0.00    +0.000 A 
ATOM     15  C   UNL     1       2.067   5.128  20.256  0.00  0.00    +0.000 A 
ATOM     16  H   UNL     1       2.566   6.194  16.713  0.00  0.00    +0.000 HD
ENDBRANCH   2   5
BRANCH   1  21
ATOM     17  C   UNL     1      -1.245  11.076  19.052  0.00  0.00    +0.000 A 
ATOM     18  C   UNL     1      -1.105  12.044  20.063  0.00  0.00    +0.000 A 
ATOM     19  C   UNL     1      -0.070  11.987  20.998  0.00  0.00    +0.000 A 
ATOM     20  C   UNL     1       0.849  10.946  20.961  0.00  0.00    +0.000 A 
ATOM     21  C   UNL     1       0.740   9.957  19.989  0.00  0.00    +0.000 A 
ATOM     22  C   UNL     1      -0.297  10.033  19.035  0.00  0.00    +0.000 A 
BRANCH  17  28
ATOM     23  C   UNL     1      -2.954  10.106  14.610  0.00  0.00    +0.000 C 
ATOM     24  C   UNL     1      -3.178  10.676  15.975  0.00  0.00    +0.000 A 
ATOM     25  N   UNL     1      -4.419  11.102  16.263  0.00  0.00    +0.000 NA
ATOM     26  C   UNL     1      -4.610  11.579  17.500  0.00  0.00    +0.000 A 
ATOM     27  C   UNL     1      -3.612  11.641  18.448  0.00  0.00    +0.000 A 
ATOM     28  C   UNL     1      -2.368  11.166  18.083  0.00  0.00    +0.000 A 
ATOM     29  N   UNL     1      -2.132  10.695  16.833  0.00  0.00    +0.000 NA
ENDBRANCH  17  28
ENDBRANCH   1  21
TORSDOF 3
ENDMDL
MODEL 3
REMARK VINA RESULT:      -8.6      2.549      8.841
REMARK  Name = 
REMARK  4 active torsions:
REMARK  status: ('A' for Active; 'I' for Inactive)
REMARK    1  A    between atoms: C_1  and  C_2
REMARK    2  A    between atoms: C_6  and  C_7
REMARK    3  A    between atoms: C_11  and  N_12
REMARK    4  A    between atoms: C_13  and  C_15
REMARK                            x       y       z     vdW  Elec       q    Type
REMARK                         _______ _______ _______ _____ _____    ______ ____
ROOT
ATOM      1  N   UNL     1       1.791   7.489  19.882  0.00  0.00    +0.000 N 
ATOM      2  C   UNL     1       1.864   8.534  18.969  0.00  0.00    +0.000 C 
ATOM      3  O   UNL     1       2.632   8.704  18.040  0.00  0.00    +0.000 OA
ATOM      4  H   UNL     1       1.049   7.611  20.570  0.00  0.00    +0.000 HD
ENDROOT
BRANCH   2   5
ATOM      5  C   UNL     1       0.621   9.420  19.132  0.00  0.00    +0.000 A 
ATOM      6  N   UNL     1       0.322  10.139  18.082  0.00  0.00    +0.000 NA
ATOM      7  N   UNL     1      -0.282  11.344  18.328  0.00  0.00    +0.000 N 
ATOM      8  C   UNL     1      -0.142  11.979  19.552  0.00  0.00    +0.000 A 
ATOM      9  O   UNL     1      -0.109  13.195  19.675  0.00  0.00    +0.000 OA
ATOM     10  C   UNL     1      -0.115  11.070  20.714  0.00  0.00    +0.000 A 
ATOM     11  C   UNL     1      -0.401  11.527  21.999  0.00  0.00    +0.000 A 
ATOM     12  C   UNL     1      -0.609  10.597  23.018  0.00  0.00    +0.000 A 
ATOM     13  C   UNL     1      -0.540   9.226  22.743  0.00  0.00    +0.000 A 
ATOM     14  C   UNL     1      -0.162   8.777  21.473  0.00  0.00    +0.000 A 
ATOM     15  C   UNL     1       0.093   9.716  20.473  0.00  0.00    +0.000 A 
ATOM     16  H   UNL     1      -0.332  11.962  17.522  0.00  0.00    +0.000 HD
ENDBRANCH   2   5
BRANCH   1  21
ATOM     17  C   UNL     1       4.172   4.809  18.890  0.00  0.00    +0.000 A 
ATOM     18  C   UNL     1       3.660   3.751  19.663  0.00  0.00    +0.000 A 
ATOM     19  C   UNL     1       2.524   3.904  20.459  0.00  0.00    +0.000 A 
ATOM     20  C   UNL     1       1.873   5.130  20.522  0.00  0.00    +0.000 A 
ATOM     21  C   UNL     1       2.354   6.209  19.788  0.00  0.00    +0.000 A 
ATOM     22  C   UNL     1       3.491   6.041  18.970  0.00  0.00    +0.000 A 
BRANCH  17  28
ATOM     23  C   UNL     1       6.100   3.945  14.517  0.00  0.00    +0.000 C 
ATOM     24  C   UNL     1       6.296   4.223  15.974  0.00  0.00    +0.000 A 
ATOM     25  N   UNL     1       7.558   4.404  16.397  0.00  0.00    +0.000 NA
ATOM     26  C   UNL     1       7.714   4.683  17.698  0.00  0.00    +0.000 A 
ATOM     27  C   UNL     1       6.660   4.789  18.579  0.00  0.00    +0.000 A 
ATOM     28  C   UNL     1       5.391   4.608  18.065  0.00  0.00    +0.000 A 
ATOM     29  N   UNL     1       5.196   4.303  16.757  0.00  0.00    +0.000 NA
ENDBRANCH  17  28
ENDBRANCH   1  21
TORSDOF 3
ENDMDL
MODEL 4
REMARK VINA RESULT:      -8.6      3.243      4.336
REMARK  Name = 
REMARK  4 active torsions:
REMARK  status: ('A' for Active; 'I' for Inactive)
REMARK    1  A    between atoms: C_1  and  C_2
REMARK    2  A    between atoms: C_6  and  C_7
REMARK    3  A    between atoms: C_11  and  N_12
REMARK    4  A    between atoms: C_13  and  C_15
REMARK                            x       y       z     vdW  Elec       q    Type
REMARK                         _______ _______ _______ _____ _____    ______ ____
ROOT
ATOM      1  N   UNL     1       2.004   8.307  18.477  0.00  0.00    +0.000 N 
ATOM      2  C   UNL     1       2.377   7.131  19.117  0.00  0.00    +0.000 C 
ATOM      3  O   UNL     1       2.263   6.811  20.286  0.00  0.00    +0.000 OA
ATOM      4  H   UNL     1       2.231   8.310  17.483  0.00  0.00    +0.000 HD
ENDROOT
BRANCH   2   5
ATOM      5  C   UNL     1       2.779   6.097  18.055  0.00  0.00    +0.000 A 
ATOM      6  N   UNL     1       1.881   5.175  17.824  0.00  0.00    +0.000 NA
ATOM      7  N   UNL     1       2.359   3.947  17.450  0.00  0.00    +0.000 N 
ATOM      8  C   UNL     1       3.650   3.554  17.767  0.00  0.00    +0.000 A 
ATOM      9  O   UNL     1       3.956   2.397  18.014  0.00  0.00    +0.000 OA
ATOM     10  C   UNL     1       4.652   4.636  17.704  0.00  0.00    +0.000 A 
ATOM     11  C   UNL     1       6.011   4.360  17.575  0.00  0.00    +0.000 A 
ATOM     12  C   UNL     1       6.889   5.400  17.269  0.00  0.00    +0.000 A 
ATOM     13  C   UNL     1       6.401   6.700  17.086  0.00  0.00    +0.000 A 
ATOM     14  C   UNL     1       5.049   6.987  17.309  0.00  0.00    +0.000 A 
ATOM     15  C   UNL     1       4.189   5.947  17.663  0.00  0.00    +0.000 A 
ATOM     16  H   UNL     1       1.666   3.204  17.461  0.00  0.00    +0.000 HD
ENDBRANCH   2   5
BRANCH   1  21
ATOM     17  C   UNL     1      -0.987  10.516  18.519  0.00  0.00    +0.000 A 
ATOM     18  C   UNL     1      -0.811  11.115  19.780  0.00  0.00    +0.000 A 
ATOM     19  C   UNL     1       0.296  10.832  20.581  0.00  0.00    +0.000 A 
ATOM     20  C   UNL     1       1.256   9.924  20.152  0.00  0.00    +0.000 A 
ATOM     21  C   UNL     1       1.115   9.295  18.920  0.00  0.00    +0.000 A 
ATOM     22  C   UNL     1       0.003   9.602  18.107  0.00  0.00    +0.000 A 
BRANCH  17  28
ATOM     23  C   UNL     1      -3.328  10.103  14.283  0.00  0.00    +0.000 C 
ATOM     24  C   UNL     1      -3.301  10.610  15.691  0.00  0.00    +0.000 A 
ATOM     25  N   UNL     1      -4.418  11.197  16.150  0.00  0.00    +0.000 NA
ATOM     26  C   UNL     1      -4.388  11.616  17.421  0.00  0.00    +0.000 A 
ATOM     27  C   UNL     1      -3.291  11.467  18.241  0.00  0.00    +0.000 A 
ATOM     28  C   UNL     1      -2.186  10.837  17.702  0.00  0.00    +0.000 A 
ATOM     29  N   UNL     1      -2.172  10.417  16.412  0.00  0.00    +0.000 NA
ENDBRANCH  17  28
ENDBRANCH   1  21
TORSDOF 3
ENDMDL
MODEL 5
REMARK VINA RESULT:      -8.5      3.521      5.454
REMARK  Name = 
REMARK  4 active torsions:
REMARK  status: ('A' for Active; 'I' for Inactive)
REMARK    1  A    between atoms: C_1  and  C_2
REMARK    2  A    between atoms: C_6  and  C_7
REMARK    3  A    between atoms: C_11  and  N_12
REMARK    4  A    between atoms: C_13  and  C_15
REMARK                            x       y       z     vdW  Elec       q    Type
REMARK                         _______ _______ _______ _____ _____    ______ ____
ROOT
ATOM      1  N   UNL     1       1.685   8.719  19.674  0.00  0.00    +0.000 N 
ATOM      2  C   UNL     1       1.664   7.593  20.488  0.00  0.00    +0.000 C 
ATOM      3  O   UNL     1       1.074   7.400  21.535  0.00  0.00    +0.000 OA
ATOM      4  H   UNL     1       2.279   8.608  18.853  0.00  0.00    +0.000 HD
ENDROOT
BRANCH   2   5
ATOM      5  C   UNL     1       2.346   6.434  19.745  0.00  0.00    +0.000 A 
ATOM      6  N   UNL     1       2.752   6.725  18.537  0.00  0.00    +0.000 NA
ATOM      7  N   UNL     1       2.745   5.695  17.633  0.00  0.00    +0.000 N 
ATOM      8  C   UNL     1       1.927   4.591  17.813  0.00  0.00    +0.000 A 
ATOM      9  O   UNL     1       1.421   3.974  16.886  0.00  0.00    +0.000 OA
ATOM     10  C   UNL     1       1.776   4.162  19.217  0.00  0.00    +0.000 A 
ATOM     11  C   UNL     1       1.360   2.873  19.542  0.00  0.00    +0.000 A 
ATOM     12  C   UNL     1       1.472   2.436  20.862  0.00  0.00    +0.000 A 
ATOM     13  C   UNL     1       2.005   3.285  21.840  0.00  0.00    +0.000 A 
ATOM     14  C   UNL     1       2.333   4.609  21.526  0.00  0.00    +0.000 A 
ATOM     15  C   UNL     1       2.171   5.050  20.212  0.00  0.00    +0.000 A 
ATOM     16  H   UNL     1       2.881   5.981  16.668  0.00  0.00    +0.000 HD
ENDBRANCH   2   5
BRANCH   1  21
ATOM     17  C   UNL     1      -1.226  10.803  18.664  0.00  0.00    +0.000 A 
ATOM     18  C   UNL     1      -1.140  11.806  19.647  0.00  0.00    +0.000 A 
ATOM     19  C   UNL     1      -0.117  11.821  20.596  0.00  0.00    +0.000 A 
ATOM     20  C   UNL     1       0.847  10.821  20.601  0.00  0.00    +0.000 A 
ATOM     21  C   UNL     1       0.793   9.800  19.659  0.00  0.00    +0.000 A 
ATOM     22  C   UNL     1      -0.234   9.802  18.691  0.00  0.00    +0.000 A 
BRANCH  17  28
ATOM     23  C   UNL     1      -5.684  12.333  17.493  0.00  0.00    +0.000 C 
ATOM     24  C   UNL     1      -4.449  11.573  17.123  0.00  0.00    +0.000 A 
ATOM     25  N   UNL     1      -4.389  11.075  15.877  0.00  0.00    +0.000 NA
ATOM     26  C   UNL     1      -3.264  10.425  15.553  0.00  0.00    +0.000 A 
ATOM     27  C   UNL     1      -2.208  10.260  16.423  0.00  0.00    +0.000 A 
ATOM     28  C   UNL     1      -2.338  10.816  17.680  0.00  0.00    +0.000 A 
ATOM     29  N   UNL     1      -3.471  11.464  18.052  0.00  0.00    +0.000 NA
ENDBRANCH  17  28
ENDBRANCH   1  21
TORSDOF 3
ENDMDL
MODEL 6
REMARK VINA RESULT:      -8.4      3.029      8.819
REMARK  Name = 
REMARK  4 active torsions:
REMARK  status: ('A' for Active; 'I' for Inactive)
REMARK    1  A    between atoms: C_1  and  C_2
REMARK    2  A    between atoms: C_6  and  C_7
REMARK    3  A    between atoms: C_11  and  N_12
REMARK    4  A    between atoms: C_13  and  C_15
REMARK                            x       y       z     vdW  Elec       q    Type
REMARK                         _______ _______ _______ _____ _____    ______ ____
ROOT
ATOM      1  N   UNL     1       1.658   8.092  18.597  0.00  0.00    +0.000 N 
ATOM      2  C   UNL     1       1.297   9.167  19.399  0.00  0.00    +0.000 C 
ATOM      3  O   UNL     1       1.192   9.234  20.610  0.00  0.00    +0.000 OA
ATOM      4  H   UNL     1       1.654   8.317  17.602  0.00  0.00    +0.000 HD
ENDROOT
BRANCH   2   5
ATOM      5  C   UNL     1       1.260  10.437  18.537  0.00  0.00    +0.000 A 
ATOM      6  N   UNL     1       2.302  10.602  17.764  0.00  0.00    +0.000 NA
ATOM      7  N   UNL     1       2.659  11.899  17.502  0.00  0.00    +0.000 N 
ATOM      8  C   UNL     1       2.290  12.929  18.353  0.00  0.00    +0.000 A 
ATOM      9  O   UNL     1       2.985  13.916  18.550  0.00  0.00    +0.000 OA
ATOM     10  C   UNL     1       0.947  12.782  18.947  0.00  0.00    +0.000 A 
ATOM     11  C   UNL     1       0.259  13.877  19.465  0.00  0.00    +0.000 A 
ATOM     12  C   UNL     1      -1.092  13.741  19.783  0.00  0.00    +0.000 A 
ATOM     13  C   UNL     1      -1.743  12.518  19.573  0.00  0.00    +0.000 A 
ATOM     14  C   UNL     1      -1.023  11.398  19.141  0.00  0.00    +0.000 A 
ATOM     15  C   UNL     1       0.339  11.534  18.872  0.00  0.00    +0.000 A 
ATOM     16  H   UNL     1       3.570  12.004  17.063  0.00  0.00    +0.000 HD
ENDBRANCH   2   5
BRANCH   1  21
ATOM     17  C   UNL     1       4.213   5.389  18.600  0.00  0.00    +0.000 A 
ATOM     18  C   UNL     1       3.780   4.666  19.726  0.00  0.00    +0.000 A 
ATOM     19  C   UNL     1       2.640   5.034  20.443  0.00  0.00    +0.000 A 
ATOM     20  C   UNL     1       1.907   6.152  20.065  0.00  0.00    +0.000 A 
ATOM     21  C   UNL     1       2.308   6.907  18.968  0.00  0.00    +0.000 A 
ATOM     22  C   UNL     1       3.449   6.517  18.237  0.00  0.00    +0.000 A 
BRANCH  17  28
ATOM     23  C   UNL     1       6.272   4.062  14.405  0.00  0.00    +0.000 C 
ATOM     24  C   UNL     1       6.411   4.366  15.864  0.00  0.00    +0.000 A 
ATOM     25  N   UNL     1       7.654   4.370  16.371  0.00  0.00    +0.000 NA
ATOM     26  C   UNL     1       7.764   4.675  17.670  0.00  0.00    +0.000 A 
ATOM     27  C   UNL     1       6.683   4.977  18.470  0.00  0.00    +0.000 A 
ATOM     28  C   UNL     1       5.438   4.971  17.871  0.00  0.00    +0.000 A 
ATOM     29  N   UNL     1       5.286   4.646  16.563  0.00  0.00    +0.000 NA
ENDBRANCH  17  28
ENDBRANCH   1  21
TORSDOF 3
ENDMDL
MODEL 7
REMARK VINA RESULT:      -8.4      3.112      8.898
REMARK  Name = 
REMARK  4 active torsions:
REMARK  status: ('A' for Active; 'I' for Inactive)
REMARK    1  A    between atoms: C_1  and  C_2
REMARK    2  A    between atoms: C_6  and  C_7
REMARK    3  A    between atoms: C_11  and  N_12
REMARK    4  A    between atoms: C_13  and  C_15
REMARK                            x       y       z     vdW  Elec       q    Type
REMARK                         _______ _______ _______ _____ _____    ______ ____
ROOT
ATOM      1  N   UNL     1       0.442   9.540  20.669  0.00  0.00    +0.000 N 
ATOM      2  C   UNL     1       0.663   9.889  21.995  0.00  0.00    +0.000 C 
ATOM      3  O   UNL     1       1.481   9.459  22.788  0.00  0.00    +0.000 OA
ATOM      4  H   UNL     1      -0.324  10.058  20.241  0.00  0.00    +0.000 HD
ENDROOT
BRANCH   2   5
ATOM      5  C   UNL     1      -0.159  11.144  22.318  0.00  0.00    +0.000 A 
ATOM      6  N   UNL     1      -1.082  10.972  23.229  0.00  0.00    +0.000 NA
ATOM      7  N   UNL     1      -2.204  11.750  23.106  0.00  0.00    +0.000 N 
ATOM      8  C   UNL     1      -2.567  12.295  21.884  0.00  0.00    +0.000 A 
ATOM      9  O   UNL     1      -3.729  12.463  21.545  0.00  0.00    +0.000 OA
ATOM     10  C   UNL     1      -1.432  12.736  21.049  0.00  0.00    +0.000 A 
ATOM     11  C   UNL     1      -1.605  13.660  20.021  0.00  0.00    +0.000 A 
ATOM     12  C   UNL     1      -0.480  14.232  19.428  0.00  0.00    +0.000 A 
ATOM     13  C   UNL     1       0.802  13.885  19.872  0.00  0.00    +0.000 A 
ATOM     14  C   UNL     1       0.970  12.889  20.841  0.00  0.00    +0.000 A 
ATOM     15  C   UNL     1      -0.162  12.287  21.392  0.00  0.00    +0.000 A 
ATOM     16  H   UNL     1      -2.977  11.471  23.703  0.00  0.00    +0.000 HD
ENDBRANCH   2   5
BRANCH   1  21
ATOM     17  C   UNL     1       2.518   6.765  19.316  0.00  0.00    +0.000 A 
ATOM     18  C   UNL     1       2.849   7.316  18.064  0.00  0.00    +0.000 A 
ATOM     19  C   UNL     1       2.435   8.596  17.692  0.00  0.00    +0.000 A 
ATOM     20  C   UNL     1       1.660   9.360  18.555  0.00  0.00    +0.000 A 
ATOM     21  C   UNL     1       1.295   8.850  19.796  0.00  0.00    +0.000 A 
ATOM     22  C   UNL     1       1.734   7.563  20.173  0.00  0.00    +0.000 A 
BRANCH  17  28
ATOM     23  C   UNL     1       1.660   2.625  21.706  0.00  0.00    +0.000 C 
ATOM     24  C   UNL     1       2.535   3.421  20.790  0.00  0.00    +0.000 A 
ATOM     25  N   UNL     1       3.589   2.787  20.250  0.00  0.00    +0.000 NA
ATOM     26  C   UNL     1       4.344   3.504  19.408  0.00  0.00    +0.000 A 
ATOM     27  C   UNL     1       4.081   4.818  19.088  0.00  0.00    +0.000 A 
ATOM     28  C   UNL     1       2.968   5.395  19.669  0.00  0.00    +0.000 A 
ATOM     29  N   UNL     1       2.192   4.706  20.544  0.00  0.00    +0.000 NA
ENDBRANCH  17  28
ENDBRANCH   1  21
TORSDOF 3
ENDMDL
MODEL 8
REMARK VINA RESULT:      -8.3      3.197      4.179
REMARK  Name = 
REMARK  4 active torsions:
REMARK  status: ('A' for Active; 'I' for Inactive)
REMARK    1  A    between atoms: C_1  and  C_2
REMARK    2  A    between atoms: C_6  and  C_7
REMARK    3  A    between atoms: C_11  and  N_12
REMARK    4  A    between atoms: C_13  and  C_15
REMARK                            x       y       z     vdW  Elec       q    Type
REMARK                         _______ _______ _______ _____ _____    ______ ____
ROOT
ATOM      1  N   UNL     1       2.041   8.367  18.376  0.00  0.00    +0.000 N 
ATOM      2  C   UNL     1       2.395   7.211  19.060  0.00  0.00    +0.000 C 
ATOM      3  O   UNL     1       2.257   6.929  20.236  0.00  0.00    +0.000 OA
ATOM      4  H   UNL     1       2.287   8.337  17.387  0.00  0.00    +0.000 HD
ENDROOT
BRANCH   2   5
ATOM      5  C   UNL     1       2.812   6.142  18.040  0.00  0.00    +0.000 A 
ATOM      6  N   UNL     1       1.914   5.217  17.821  0.00  0.00    +0.000 NA
ATOM      7  N   UNL     1       2.394   3.975  17.496  0.00  0.00    +0.000 N 
ATOM      8  C   UNL     1       3.677   3.587  17.850  0.00  0.00    +0.000 A 
ATOM      9  O   UNL     1       3.972   2.437  18.140  0.00  0.00    +0.000 OA
ATOM     10  C   UNL     1       4.685   4.663  17.772  0.00  0.00    +0.000 A 
ATOM     11  C   UNL     1       6.045   4.376  17.678  0.00  0.00    +0.000 A 
ATOM     12  C   UNL     1       6.933   5.402  17.356  0.00  0.00    +0.000 A 
ATOM     13  C   UNL     1       6.455   6.698  17.122  0.00  0.00    +0.000 A 
ATOM     14  C   UNL     1       5.101   6.997  17.310  0.00  0.00    +0.000 A 
ATOM     15  C   UNL     1       4.229   5.973  17.680  0.00  0.00    +0.000 A 
ATOM     16  H   UNL     1       1.697   3.235  17.517  0.00  0.00    +0.000 HD
ENDBRANCH   2   5
BRANCH   1  21
ATOM     17  C   UNL     1      -1.012  10.491  18.377  0.00  0.00    +0.000 A 
ATOM     18  C   UNL     1      -0.781  11.223  19.556  0.00  0.00    +0.000 A 
ATOM     19  C   UNL     1       0.380  11.053  20.311  0.00  0.00    +0.000 A 
ATOM     20  C   UNL     1       1.342  10.131  19.919  0.00  0.00    +0.000 A 
ATOM     21  C   UNL     1       1.148   9.373  18.769  0.00  0.00    +0.000 A 
ATOM     22  C   UNL     1      -0.020   9.564  18.000  0.00  0.00    +0.000 A 
BRANCH  17  28
ATOM     23  C   UNL     1      -5.543  12.237  18.252  0.00  0.00    +0.000 C 
ATOM     24  C   UNL     1      -4.412  11.551  17.553  0.00  0.00    +0.000 A 
ATOM     25  N   UNL     1      -4.570  11.294  16.244  0.00  0.00    +0.000 NA
ATOM     26  C   UNL     1      -3.536  10.709  15.626  0.00  0.00    +0.000 A 
ATOM     27  C   UNL     1      -2.361  10.379  16.266  0.00  0.00    +0.000 A 
ATOM     28  C   UNL     1      -2.267  10.693  17.608  0.00  0.00    +0.000 A 
ATOM     29  N   UNL     1      -3.302  11.267  18.272  0.00  0.00    +0.000 NA
ENDBRANCH  17  28
ENDBRANCH   1  21
TORSDOF 3
ENDMDL
MODEL 9
REMARK VINA RESULT:      -8.3      2.115      3.422
REMARK  Name = 
REMARK  4 active torsions:
REMARK  status: ('A' for Active; 'I' for Inactive)
REMARK    1  A    between atoms: C_1  and  C_2
REMARK    2  A    between atoms: C_6  and  C_7
REMARK    3  A    between atoms: C_11  and  N_12
REMARK    4  A    between atoms: C_13  and  C_15
REMARK                            x       y       z     vdW  Elec       q    Type
REMARK                         _______ _______ _______ _____ _____    ______ ____
ROOT
ATOM      1  N   UNL     1       2.626   6.887  18.229  0.00  0.00    +0.000 N 
ATOM      2  C   UNL     1       3.916   6.493  17.898  0.00  0.00    +0.000 C 
ATOM      3  O   UNL     1       4.834   7.144  17.434  0.00  0.00    +0.000 OA
ATOM      4  H   UNL     1       2.056   6.124  18.594  0.00  0.00    +0.000 HD
ENDROOT
BRANCH   2   5
ATOM      5  C   UNL     1       4.154   5.076  18.440  0.00  0.00    +0.000 A 
ATOM      6  N   UNL     1       5.034   4.377  17.770  0.00  0.00    +0.000 NA
ATOM      7  N   UNL     1       4.834   3.022  17.744  0.00  0.00    +0.000 N 
ATOM      8  C   UNL     1       3.577   2.479  17.961  0.00  0.00    +0.000 A 
ATOM      9  O   UNL     1       3.185   1.458  17.414  0.00  0.00    +0.000 OA
ATOM     10  C   UNL     1       2.771   3.188  18.974  0.00  0.00    +0.000 A 
ATOM     11  C   UNL     1       1.699   2.567  19.612  0.00  0.00    +0.000 A 
ATOM     12  C   UNL     1       1.128   3.178  20.728  0.00  0.00    +0.000 A 
ATOM     13  C   UNL     1       1.638   4.395  21.200  0.00  0.00    +0.000 A 
ATOM     14  C   UNL     1       2.652   5.057  20.500  0.00  0.00    +0.000 A 
ATOM     15  C   UNL     1       3.182   4.460  19.356  0.00  0.00    +0.000 A 
ATOM     16  H   UNL     1       5.411   2.524  17.071  0.00  0.00    +0.000 HD
ENDBRANCH   2   5
BRANCH   1  21
ATOM     17  C   UNL     1       1.041   9.772  19.960  0.00  0.00    +0.000 A 
ATOM     18  C   UNL     1       1.272  10.771  18.997  0.00  0.00    +0.000 A 
ATOM     19  C   UNL     1       1.896  10.491  17.781  0.00  0.00    +0.000 A 
ATOM     20  C   UNL     1       2.326   9.201  17.496  0.00  0.00    +0.000 A 
ATOM     21  C   UNL     1       2.134   8.184  18.426  0.00  0.00    +0.000 A 
ATOM     22  C   UNL     1       1.484   8.472  19.645  0.00  0.00    +0.000 A 
BRANCH  17  28
ATOM     23  C   UNL     1      -1.461  13.001  22.588  0.00  0.00    +0.000 C 
ATOM     24  C   UNL     1      -0.829  11.649  22.478  0.00  0.00    +0.000 A 
ATOM     25  N   UNL     1      -1.022  10.800  23.501  0.00  0.00    +0.000 NA
ATOM     26  C   UNL     1      -0.477   9.584  23.372  0.00  0.00    +0.000 A 
ATOM     27  C   UNL     1       0.245   9.191  22.266  0.00  0.00    +0.000 A 
ATOM     28  C   UNL     1       0.384  10.114  21.248  0.00  0.00    +0.000 A 
ATOM     29  N   UNL     1      -0.137  11.363  21.351  0.00  0.00    +0.000 NA
ENDBRANCH  17  28
ENDBRANCH   1  21
TORSDOF 3
ENDMDL
