MODEL 1
REMARK VINA RESULT:      -9.6      0.000      0.000
REMARK  Name = 
REMARK  5 active torsions:
REMARK  status: ('A' for Active; 'I' for Inactive)
REMARK    1  A    between atoms: C_2  and  C_3
REMARK    2  A    between atoms: C_8  and  C_9
REMARK    3  A    between atoms: C_9  and  O_10
REMARK    4  A    between atoms: C_18  and  C_19
REMARK    5  A    between atoms: C_19  and  N_20
REMARK                            x       y       z     vdW  Elec       q    Type
REMARK                         _______ _______ _______ _____ _____    ______ ____
ROOT
ATOM      1  O   UNL     1       4.212   1.792  19.314  0.00  0.00    +0.000 OA
ATOM      2  C   UNL     1       4.124   3.018  19.270  0.00  0.00    +0.000 C 
ATOM      3  N   UNL     1       3.242   3.737  20.109  0.00  0.00    +0.000 N 
ATOM      4  C   UNL     1       2.508   2.985  21.116  0.00  0.00    +0.000 C 
ATOM      5  C   UNL     1       1.057   3.248  20.789  0.00  0.00    +0.000 C 
ATOM      6  C   UNL     1       1.077   4.711  20.406  0.00  0.00    +0.000 C 
ATOM      7  C   UNL     1       2.419   4.903  19.648  0.00  0.00    +0.000 C 
ENDROOT
BRANCH   2   8
ATOM      8  C   UNL     1       5.025   3.741  18.370  0.00  0.00    +0.000 A 
ATOM      9  C   UNL     1       5.961   4.658  18.873  0.00  0.00    +0.000 A 
ATOM     10  C   UNL     1       6.826   5.372  18.046  0.00  0.00    +0.000 A 
ATOM     11  C   UNL     1       6.734   5.074  16.671  0.00  0.00    +0.000 A 
ATOM     12  N   UNL     1       7.437   5.504  15.580  0.00  0.00    +0.000 N 
ATOM     13  C   UNL     1       6.938   4.875  14.463  0.00  0.00    +0.000 A 
ATOM     14  N   UNL     1       5.922   4.097  14.785  0.00  0.00    +0.000 NA
ATOM     15  C   UNL     1       5.793   4.211  16.145  0.00  0.00    +0.000 A 
ATOM     16  C   UNL     1       4.873   3.571  16.986  0.00  0.00    +0.000 A 
ATOM     17  H   UNL     1       8.183   6.151  15.564  0.00  0.00    +0.000 HD
BRANCH  13  18
ATOM     18  C   UNL     1       7.513   5.070  13.114  0.00  0.00    +0.000 C 
BRANCH  18  19
ATOM     19  O   UNL     1       8.672   5.889  13.251  0.00  0.00    +0.000 OA
ATOM     20  H   UNL     1       8.504   6.678  12.704  0.00  0.00    +0.000 HD
ENDBRANCH  18  19
ENDBRANCH  13  18
ENDBRANCH   2   8
BRANCH   7  21
ATOM     21  C   UNL     1       3.031   6.305  19.942  0.00  0.00    +0.000 C 
BRANCH  21  22
ATOM     22  N   UNL     1       2.397   7.385  19.219  0.00  0.00    +0.000 N 
ATOM     23  C   UNL     1       2.458   7.569  17.868  0.00  0.00    +0.000 A 
ATOM     24  N   UNL     1       2.078   8.784  17.546  0.00  0.00    +0.000 NA
ATOM     25  C   UNL     1       1.479   9.270  18.681  0.00  0.00    +0.000 A 
ATOM     26  C   UNL     1       0.820  10.477  18.897  0.00  0.00    +0.000 A 
ATOM     27  C   UNL     1      -0.088  10.535  19.957  0.00  0.00    +0.000 A 
ATOM     28  C   UNL     1      -0.040   9.577  20.971  0.00  0.00    +0.000 A 
ATOM     29  C   UNL     1       0.895   8.534  20.941  0.00  0.00    +0.000 A 
ATOM     30  C   UNL     1       1.560   8.345  19.724  0.00  0.00    +0.000 A 
ENDBRANCH  21  22
ENDBRANCH   7  21
TORSDOF 5
ENDMDL
MODEL 2
REMARK VINA RESULT:      -8.4      1.781      2.413
REMARK  Name = 
REMARK  5 active torsions:
REMARK  status: ('A' for Active; 'I' for Inactive)
REMARK    1  A    between atoms: C_2  and  C_3
REMARK    2  A    between atoms: C_8  and  C_9
REMARK    3  A    between atoms: C_9  and  O_10
REMARK    4  A    between atoms: C_18  and  C_19
REMARK    5  A    between atoms: C_19  and  N_20
REMARK                            x       y       z     vdW  Elec       q    Type
REMARK                         _______ _______ _______ _____ _____    ______ ____
ROOT
ATOM      1  O   UNL     1       4.453   1.914  19.198  0.00  0.00    +0.000 OA
ATOM      2  C   UNL     1       4.147   3.103  19.288  0.00  0.00    +0.000 C 
ATOM      3  N   UNL     1       3.148   3.554  20.180  0.00  0.00    +0.000 N 
ATOM      4  C   UNL     1       2.557   2.574  21.080  0.00  0.00    +0.000 C 
ATOM      5  C   UNL     1       1.083   2.612  20.750  0.00  0.00    +0.000 C 
ATOM      6  C   UNL     1       0.843   4.089  20.532  0.00  0.00    +0.000 C 
ATOM      7  C   UNL     1       2.131   4.600  19.832  0.00  0.00    +0.000 C 
ENDROOT
BRANCH   2   8
ATOM      8  C   UNL     1       4.908   4.071  18.495  0.00  0.00    +0.000 A 
ATOM      9  C   UNL     1       4.798   4.099  17.097  0.00  0.00    +0.000 A 
ATOM     10  C   UNL     1       5.515   4.999  16.309  0.00  0.00    +0.000 A 
ATOM     11  C   UNL     1       6.320   5.915  17.016  0.00  0.00    +0.000 A 
ATOM     12  N   UNL     1       7.100   6.964  16.616  0.00  0.00    +0.000 N 
ATOM     13  C   UNL     1       7.662   7.540  17.732  0.00  0.00    +0.000 A 
ATOM     14  N   UNL     1       7.311   6.882  18.820  0.00  0.00    +0.000 NA
ATOM     15  C   UNL     1       6.480   5.882  18.388  0.00  0.00    +0.000 A 
ATOM     16  C   UNL     1       5.819   4.911  19.151  0.00  0.00    +0.000 A 
ATOM     17  H   UNL     1       7.252   7.282  15.693  0.00  0.00    +0.000 HD
BRANCH  13  18
ATOM     18  C   UNL     1       8.521   8.743  17.662  0.00  0.00    +0.000 C 
BRANCH  18  19
ATOM     19  O   UNL     1       8.998   9.011  18.979  0.00  0.00    +0.000 OA
ATOM     20  H   UNL     1       9.940   9.244  18.876  0.00  0.00    +0.000 HD
ENDBRANCH  18  19
ENDBRANCH  13  18
ENDBRANCH   2   8
BRANCH   7  21
ATOM     21  C   UNL     1       2.482   6.046  20.295  0.00  0.00    +0.000 C 
BRANCH  21  22
ATOM     22  N   UNL     1       2.348   7.043  19.255  0.00  0.00    +0.000 N 
ATOM     23  C   UNL     1       2.710   6.871  17.950  0.00  0.00    +0.000 A 
ATOM     24  N   UNL     1       2.780   8.027  17.331  0.00  0.00    +0.000 NA
ATOM     25  C   UNL     1       2.159   8.910  18.178  0.00  0.00    +0.000 A 
ATOM     26  C   UNL     1       1.867  10.260  18.004  0.00  0.00    +0.000 A 
ATOM     27  C   UNL     1       0.842  10.804  18.780  0.00  0.00    +0.000 A 
ATOM     28  C   UNL     1       0.410  10.141  19.931  0.00  0.00    +0.000 A 
ATOM     29  C   UNL     1       0.975   8.920  20.320  0.00  0.00    +0.000 A 
ATOM     30  C   UNL     1       1.764   8.278  19.358  0.00  0.00    +0.000 A 
ENDBRANCH  21  22
ENDBRANCH   7  21
TORSDOF 5
ENDMDL
MODEL 3
REMARK VINA RESULT:      -8.3      0.831      1.509
REMARK  Name = 
REMARK  5 active torsions:
REMARK  status: ('A' for Active; 'I' for Inactive)
REMARK    1  A    between atoms: C_2  and  C_3
REMARK    2  A    between atoms: C_8  and  C_9
REMARK    3  A    between atoms: C_9  and  O_10
REMARK    4  A    between atoms: C_18  and  C_19
REMARK    5  A    between atoms: C_19  and  N_20
REMARK                            x       y       z     vdW  Elec       q    Type
REMARK                         _______ _______ _______ _____ _____    ______ ____
ROOT
ATOM      1  O   UNL     1       3.841   1.681  18.755  0.00  0.00    +0.000 OA
ATOM      2  C   UNL     1       3.871   2.908  18.838  0.00  0.00    +0.000 C 
ATOM      3  N   UNL     1       3.048   3.619  19.741  0.00  0.00    +0.000 N 
ATOM      4  C   UNL     1       2.230   2.841  20.661  0.00  0.00    +0.000 C 
ATOM      5  C   UNL     1       0.816   3.274  20.355  0.00  0.00    +0.000 C 
ATOM      6  C   UNL     1       0.981   4.760  20.126  0.00  0.00    +0.000 C 
ATOM      7  C   UNL     1       2.347   4.899  19.399  0.00  0.00    +0.000 C 
ENDROOT
BRANCH   2   8
ATOM      8  C   UNL     1       4.850   3.630  18.022  0.00  0.00    +0.000 A 
ATOM      9  C   UNL     1       5.830   4.436  18.622  0.00  0.00    +0.000 A 
ATOM     10  C   UNL     1       6.771   5.146  17.877  0.00  0.00    +0.000 A 
ATOM     11  C   UNL     1       6.705   4.960  16.482  0.00  0.00    +0.000 A 
ATOM     12  N   UNL     1       7.473   5.419  15.448  0.00  0.00    +0.000 N 
ATOM     13  C   UNL     1       6.971   4.912  14.272  0.00  0.00    +0.000 A 
ATOM     14  N   UNL     1       5.893   4.187  14.503  0.00  0.00    +0.000 NA
ATOM     15  C   UNL     1       5.725   4.208  15.863  0.00  0.00    +0.000 A 
ATOM     16  C   UNL     1       4.735   3.575  16.626  0.00  0.00    +0.000 A 
ATOM     17  H   UNL     1       8.263   6.010  15.503  0.00  0.00    +0.000 HD
BRANCH  13  18
ATOM     18  C   UNL     1       7.604   5.166  12.959  0.00  0.00    +0.000 C 
BRANCH  18  19
ATOM     19  O   UNL     1       8.782   5.936  13.188  0.00  0.00    +0.000 OA
ATOM     20  H   UNL     1       9.484   5.290  13.388  0.00  0.00    +0.000 HD
ENDBRANCH  18  19
ENDBRANCH  13  18
ENDBRANCH   2   8
BRANCH   7  21
ATOM     21  C   UNL     1       3.084   6.198  19.841  0.00  0.00    +0.000 C 
BRANCH  21  22
ATOM     22  N   UNL     1       2.198   7.293  20.171  0.00  0.00    +0.000 N 
ATOM     23  C   UNL     1       1.668   7.529  21.406  0.00  0.00    +0.000 A 
ATOM     24  N   UNL     1       0.664   8.372  21.328  0.00  0.00    +0.000 NA
ATOM     25  C   UNL     1       0.761   8.907  20.067  0.00  0.00    +0.000 A 
ATOM     26  C   UNL     1       0.010   9.912  19.463  0.00  0.00    +0.000 A 
ATOM     27  C   UNL     1       0.587  10.588  18.386  0.00  0.00    +0.000 A 
ATOM     28  C   UNL     1       1.672  10.027  17.710  0.00  0.00    +0.000 A 
ATOM     29  C   UNL     1       2.215   8.797  18.103  0.00  0.00    +0.000 A 
ATOM     30  C   UNL     1       1.809   8.322  19.356  0.00  0.00    +0.000 A 
ENDBRANCH  21  22
ENDBRANCH   7  21
TORSDOF 5
ENDMDL
MODEL 4
REMARK VINA RESULT:      -8.0      2.061      2.932
REMARK  Name = 
REMARK  5 active torsions:
REMARK  status: ('A' for Active; 'I' for Inactive)
REMARK    1  A    between atoms: C_2  and  C_3
REMARK    2  A    between atoms: C_8  and  C_9
REMARK    3  A    between atoms: C_9  and  O_10
REMARK    4  A    between atoms: C_18  and  C_19
REMARK    5  A    between atoms: C_19  and  N_20
REMARK                            x       y       z     vdW  Elec       q    Type
REMARK                         _______ _______ _______ _____ _____    ______ ____
ROOT
ATOM      1  O   UNL     1       3.712   1.978  17.437  0.00  0.00    +0.000 OA
ATOM      2  C   UNL     1       3.660   3.038  18.058  0.00  0.00    +0.000 C 
ATOM      3  N   UNL     1       2.843   3.200  19.199  0.00  0.00    +0.000 N 
ATOM      4  C   UNL     1       2.135   2.027  19.692  0.00  0.00    +0.000 C 
ATOM      5  C   UNL     1       0.679   2.425  19.640  0.00  0.00    +0.000 C 
ATOM      6  C   UNL     1       0.727   3.867  20.094  0.00  0.00    +0.000 C 
ATOM      7  C   UNL     1       2.035   4.432  19.478  0.00  0.00    +0.000 C 
ENDROOT
BRANCH   2   8
ATOM      8  C   UNL     1       4.539   4.130  17.630  0.00  0.00    +0.000 A 
ATOM      9  C   UNL     1       4.448   4.660  16.334  0.00  0.00    +0.000 A 
ATOM     10  C   UNL     1       5.275   5.690  15.889  0.00  0.00    +0.000 A 
ATOM     11  C   UNL     1       6.176   6.200  16.845  0.00  0.00    +0.000 A 
ATOM     12  N   UNL     1       7.080   7.225  16.814  0.00  0.00    +0.000 N 
ATOM     13  C   UNL     1       7.695   7.304  18.042  0.00  0.00    +0.000 A 
ATOM     14  N   UNL     1       7.256   6.350  18.841  0.00  0.00    +0.000 NA
ATOM     15  C   UNL     1       6.317   5.668  18.113  0.00  0.00    +0.000 A 
ATOM     16  C   UNL     1       5.537   4.574  18.509  0.00  0.00    +0.000 A 
ATOM     17  H   UNL     1       7.278   7.827  16.056  0.00  0.00    +0.000 HD
BRANCH  13  18
ATOM     18  C   UNL     1       8.692   8.347  18.370  0.00  0.00    +0.000 C 
BRANCH  18  19
ATOM     19  O   UNL     1       8.126   9.610  18.026  0.00  0.00    +0.000 OA
ATOM     20  H   UNL     1       8.486  10.245  18.672  0.00  0.00    +0.000 HD
ENDBRANCH  18  19
ENDBRANCH  13  18
ENDBRANCH   2   8
BRANCH   7  21
ATOM     21  C   UNL     1       2.705   5.461  20.438  0.00  0.00    +0.000 C 
BRANCH  21  22
ATOM     22  N   UNL     1       2.112   6.780  20.391  0.00  0.00    +0.000 N 
ATOM     23  C   UNL     1       1.493   7.401  21.437  0.00  0.00    +0.000 A 
ATOM     24  N   UNL     1       0.780   8.420  21.016  0.00  0.00    +0.000 NA
ATOM     25  C   UNL     1       1.200   8.625  19.725  0.00  0.00    +0.000 A 
ATOM     26  C   UNL     1       0.848   9.622  18.818  0.00  0.00    +0.000 A 
ATOM     27  C   UNL     1       1.736   9.887  17.774  0.00  0.00    +0.000 A 
ATOM     28  C   UNL     1       2.713   8.950  17.434  0.00  0.00    +0.000 A 
ATOM     29  C   UNL     1       2.838   7.743  18.136  0.00  0.00    +0.000 A 
ATOM     30  C   UNL     1       2.141   7.667  19.347  0.00  0.00    +0.000 A 
ENDBRANCH  21  22
ENDBRANCH   7  21
TORSDOF 5
ENDMDL
MODEL 5
REMARK VINA RESULT:      -7.5      2.378      6.640
REMARK  Name = 
REMARK  5 active torsions:
REMARK  status: ('A' for Active; 'I' for Inactive)
REMARK    1  A    between atoms: C_2  and  C_3
REMARK    2  A    between atoms: C_8  and  C_9
REMARK    3  A    between atoms: C_9  and  O_10
REMARK    4  A    between atoms: C_18  and  C_19
REMARK    5  A    between atoms: C_19  and  N_20
REMARK                            x       y       z     vdW  Elec       q    Type
REMARK                         _______ _______ _______ _____ _____    ______ ____
ROOT
ATOM      1  O   UNL     1       6.177   7.447  16.335  0.00  0.00    +0.000 OA
ATOM      2  C   UNL     1       5.584   6.476  16.801  0.00  0.00    +0.000 C 
ATOM      3  N   UNL     1       5.934   5.149  16.462  0.00  0.00    +0.000 N 
ATOM      4  C   UNL     1       7.102   4.958  15.615  0.00  0.00    +0.000 C 
ATOM      5  C   UNL     1       6.567   4.225  14.407  0.00  0.00    +0.000 C 
ATOM      6  C   UNL     1       5.576   3.267  15.029  0.00  0.00    +0.000 C 
ATOM      7  C   UNL     1       4.932   4.066  16.195  0.00  0.00    +0.000 C 
ENDROOT
BRANCH   2   8
ATOM      8  C   UNL     1       4.538   6.721  17.797  0.00  0.00    +0.000 A 
ATOM      9  C   UNL     1       4.489   5.977  18.986  0.00  0.00    +0.000 A 
ATOM     10  C   UNL     1       3.502   6.175  19.951  0.00  0.00    +0.000 A 
ATOM     11  C   UNL     1       2.585   7.209  19.676  0.00  0.00    +0.000 A 
ATOM     12  N   UNL     1       1.543   7.738  20.386  0.00  0.00    +0.000 N 
ATOM     13  C   UNL     1       0.984   8.756  19.650  0.00  0.00    +0.000 A 
ATOM     14  N   UNL     1       1.593   8.873  18.486  0.00  0.00    +0.000 NA
ATOM     15  C   UNL     1       2.584   7.927  18.496  0.00  0.00    +0.000 A 
ATOM     16  C   UNL     1       3.530   7.650  17.501  0.00  0.00    +0.000 A 
ATOM     17  H   UNL     1       1.224   7.461  21.280  0.00  0.00    +0.000 HD
BRANCH  13  18
ATOM     18  C   UNL     1      -0.135   9.583  20.153  0.00  0.00    +0.000 C 
BRANCH  18  19
ATOM     19  O   UNL     1      -0.233   9.370  21.560  0.00  0.00    +0.000 OA
ATOM     20  H   UNL     1       0.627   8.997  21.830  0.00  0.00    +0.000 HD
ENDBRANCH  18  19
ENDBRANCH  13  18
ENDBRANCH   2   8
BRANCH   7  21
ATOM     21  C   UNL     1       4.623   3.135  17.406  0.00  0.00    +0.000 C 
BRANCH  21  22
ATOM     22  N   UNL     1       3.256   3.212  17.871  0.00  0.00    +0.000 N 
ATOM     23  C   UNL     1       2.161   3.370  17.071  0.00  0.00    +0.000 A 
ATOM     24  N   UNL     1       1.116   3.732  17.779  0.00  0.00    +0.000 NA
ATOM     25  C   UNL     1       1.486   3.502  19.081  0.00  0.00    +0.000 A 
ATOM     26  C   UNL     1       0.747   3.626  20.255  0.00  0.00    +0.000 A 
ATOM     27  C   UNL     1       1.178   2.902  21.368  0.00  0.00    +0.000 A 
ATOM     28  C   UNL     1       2.481   2.404  21.415  0.00  0.00    +0.000 A 
ATOM     29  C   UNL     1       3.372   2.600  20.352  0.00  0.00    +0.000 A 
ATOM     30  C   UNL     1       2.804   3.051  19.155  0.00  0.00    +0.000 A 
ENDBRANCH  21  22
ENDBRANCH   7  21
TORSDOF 5
ENDMDL
MODEL 6
REMARK VINA RESULT:      -7.4      1.002      1.594
REMARK  Name = 
REMARK  5 active torsions:
REMARK  status: ('A' for Active; 'I' for Inactive)
REMARK    1  A    between atoms: C_2  and  C_3
REMARK    2  A    between atoms: C_8  and  C_9
REMARK    3  A    between atoms: C_9  and  O_10
REMARK    4  A    between atoms: C_18  and  C_19
REMARK    5  A    between atoms: C_19  and  N_20
REMARK                            x       y       z     vdW  Elec       q    Type
REMARK                         _______ _______ _______ _____ _____    ______ ____
ROOT
ATOM      1  O   UNL     1       5.136   2.692  20.174  0.00  0.00    +0.000 OA
ATOM      2  C   UNL     1       4.603   3.523  19.439  0.00  0.00    +0.000 C 
ATOM      3  N   UNL     1       3.257   3.919  19.608  0.00  0.00    +0.000 N 
ATOM      4  C   UNL     1       2.539   3.391  20.759  0.00  0.00    +0.000 C 
ATOM      5  C   UNL     1       1.361   2.662  20.157  0.00  0.00    +0.000 C 
ATOM      6  C   UNL     1       0.961   3.583  19.025  0.00  0.00    +0.000 C 
ATOM      7  C   UNL     1       2.304   4.134  18.471  0.00  0.00    +0.000 C 
ENDROOT
BRANCH   2   8
ATOM      8  C   UNL     1       5.429   4.165  18.414  0.00  0.00    +0.000 A 
ATOM      9  C   UNL     1       6.369   5.147  18.760  0.00  0.00    +0.000 A 
ATOM     10  C   UNL     1       7.164   5.788  17.810  0.00  0.00    +0.000 A 
ATOM     11  C   UNL     1       6.996   5.345  16.482  0.00  0.00    +0.000 A 
ATOM     12  N   UNL     1       7.621   5.671  15.311  0.00  0.00    +0.000 N 
ATOM     13  C   UNL     1       7.073   4.918  14.299  0.00  0.00    +0.000 A 
ATOM     14  N   UNL     1       6.100   4.158  14.763  0.00  0.00    +0.000 NA
ATOM     15  C   UNL     1       6.049   4.412  16.108  0.00  0.00    +0.000 A 
ATOM     16  C   UNL     1       5.199   3.847  17.068  0.00  0.00    +0.000 A 
ATOM     17  H   UNL     1       8.348   6.328  15.180  0.00  0.00    +0.000 HD
BRANCH  13  18
ATOM     18  C   UNL     1       7.560   4.981  12.903  0.00  0.00    +0.000 C 
BRANCH  18  19
ATOM     19  O   UNL     1       8.692   5.848  12.878  0.00  0.00    +0.000 OA
ATOM     20  H   UNL     1       9.392   5.355  12.410  0.00  0.00    +0.000 HD
ENDBRANCH  18  19
ENDBRANCH  13  18
ENDBRANCH   2   8
BRANCH   7  21
ATOM     21  C   UNL     1       2.149   5.613  18.004  0.00  0.00    +0.000 C 
BRANCH  21  22
ATOM     22  N   UNL     1       1.955   6.552  19.087  0.00  0.00    +0.000 N 
ATOM     23  C   UNL     1       2.081   6.257  20.414  0.00  0.00    +0.000 A 
ATOM     24  N   UNL     1       1.534   7.196  21.153  0.00  0.00    +0.000 NA
ATOM     25  C   UNL     1       1.333   8.242  20.286  0.00  0.00    +0.000 A 
ATOM     26  C   UNL     1       0.857   9.527  20.533  0.00  0.00    +0.000 A 
ATOM     27  C   UNL     1       1.183  10.523  19.610  0.00  0.00    +0.000 A 
ATOM     28  C   UNL     1       1.615  10.174  18.329  0.00  0.00    +0.000 A 
ATOM     29  C   UNL     1       1.749   8.832  17.948  0.00  0.00    +0.000 A 
ATOM     30  C   UNL     1       1.711   7.896  18.988  0.00  0.00    +0.000 A 
ENDBRANCH  21  22
ENDBRANCH   7  21
TORSDOF 5
ENDMDL
MODEL 7
REMARK VINA RESULT:      -7.2      2.688      7.248
REMARK  Name = 
REMARK  5 active torsions:
REMARK  status: ('A' for Active; 'I' for Inactive)
REMARK    1  A    between atoms: C_2  and  C_3
REMARK    2  A    between atoms: C_8  and  C_9
REMARK    3  A    between atoms: C_9  and  O_10
REMARK    4  A    between atoms: C_18  and  C_19
REMARK    5  A    between atoms: C_19  and  N_20
REMARK                            x       y       z     vdW  Elec       q    Type
REMARK                         _______ _______ _______ _____ _____    ______ ____
ROOT
ATOM      1  O   UNL     1       1.778   5.159  21.050  0.00  0.00    +0.000 OA
ATOM      2  C   UNL     1       2.318   5.341  19.960  0.00  0.00    +0.000 C 
ATOM      3  N   UNL     1       2.951   4.294  19.252  0.00  0.00    +0.000 N 
ATOM      4  C   UNL     1       2.850   2.951  19.806  0.00  0.00    +0.000 C 
ATOM      5  C   UNL     1       4.285   2.532  20.020  0.00  0.00    +0.000 C 
ATOM      6  C   UNL     1       4.968   3.093  18.792  0.00  0.00    +0.000 C 
ATOM      7  C   UNL     1       4.254   4.447  18.528  0.00  0.00    +0.000 C 
ENDROOT
BRANCH   2   8
ATOM      8  C   UNL     1       2.224   6.674  19.359  0.00  0.00    +0.000 A 
ATOM      9  C   UNL     1       2.741   6.923  18.079  0.00  0.00    +0.000 A 
ATOM     10  C   UNL     1       2.679   8.181  17.480  0.00  0.00    +0.000 A 
ATOM     11  C   UNL     1       2.016   9.175  18.228  0.00  0.00    +0.000 A 
ATOM     12  N   UNL     1       1.702  10.479  17.962  0.00  0.00    +0.000 N 
ATOM     13  C   UNL     1       1.028  10.995  19.044  0.00  0.00    +0.000 A 
ATOM     14  N   UNL     1       0.935  10.095  20.004  0.00  0.00    +0.000 NA
ATOM     15  C   UNL     1       1.538   8.969  19.507  0.00  0.00    +0.000 A 
ATOM     16  C   UNL     1       1.691   7.721  20.124  0.00  0.00    +0.000 A 
ATOM     17  H   UNL     1       1.906  10.990  17.142  0.00  0.00    +0.000 HD
BRANCH  13  18
ATOM     18  C   UNL     1       0.489  12.373  19.066  0.00  0.00    +0.000 C 
BRANCH  18  19
ATOM     19  O   UNL     1      -0.328  12.536  17.909  0.00  0.00    +0.000 OA
ATOM     20  H   UNL     1      -0.560  13.483  17.881  0.00  0.00    +0.000 HD
ENDBRANCH  18  19
ENDBRANCH  13  18
ENDBRANCH   2   8
BRANCH   7  21
ATOM     21  C   UNL     1       4.135   4.725  16.999  0.00  0.00    +0.000 C 
BRANCH  21  22
ATOM     22  N   UNL     1       5.408   4.913  16.336  0.00  0.00    +0.000 N 
ATOM     23  C   UNL     1       6.540   5.390  16.931  0.00  0.00    +0.000 A 
ATOM     24  N   UNL     1       7.420   5.756  16.028  0.00  0.00    +0.000 NA
ATOM     25  C   UNL     1       6.954   5.219  14.854  0.00  0.00    +0.000 A 
ATOM     26  C   UNL     1       7.523   5.217  13.584  0.00  0.00    +0.000 A 
ATOM     27  C   UNL     1       7.104   4.229  12.690  0.00  0.00    +0.000 A 
ATOM     28  C   UNL     1       5.911   3.541  12.919  0.00  0.00    +0.000 A 
ATOM     29  C   UNL     1       5.124   3.808  14.047  0.00  0.00    +0.000 A 
ATOM     30  C   UNL     1       5.734   4.569  15.051  0.00  0.00    +0.000 A 
ENDBRANCH  21  22
ENDBRANCH   7  21
TORSDOF 5
ENDMDL
MODEL 8
REMARK VINA RESULT:      -7.2      2.556      7.250
REMARK  Name = 
REMARK  5 active torsions:
REMARK  status: ('A' for Active; 'I' for Inactive)
REMARK    1  A    between atoms: C_2  and  C_3
REMARK    2  A    between atoms: C_8  and  C_9
REMARK    3  A    between atoms: C_9  and  O_10
REMARK    4  A    between atoms: C_18  and  C_19
REMARK    5  A    between atoms: C_19  and  N_20
REMARK                            x       y       z     vdW  Elec       q    Type
REMARK                         _______ _______ _______ _____ _____    ______ ____
ROOT
ATOM      1  O   UNL     1       1.000   3.841  18.503  0.00  0.00    +0.000 OA
ATOM      2  C   UNL     1       2.018   4.496  18.724  0.00  0.00    +0.000 C 
ATOM      3  N   UNL     1       3.308   3.920  18.663  0.00  0.00    +0.000 N 
ATOM      4  C   UNL     1       3.407   2.537  18.218  0.00  0.00    +0.000 C 
ATOM      5  C   UNL     1       4.070   1.825  19.372  0.00  0.00    +0.000 C 
ATOM      6  C   UNL     1       5.097   2.839  19.825  0.00  0.00    +0.000 C 
ATOM      7  C   UNL     1       4.399   4.214  19.648  0.00  0.00    +0.000 C 
ENDROOT
BRANCH   2   8
ATOM      8  C   UNL     1       1.872   5.930  18.981  0.00  0.00    +0.000 A 
ATOM      9  C   UNL     1       2.233   6.875  18.008  0.00  0.00    +0.000 A 
ATOM     10  C   UNL     1       2.118   8.248  18.222  0.00  0.00    +0.000 A 
ATOM     11  C   UNL     1       1.567   8.624  19.463  0.00  0.00    +0.000 A 
ATOM     12  N   UNL     1       1.243   9.837  20.004  0.00  0.00    +0.000 N 
ATOM     13  C   UNL     1       0.714   9.630  21.257  0.00  0.00    +0.000 A 
ATOM     14  N   UNL     1       0.725   8.345  21.557  0.00  0.00    +0.000 NA
ATOM     15  C   UNL     1       1.245   7.718  20.455  0.00  0.00    +0.000 A 
ATOM     16  C   UNL     1       1.452   6.348  20.252  0.00  0.00    +0.000 A 
ATOM     17  H   UNL     1       1.353  10.727  19.591  0.00  0.00    +0.000 HD
BRANCH  13  18
ATOM     18  C   UNL     1       0.203  10.733  22.100  0.00  0.00    +0.000 C 
BRANCH  18  19
ATOM     19  O   UNL     1      -0.035  10.206  23.404  0.00  0.00    +0.000 OA
ATOM     20  H   UNL     1       0.105  10.950  24.018  0.00  0.00    +0.000 HD
ENDBRANCH  18  19
ENDBRANCH  13  18
ENDBRANCH   2   8
BRANCH   7  21
ATOM     21  C   UNL     1       5.419   5.305  19.202  0.00  0.00    +0.000 C 
BRANCH  21  22
ATOM     22  N   UNL     1       6.285   4.889  18.120  0.00  0.00    +0.000 N 
ATOM     23  C   UNL     1       7.548   4.395  18.270  0.00  0.00    +0.000 A 
ATOM     24  N   UNL     1       8.196   4.418  17.128  0.00  0.00    +0.000 NA
ATOM     25  C   UNL     1       7.224   4.646  16.186  0.00  0.00    +0.000 A 
ATOM     26  C   UNL     1       7.318   4.689  14.797  0.00  0.00    +0.000 A 
ATOM     27  C   UNL     1       6.150   4.469  14.065  0.00  0.00    +0.000 A 
ATOM     28  C   UNL     1       4.904   4.594  14.682  0.00  0.00    +0.000 A 
ATOM     29  C   UNL     1       4.797   4.921  16.040  0.00  0.00    +0.000 A 
ATOM     30  C   UNL     1       5.977   4.825  16.787  0.00  0.00    +0.000 A 
ENDBRANCH  21  22
ENDBRANCH   7  21
TORSDOF 5
ENDMDL
MODEL 9
REMARK VINA RESULT:      -7.1      2.854      6.585
REMARK  Name = 
REMARK  5 active torsions:
REMARK  status: ('A' for Active; 'I' for Inactive)
REMARK    1  A    between atoms: C_2  and  C_3
REMARK    2  A    between atoms: C_8  and  C_9
REMARK    3  A    between atoms: C_9  and  O_10
REMARK    4  A    between atoms: C_18  and  C_19
REMARK    5  A    between atoms: C_19  and  N_20
REMARK                            x       y       z     vdW  Elec       q    Type
REMARK                         _______ _______ _______ _____ _____    ______ ____
ROOT
ATOM      1  O   UNL     1       0.836   4.589  19.799  0.00  0.00    +0.000 OA
ATOM      2  C   UNL     1       2.035   4.660  19.528  0.00  0.00    +0.000 C 
ATOM      3  N   UNL     1       2.684   5.898  19.319  0.00  0.00    +0.000 N 
ATOM      4  C   UNL     1       1.909   7.110  19.542  0.00  0.00    +0.000 C 
ATOM      5  C   UNL     1       1.955   7.827  18.213  0.00  0.00    +0.000 C 
ATOM      6  C   UNL     1       3.379   7.580  17.767  0.00  0.00    +0.000 C 
ATOM      7  C   UNL     1       3.697   6.135  18.239  0.00  0.00    +0.000 C 
ENDROOT
BRANCH   2   8
ATOM      8  C   UNL     1       2.810   3.417  19.504  0.00  0.00    +0.000 A 
ATOM      9  C   UNL     1       2.815   2.595  18.367  0.00  0.00    +0.000 A 
ATOM     10  C   UNL     1       3.531   1.400  18.312  0.00  0.00    +0.000 A 
ATOM     11  C   UNL     1       4.292   1.097  19.459  0.00  0.00    +0.000 A 
ATOM     12  N   UNL     1       5.155   0.079  19.757  0.00  0.00    +0.000 N 
ATOM     13  C   UNL     1       5.644   0.278  21.026  0.00  0.00    +0.000 A 
ATOM     14  N   UNL     1       5.102   1.352  21.568  0.00  0.00    +0.000 NA
ATOM     15  C   UNL     1       4.271   1.865  20.607  0.00  0.00    +0.000 A 
ATOM     16  C   UNL     1       3.474   3.015  20.672  0.00  0.00    +0.000 A 
ATOM     17  H   UNL     1       5.408  -0.681  19.179  0.00  0.00    +0.000 HD
BRANCH  13  18
ATOM     18  C   UNL     1       6.652  -0.613  21.643  0.00  0.00    +0.000 C 
BRANCH  18  19
ATOM     19  O   UNL     1       6.112  -1.091  22.873  0.00  0.00    +0.000 OA
ATOM     20  H   UNL     1       6.699  -0.745  23.570  0.00  0.00    +0.000 HD
ENDBRANCH  18  19
ENDBRANCH  13  18
ENDBRANCH   2   8
BRANCH   7  21
ATOM     21  C   UNL     1       5.184   6.008  18.685  0.00  0.00    +0.000 C 
BRANCH  21  22
ATOM     22  N   UNL     1       6.119   5.911  17.586  0.00  0.00    +0.000 N 
ATOM     23  C   UNL     1       7.333   6.533  17.529  0.00  0.00    +0.000 A 
ATOM     24  N   UNL     1       7.801   6.529  16.302  0.00  0.00    +0.000 NA
ATOM     25  C   UNL     1       7.012   5.625  15.635  0.00  0.00    +0.000 A 
ATOM     26  C   UNL     1       7.100   5.156  14.327  0.00  0.00    +0.000 A 
ATOM     27  C   UNL     1       6.498   3.929  14.040  0.00  0.00    +0.000 A 
ATOM     28  C   UNL     1       5.537   3.403  14.905  0.00  0.00    +0.000 A 
ATOM     29  C   UNL     1       5.170   4.076  16.078  0.00  0.00    +0.000 A 
ATOM     30  C   UNL     1       6.011   5.124  16.469  0.00  0.00    +0.000 A 
ENDBRANCH  21  22
ENDBRANCH   7  21
TORSDOF 5
ENDMDL
