MODEL 1
REMARK VINA RESULT:      -9.0      0.000      0.000
REMARK  Name = 
REMARK  6 active torsions:
REMARK  status: ('A' for Active; 'I' for Inactive)
REMARK    1  A    between atoms: C_1  and  N_2
REMARK    2  A    between atoms: C_6  and  C_7
REMARK    3  A    between atoms: C_7  and  C_8
REMARK    4  A    between atoms: C_8  and  C_9
REMARK    5  A    between atoms: C_13  and  N_14
REMARK    6  A    between atoms: C_17  and  C_18
REMARK                            x       y       z     vdW  Elec       q    Type
REMARK                         _______ _______ _______ _____ _____    ______ ____
ROOT
ATOM      1  C   UNL     1       4.516   4.931  17.068  0.00  0.00    +0.000 A 
ATOM      2  C   UNL     1       3.679   3.794  17.076  0.00  0.00    +0.000 A 
ATOM      3  C   UNL     1       2.371   3.843  17.556  0.00  0.00    +0.000 A 
ATOM      4  C   UNL     1       1.865   5.033  18.062  0.00  0.00    +0.000 A 
ATOM      5  C   UNL     1       2.641   6.191  18.037  0.00  0.00    +0.000 A 
ATOM      6  C   UNL     1       3.933   6.142  17.502  0.00  0.00    +0.000 A 
ENDROOT
BRANCH   5   7
ATOM      7  N   UNL     1       2.136   7.373  18.630  0.00  0.00    +0.000 N 
ATOM      8  C   UNL     1       2.274   8.648  17.926  0.00  0.00    +0.000 C 
ATOM      9  C   UNL     1       1.100   9.571  18.268  0.00  0.00    +0.000 C 
ATOM     10  C   UNL     1       0.930   9.673  19.766  0.00  0.00    +0.000 C 
ATOM     11  C   UNL     1       1.335   8.652  20.541  0.00  0.00    +0.000 C 
ATOM     12  C   UNL     1       1.820   7.365  19.984  0.00  0.00    +0.000 C 
ATOM     13  O   UNL     1       1.918   6.408  20.746  0.00  0.00    +0.000 OA
BRANCH  10  14
ATOM     14  C   UNL     1       0.372  10.914  20.325  0.00  0.00    +0.000 C 
ATOM     15  C   UNL     1      -1.087  11.199  20.050  0.00  0.00    +0.000 C 
ATOM     16  C   UNL     1      -0.025  12.063  19.440  0.00  0.00    +0.000 C 
ENDBRANCH  10  14
ENDBRANCH   5   7
BRANCH   1  17
ATOM     17  C   UNL     1       6.081   4.832  16.684  0.00  0.00    +0.000 C 
ATOM     18  C   UNL     1       6.891   6.161  16.627  0.00  0.00    +0.000 C 
ATOM     19  O   UNL     1       7.811   5.718  17.647  0.00  0.00    +0.000 OA
ATOM     20  C   UNL     1       7.038   4.524  17.874  0.00  0.00    +0.000 C 
BRANCH  17  21
ATOM     21  C   UNL     1       6.320   3.879  15.494  0.00  0.00    +0.000 C 
BRANCH  21  27
ATOM     22  C   UNL     1       5.798   3.291  12.445  0.00  0.00    +0.000 C 
ATOM     23  N   UNL     1       6.717   4.250  12.998  0.00  0.00    +0.000 N 
ATOM     24  C   UNL     1       7.538   5.064  12.275  0.00  0.00    +0.000 A 
ATOM     25  N   UNL     1       8.268   5.792  13.085  0.00  0.00    +0.000 NA
ATOM     26  N   UNL     1       7.925   5.446  14.370  0.00  0.00    +0.000 NA
ATOM     27  C   UNL     1       6.973   4.531  14.320  0.00  0.00    +0.000 A 
ENDBRANCH  21  27
ENDBRANCH  17  21
ENDBRANCH   1  17
TORSDOF 5
ENDMDL
MODEL 2
REMARK VINA RESULT:      -8.6      1.613      2.149
REMARK  Name = 
REMARK  6 active torsions:
REMARK  status: ('A' for Active; 'I' for Inactive)
REMARK    1  A    between atoms: C_1  and  N_2
REMARK    2  A    between atoms: C_6  and  C_7
REMARK    3  A    between atoms: C_7  and  C_8
REMARK    4  A    between atoms: C_8  and  C_9
REMARK    5  A    between atoms: C_13  and  N_14
REMARK    6  A    between atoms: C_17  and  C_18
REMARK                            x       y       z     vdW  Elec       q    Type
REMARK                         _______ _______ _______ _____ _____    ______ ____
ROOT
ATOM      1  C   UNL     1       5.370   5.359  18.656  0.00  0.00    +0.000 A 
ATOM      2  C   UNL     1       4.941   4.090  19.101  0.00  0.00    +0.000 A 
ATOM      3  C   UNL     1       3.680   3.892  19.664  0.00  0.00    +0.000 A 
ATOM      4  C   UNL     1       2.814   4.967  19.815  0.00  0.00    +0.000 A 
ATOM      5  C   UNL     1       3.180   6.231  19.353  0.00  0.00    +0.000 A 
ATOM      6  C   UNL     1       4.426   6.406  18.740  0.00  0.00    +0.000 A 
ENDROOT
BRANCH   5   7
ATOM      7  N   UNL     1       2.317   7.329  19.589  0.00  0.00    +0.000 N 
ATOM      8  C   UNL     1       1.434   7.312  20.755  0.00  0.00    +0.000 C 
ATOM      9  C   UNL     1       1.200   8.738  21.262  0.00  0.00    +0.000 C 
ATOM     10  C   UNL     1       0.759   9.634  20.128  0.00  0.00    +0.000 C 
ATOM     11  C   UNL     1       1.136   9.334  18.873  0.00  0.00    +0.000 C 
ATOM     12  C   UNL     1       2.082   8.235  18.561  0.00  0.00    +0.000 C 
ATOM     13  O   UNL     1       2.572   8.197  17.436  0.00  0.00    +0.000 OA
BRANCH  10  14
ATOM     14  C   UNL     1      -0.114  10.777  20.436  0.00  0.00    +0.000 C 
ATOM     15  C   UNL     1       0.541  12.003  21.031  0.00  0.00    +0.000 C 
ATOM     16  C   UNL     1      -0.403  11.181  21.856  0.00  0.00    +0.000 C 
ENDBRANCH  10  14
ENDBRANCH   5   7
BRANCH   1  17
ATOM     17  C   UNL     1       6.889   5.621  18.176  0.00  0.00    +0.000 C 
ATOM     18  C   UNL     1       7.243   7.052  17.669  0.00  0.00    +0.000 C 
ATOM     19  O   UNL     1       8.253   7.229  18.686  0.00  0.00    +0.000 OA
ATOM     20  C   UNL     1       7.890   5.984  19.313  0.00  0.00    +0.000 C 
BRANCH  17  21
ATOM     21  C   UNL     1       7.417   4.474  17.290  0.00  0.00    +0.000 C 
BRANCH  21  27
ATOM     22  C   UNL     1       4.913   3.192  15.876  0.00  0.00    +0.000 C 
ATOM     23  N   UNL     1       5.922   4.018  15.269  0.00  0.00    +0.000 N 
ATOM     24  C   UNL     1       5.966   4.373  13.954  0.00  0.00    +0.000 A 
ATOM     25  N   UNL     1       7.031   5.103  13.726  0.00  0.00    +0.000 NA
ATOM     26  N   UNL     1       7.707   5.226  14.915  0.00  0.00    +0.000 NA
ATOM     27  C   UNL     1       7.028   4.591  15.853  0.00  0.00    +0.000 A 
ENDBRANCH  21  27
ENDBRANCH  17  21
ENDBRANCH   1  17
TORSDOF 5
ENDMDL
MODEL 3
REMARK VINA RESULT:      -8.6      1.006      1.426
REMARK  Name = 
REMARK  6 active torsions:
REMARK  status: ('A' for Active; 'I' for Inactive)
REMARK    1  A    between atoms: C_1  and  N_2
REMARK    2  A    between atoms: C_6  and  C_7
REMARK    3  A    between atoms: C_7  and  C_8
REMARK    4  A    between atoms: C_8  and  C_9
REMARK    5  A    between atoms: C_13  and  N_14
REMARK    6  A    between atoms: C_17  and  C_18
REMARK                            x       y       z     vdW  Elec       q    Type
REMARK                         _______ _______ _______ _____ _____    ______ ____
ROOT
ATOM      1  C   UNL     1       4.477   4.920  17.146  0.00  0.00    +0.000 A 
ATOM      2  C   UNL     1       3.646   3.785  17.018  0.00  0.00    +0.000 A 
ATOM      3  C   UNL     1       2.345   3.762  17.520  0.00  0.00    +0.000 A 
ATOM      4  C   UNL     1       1.841   4.873  18.184  0.00  0.00    +0.000 A 
ATOM      5  C   UNL     1       2.611   6.029  18.299  0.00  0.00    +0.000 A 
ATOM      6  C   UNL     1       3.895   6.060  17.744  0.00  0.00    +0.000 A 
ENDROOT
BRANCH   5   7
ATOM      7  N   UNL     1       2.110   7.121  19.050  0.00  0.00    +0.000 N 
ATOM      8  C   UNL     1       1.468   6.871  20.341  0.00  0.00    +0.000 C 
ATOM      9  C   UNL     1       1.696   8.058  21.282  0.00  0.00    +0.000 C 
ATOM     10  C   UNL     1       1.306   9.351  20.604  0.00  0.00    +0.000 C 
ATOM     11  C   UNL     1       1.371   9.431  19.263  0.00  0.00    +0.000 C 
ATOM     12  C   UNL     1       1.938   8.349  18.421  0.00  0.00    +0.000 C 
ATOM     13  O   UNL     1       2.199   8.606  17.250  0.00  0.00    +0.000 OA
BRANCH  10  14
ATOM     14  C   UNL     1       0.820  10.461  21.436  0.00  0.00    +0.000 C 
ATOM     15  C   UNL     1      -0.582  10.345  21.989  0.00  0.00    +0.000 C 
ATOM     16  C   UNL     1      -0.267  11.383  20.955  0.00  0.00    +0.000 C 
ENDBRANCH  10  14
ENDBRANCH   5   7
BRANCH   1  17
ATOM     17  C   UNL     1       6.036   4.882  16.729  0.00  0.00    +0.000 C 
ATOM     18  C   UNL     1       6.781   6.246  16.617  0.00  0.00    +0.000 C 
ATOM     19  O   UNL     1       7.743   5.875  17.627  0.00  0.00    +0.000 OA
ATOM     20  C   UNL     1       7.032   4.653  17.905  0.00  0.00    +0.000 C 
BRANCH  17  21
ATOM     21  C   UNL     1       6.294   3.907  15.561  0.00  0.00    +0.000 C 
BRANCH  21  27
ATOM     22  C   UNL     1       5.751   3.308  12.518  0.00  0.00    +0.000 C 
ATOM     23  N   UNL     1       6.688   4.256  13.061  0.00  0.00    +0.000 N 
ATOM     24  C   UNL     1       7.520   5.051  12.330  0.00  0.00    +0.000 A 
ATOM     25  N   UNL     1       8.265   5.771  13.133  0.00  0.00    +0.000 NA
ATOM     26  N   UNL     1       7.921   5.439  14.421  0.00  0.00    +0.000 NA
ATOM     27  C   UNL     1       6.953   4.541  14.380  0.00  0.00    +0.000 A 
ENDBRANCH  21  27
ENDBRANCH  17  21
ENDBRANCH   1  17
TORSDOF 5
ENDMDL
MODEL 4
REMARK VINA RESULT:      -8.5      1.812      3.015
REMARK  Name = 
REMARK  6 active torsions:
REMARK  status: ('A' for Active; 'I' for Inactive)
REMARK    1  A    between atoms: C_1  and  N_2
REMARK    2  A    between atoms: C_6  and  C_7
REMARK    3  A    between atoms: C_7  and  C_8
REMARK    4  A    between atoms: C_8  and  C_9
REMARK    5  A    between atoms: C_13  and  N_14
REMARK    6  A    between atoms: C_17  and  C_18
REMARK                            x       y       z     vdW  Elec       q    Type
REMARK                         _______ _______ _______ _____ _____    ______ ____
ROOT
ATOM      1  C   UNL     1       4.309   4.506  16.833  0.00  0.00    +0.000 A 
ATOM      2  C   UNL     1       3.544   3.337  17.034  0.00  0.00    +0.000 A 
ATOM      3  C   UNL     1       2.368   3.344  17.783  0.00  0.00    +0.000 A 
ATOM      4  C   UNL     1       1.930   4.524  18.371  0.00  0.00    +0.000 A 
ATOM      5  C   UNL     1       2.632   5.711  18.165  0.00  0.00    +0.000 A 
ATOM      6  C   UNL     1       3.781   5.702  17.367  0.00  0.00    +0.000 A 
ENDROOT
BRANCH   5   7
ATOM      7  N   UNL     1       2.214   6.885  18.839  0.00  0.00    +0.000 N 
ATOM      8  C   UNL     1       2.425   8.189  18.210  0.00  0.00    +0.000 C 
ATOM      9  C   UNL     1       1.319   9.163  18.629  0.00  0.00    +0.000 C 
ATOM     10  C   UNL     1       1.179   9.184  20.134  0.00  0.00    +0.000 C 
ATOM     11  C   UNL     1       1.528   8.093  20.838  0.00  0.00    +0.000 C 
ATOM     12  C   UNL     1       1.919   6.814  20.196  0.00  0.00    +0.000 C 
ATOM     13  O   UNL     1       1.966   5.808  20.896  0.00  0.00    +0.000 OA
BRANCH  10  14
ATOM     14  C   UNL     1       0.712  10.421  20.777  0.00  0.00    +0.000 C 
ATOM     15  C   UNL     1      -0.386  10.290  21.807  0.00  0.00    +0.000 C 
ATOM     16  C   UNL     1      -0.658  10.977  20.504  0.00  0.00    +0.000 C 
ENDBRANCH  10  14
ENDBRANCH   5   7
BRANCH   1  17
ATOM     17  C   UNL     1       5.759   4.461  16.124  0.00  0.00    +0.000 C 
ATOM     18  C   UNL     1       5.967   3.419  14.984  0.00  0.00    +0.000 C 
ATOM     19  O   UNL     1       6.279   4.445  14.018  0.00  0.00    +0.000 OA
ATOM     20  C   UNL     1       5.963   5.483  14.965  0.00  0.00    +0.000 C 
BRANCH  17  21
ATOM     21  C   UNL     1       6.905   4.526  17.154  0.00  0.00    +0.000 C 
BRANCH  21  27
ATOM     22  C   UNL     1       7.962   5.654  19.898  0.00  0.00    +0.000 C 
ATOM     23  N   UNL     1       7.840   6.370  18.656  0.00  0.00    +0.000 N 
ATOM     24  C   UNL     1       8.153   7.683  18.468  0.00  0.00    +0.000 A 
ATOM     25  N   UNL     1       7.893   8.029  17.230  0.00  0.00    +0.000 NA
ATOM     26  N   UNL     1       7.393   6.921  16.589  0.00  0.00    +0.000 NA
ATOM     27  C   UNL     1       7.380   5.912  17.443  0.00  0.00    +0.000 A 
ENDBRANCH  21  27
ENDBRANCH  17  21
ENDBRANCH   1  17
TORSDOF 5
ENDMDL
MODEL 5
REMARK VINA RESULT:      -8.4      2.888      4.687
REMARK  Name = 
REMARK  6 active torsions:
REMARK  status: ('A' for Active; 'I' for Inactive)
REMARK    1  A    between atoms: C_1  and  N_2
REMARK    2  A    between atoms: C_6  and  C_7
REMARK    3  A    between atoms: C_7  and  C_8
REMARK    4  A    between atoms: C_8  and  C_9
REMARK    5  A    between atoms: C_13  and  N_14
REMARK    6  A    between atoms: C_17  and  C_18
REMARK                            x       y       z     vdW  Elec       q    Type
REMARK                         _______ _______ _______ _____ _____    ______ ____
ROOT
ATOM      1  C   UNL     1       2.399   6.155  19.348  0.00  0.00    +0.000 A 
ATOM      2  C   UNL     1       2.836   6.624  18.090  0.00  0.00    +0.000 A 
ATOM      3  C   UNL     1       2.633   7.942  17.683  0.00  0.00    +0.000 A 
ATOM      4  C   UNL     1       1.966   8.828  18.518  0.00  0.00    +0.000 A 
ATOM      5  C   UNL     1       1.552   8.420  19.785  0.00  0.00    +0.000 A 
ATOM      6  C   UNL     1       1.811   7.110  20.205  0.00  0.00    +0.000 A 
ENDROOT
BRANCH   5   7
ATOM      7  N   UNL     1       0.804   9.315  20.588  0.00  0.00    +0.000 N 
ATOM      8  C   UNL     1      -0.157   8.783  21.555  0.00  0.00    +0.000 C 
ATOM      9  C   UNL     1      -0.264   9.718  22.763  0.00  0.00    +0.000 C 
ATOM     10  C   UNL     1      -0.519  11.137  22.310  0.00  0.00    +0.000 C 
ATOM     11  C   UNL     1      -0.088  11.523  21.096  0.00  0.00    +0.000 C 
ATOM     12  C   UNL     1       0.748  10.657  20.229  0.00  0.00    +0.000 C 
ATOM     13  O   UNL     1       1.309  11.174  19.268  0.00  0.00    +0.000 OA
BRANCH  10  14
ATOM     14  C   UNL     1      -1.277  12.032  23.198  0.00  0.00    +0.000 C 
ATOM     15  C   UNL     1      -2.784  11.993  23.092  0.00  0.00    +0.000 C 
ATOM     16  C   UNL     1      -2.033  13.215  22.658  0.00  0.00    +0.000 C 
ENDBRANCH  10  14
ENDBRANCH   5   7
BRANCH   1  17
ATOM     17  C   UNL     1       2.473   4.591  19.744  0.00  0.00    +0.000 C 
ATOM     18  C   UNL     1       2.552   4.238  21.259  0.00  0.00    +0.000 C 
ATOM     19  O   UNL     1       1.331   3.470  21.208  0.00  0.00    +0.000 OA
ATOM     20  C   UNL     1       1.096   3.867  19.844  0.00  0.00    +0.000 C 
BRANCH  17  21
ATOM     21  C   UNL     1       3.463   3.818  18.849  0.00  0.00    +0.000 C 
BRANCH  21  27
ATOM     22  C   UNL     1       5.392   4.226  16.393  0.00  0.00    +0.000 C 
ATOM     23  N   UNL     1       5.665   4.537  17.771  0.00  0.00    +0.000 N 
ATOM     24  C   UNL     1       6.834   5.054  18.247  0.00  0.00    +0.000 A 
ATOM     25  N   UNL     1       6.763   5.187  19.550  0.00  0.00    +0.000 NA
ATOM     26  N   UNL     1       5.523   4.742  19.942  0.00  0.00    +0.000 NA
ATOM     27  C   UNL     1       4.851   4.370  18.867  0.00  0.00    +0.000 A 
ENDBRANCH  21  27
ENDBRANCH  17  21
ENDBRANCH   1  17
TORSDOF 5
ENDMDL
MODEL 6
REMARK VINA RESULT:      -8.3      1.933      3.044
REMARK  Name = 
REMARK  6 active torsions:
REMARK  status: ('A' for Active; 'I' for Inactive)
REMARK    1  A    between atoms: C_1  and  N_2
REMARK    2  A    between atoms: C_6  and  C_7
REMARK    3  A    between atoms: C_7  and  C_8
REMARK    4  A    between atoms: C_8  and  C_9
REMARK    5  A    between atoms: C_13  and  N_14
REMARK    6  A    between atoms: C_17  and  C_18
REMARK                            x       y       z     vdW  Elec       q    Type
REMARK                         _______ _______ _______ _____ _____    ______ ____
ROOT
ATOM      1  C   UNL     1       4.581   4.606  17.384  0.00  0.00    +0.000 A 
ATOM      2  C   UNL     1       4.317   3.557  18.291  0.00  0.00    +0.000 A 
ATOM      3  C   UNL     1       3.415   3.701  19.345  0.00  0.00    +0.000 A 
ATOM      4  C   UNL     1       2.761   4.911  19.533  0.00  0.00    +0.000 A 
ATOM      5  C   UNL     1       2.960   5.962  18.638  0.00  0.00    +0.000 A 
ATOM      6  C   UNL     1       3.826   5.787  17.553  0.00  0.00    +0.000 A 
ENDROOT
BRANCH   5   7
ATOM      7  N   UNL     1       2.346   7.212  18.895  0.00  0.00    +0.000 N 
ATOM      8  C   UNL     1       2.597   8.336  17.992  0.00  0.00    +0.000 C 
ATOM      9  C   UNL     1       1.372   9.254  17.939  0.00  0.00    +0.000 C 
ATOM     10  C   UNL     1       0.935   9.631  19.336  0.00  0.00    +0.000 C 
ATOM     11  C   UNL     1       1.204   8.793  20.352  0.00  0.00    +0.000 C 
ATOM     12  C   UNL     1       1.792   7.447  20.148  0.00  0.00    +0.000 C 
ATOM     13  O   UNL     1       1.760   6.655  21.086  0.00  0.00    +0.000 OA
BRANCH  10  14
ATOM     14  C   UNL     1       0.275  10.930  19.538  0.00  0.00    +0.000 C 
ATOM     15  C   UNL     1      -1.224  10.976  19.354  0.00  0.00    +0.000 C 
ATOM     16  C   UNL     1      -0.327  11.690  18.388  0.00  0.00    +0.000 C 
ENDBRANCH  10  14
ENDBRANCH   5   7
BRANCH   1  17
ATOM     17  C   UNL     1       5.755   4.500  16.280  0.00  0.00    +0.000 C 
ATOM     18  C   UNL     1       5.617   3.393  15.192  0.00  0.00    +0.000 C 
ATOM     19  O   UNL     1       5.626   4.360  14.119  0.00  0.00    +0.000 OA
ATOM     20  C   UNL     1       5.603   5.453  15.057  0.00  0.00    +0.000 C 
BRANCH  17  21
ATOM     21  C   UNL     1       7.155   4.605  16.919  0.00  0.00    +0.000 C 
BRANCH  21  27
ATOM     22  C   UNL     1       7.924   5.562  19.819  0.00  0.00    +0.000 C 
ATOM     23  N   UNL     1       7.854   6.369  18.630  0.00  0.00    +0.000 N 
ATOM     24  C   UNL     1       8.099   7.709  18.569  0.00  0.00    +0.000 A 
ATOM     25  N   UNL     1       7.916   8.139  17.344  0.00  0.00    +0.000 NA
ATOM     26  N   UNL     1       7.536   7.061  16.582  0.00  0.00    +0.000 NA
ATOM     27  C   UNL     1       7.520   5.987  17.351  0.00  0.00    +0.000 A 
ENDBRANCH  21  27
ENDBRANCH  17  21
ENDBRANCH   1  17
TORSDOF 5
ENDMDL
MODEL 7
REMARK VINA RESULT:      -8.2      2.749      4.705
REMARK  Name = 
REMARK  6 active torsions:
REMARK  status: ('A' for Active; 'I' for Inactive)
REMARK    1  A    between atoms: C_1  and  N_2
REMARK    2  A    between atoms: C_6  and  C_7
REMARK    3  A    between atoms: C_7  and  C_8
REMARK    4  A    between atoms: C_8  and  C_9
REMARK    5  A    between atoms: C_13  and  N_14
REMARK    6  A    between atoms: C_17  and  C_18
REMARK                            x       y       z     vdW  Elec       q    Type
REMARK                         _______ _______ _______ _____ _____    ______ ____
ROOT
ATOM      1  C   UNL     1       2.271   7.209  19.260  0.00  0.00    +0.000 A 
ATOM      2  C   UNL     1       2.373   7.722  17.948  0.00  0.00    +0.000 A 
ATOM      3  C   UNL     1       1.896   8.989  17.612  0.00  0.00    +0.000 A 
ATOM      4  C   UNL     1       1.285   9.776  18.579  0.00  0.00    +0.000 A 
ATOM      5  C   UNL     1       1.199   9.327  19.896  0.00  0.00    +0.000 A 
ATOM      6  C   UNL     1       1.730   8.077  20.233  0.00  0.00    +0.000 A 
ENDROOT
BRANCH   5   7
ATOM      7  N   UNL     1       0.501  10.110  20.848  0.00  0.00    +0.000 N 
ATOM      8  C   UNL     1       0.874  11.511  21.039  0.00  0.00    +0.000 C 
ATOM      9  C   UNL     1      -0.353  12.334  21.446  0.00  0.00    +0.000 C 
ATOM     10  C   UNL     1      -1.058  11.685  22.615  0.00  0.00    +0.000 C 
ATOM     11  C   UNL     1      -0.953  10.355  22.785  0.00  0.00    +0.000 C 
ATOM     12  C   UNL     1      -0.287   9.470  21.799  0.00  0.00    +0.000 C 
ATOM     13  O   UNL     1      -0.464   8.260  21.898  0.00  0.00    +0.000 OA
BRANCH  10  14
ATOM     14  C   UNL     1      -1.793  12.545  23.555  0.00  0.00    +0.000 C 
ATOM     15  C   UNL     1      -3.290  12.645  23.371  0.00  0.00    +0.000 C 
ATOM     16  C   UNL     1      -2.420  13.837  23.109  0.00  0.00    +0.000 C 
ENDBRANCH  10  14
ENDBRANCH   5   7
BRANCH   1  17
ATOM     17  C   UNL     1       2.655   5.679  19.606  0.00  0.00    +0.000 C 
ATOM     18  C   UNL     1       1.965   5.029  20.842  0.00  0.00    +0.000 C 
ATOM     19  O   UNL     1       1.372   3.985  20.040  0.00  0.00    +0.000 OA
ATOM     20  C   UNL     1       1.845   4.600  18.827  0.00  0.00    +0.000 C 
BRANCH  17  21
ATOM     21  C   UNL     1       4.175   5.434  19.512  0.00  0.00    +0.000 C 
BRANCH  21  27
ATOM     22  C   UNL     1       5.714   6.928  17.206  0.00  0.00    +0.000 C 
ATOM     23  N   UNL     1       5.292   5.553  17.217  0.00  0.00    +0.000 N 
ATOM     24  C   UNL     1       5.480   4.661  16.203  0.00  0.00    +0.000 A 
ATOM     25  N   UNL     1       4.947   3.506  16.522  0.00  0.00    +0.000 NA
ATOM     26  N   UNL     1       4.391   3.641  17.771  0.00  0.00    +0.000 NA
ATOM     27  C   UNL     1       4.617   4.869  18.202  0.00  0.00    +0.000 A 
ENDBRANCH  21  27
ENDBRANCH  17  21
ENDBRANCH   1  17
TORSDOF 5
ENDMDL
MODEL 8
REMARK VINA RESULT:      -8.2      2.073      3.162
REMARK  Name = 
REMARK  6 active torsions:
REMARK  status: ('A' for Active; 'I' for Inactive)
REMARK    1  A    between atoms: C_1  and  N_2
REMARK    2  A    between atoms: C_6  and  C_7
REMARK    3  A    between atoms: C_7  and  C_8
REMARK    4  A    between atoms: C_8  and  C_9
REMARK    5  A    between atoms: C_13  and  N_14
REMARK    6  A    between atoms: C_17  and  C_18
REMARK                            x       y       z     vdW  Elec       q    Type
REMARK                         _______ _______ _______ _____ _____    ______ ____
ROOT
ATOM      1  C   UNL     1       4.498   4.767  16.773  0.00  0.00    +0.000 A 
ATOM      2  C   UNL     1       4.090   3.580  17.419  0.00  0.00    +0.000 A 
ATOM      3  C   UNL     1       3.113   3.580  18.415  0.00  0.00    +0.000 A 
ATOM      4  C   UNL     1       2.527   4.775  18.808  0.00  0.00    +0.000 A 
ATOM      5  C   UNL     1       2.869   5.967  18.169  0.00  0.00    +0.000 A 
ATOM      6  C   UNL     1       3.810   5.947  17.134  0.00  0.00    +0.000 A 
ENDROOT
BRANCH   5   7
ATOM      7  N   UNL     1       2.319   7.184  18.639  0.00  0.00    +0.000 N 
ATOM      8  C   UNL     1       2.521   8.410  17.867  0.00  0.00    +0.000 C 
ATOM      9  C   UNL     1       1.326   9.351  18.047  0.00  0.00    +0.000 C 
ATOM     10  C   UNL     1       1.029   9.551  19.515  0.00  0.00    +0.000 C 
ATOM     11  C   UNL     1       1.363   8.584  20.387  0.00  0.00    +0.000 C 
ATOM     12  C   UNL     1       1.889   7.264  19.959  0.00  0.00    +0.000 C 
ATOM     13  O   UNL     1       1.919   6.359  20.787  0.00  0.00    +0.000 OA
BRANCH  10  14
ATOM     14  C   UNL     1       0.430  10.825  19.943  0.00  0.00    +0.000 C 
ATOM     15  C   UNL     1      -1.039  11.028  19.650  0.00  0.00    +0.000 C 
ATOM     16  C   UNL     1      -0.011  11.857  18.942  0.00  0.00    +0.000 C 
ENDBRANCH  10  14
ENDBRANCH   5   7
BRANCH   1  17
ATOM     17  C   UNL     1       5.751   4.792  15.755  0.00  0.00    +0.000 C 
ATOM     18  C   UNL     1       6.414   3.428  15.401  0.00  0.00    +0.000 C 
ATOM     19  O   UNL     1       6.138   3.588  13.993  0.00  0.00    +0.000 OA
ATOM     20  C   UNL     1       5.377   4.784  14.242  0.00  0.00    +0.000 C 
BRANCH  17  21
ATOM     21  C   UNL     1       6.743   5.923  16.095  0.00  0.00    +0.000 C 
BRANCH  21  27
ATOM     22  C   UNL     1       7.894   8.280  17.838  0.00  0.00    +0.000 C 
ATOM     23  N   UNL     1       7.797   6.894  18.210  0.00  0.00    +0.000 N 
ATOM     24  C   UNL     1       8.212   6.364  19.396  0.00  0.00    +0.000 A 
ATOM     25  N   UNL     1       8.009   5.069  19.399  0.00  0.00    +0.000 NA
ATOM     26  N   UNL     1       7.454   4.736  18.187  0.00  0.00    +0.000 NA
ATOM     27  C   UNL     1       7.305   5.840  17.476  0.00  0.00    +0.000 A 
ENDBRANCH  21  27
ENDBRANCH  17  21
ENDBRANCH   1  17
TORSDOF 5
ENDMDL
MODEL 9
REMARK VINA RESULT:      -8.1      2.827      4.598
REMARK  Name = 
REMARK  6 active torsions:
REMARK  status: ('A' for Active; 'I' for Inactive)
REMARK    1  A    between atoms: C_1  and  N_2
REMARK    2  A    between atoms: C_6  and  C_7
REMARK    3  A    between atoms: C_7  and  C_8
REMARK    4  A    between atoms: C_8  and  C_9
REMARK    5  A    between atoms: C_13  and  N_14
REMARK    6  A    between atoms: C_17  and  C_18
REMARK                            x       y       z     vdW  Elec       q    Type
REMARK                         _______ _______ _______ _____ _____    ______ ____
ROOT
ATOM      1  C   UNL     1       2.323   6.540  19.167  0.00  0.00    +0.000 A 
ATOM      2  C   UNL     1       2.605   7.094  17.900  0.00  0.00    +0.000 A 
ATOM      3  C   UNL     1       2.307   8.421  17.591  0.00  0.00    +0.000 A 
ATOM      4  C   UNL     1       1.697   9.231  18.540  0.00  0.00    +0.000 A 
ATOM      5  C   UNL     1       1.437   8.738  19.818  0.00  0.00    +0.000 A 
ATOM      6  C   UNL     1       1.791   7.421  20.134  0.00  0.00    +0.000 A 
ENDROOT
BRANCH   5   7
ATOM      7  N   UNL     1       0.742   9.554  20.744  0.00  0.00    +0.000 N 
ATOM      8  C   UNL     1       1.211  10.917  20.994  0.00  0.00    +0.000 C 
ATOM      9  C   UNL     1       0.029  11.826  21.345  0.00  0.00    +0.000 C 
ATOM     10  C   UNL     1      -0.798  11.212  22.451  0.00  0.00    +0.000 C 
ATOM     11  C   UNL     1      -0.809   9.875  22.593  0.00  0.00    +0.000 C 
ATOM     12  C   UNL     1      -0.152   8.960  21.627  0.00  0.00    +0.000 C 
ATOM     13  O   UNL     1      -0.429   7.766  21.684  0.00  0.00    +0.000 OA
BRANCH  10  14
ATOM     14  C   UNL     1      -1.523  12.108  23.365  0.00  0.00    +0.000 C 
ATOM     15  C   UNL     1      -2.841  12.667  22.881  0.00  0.00    +0.000 C 
ATOM     16  C   UNL     1      -1.665  13.576  23.073  0.00  0.00    +0.000 C 
ENDBRANCH  10  14
ENDBRANCH   5   7
BRANCH   1  17
ATOM     17  C   UNL     1       2.501   4.962  19.463  0.00  0.00    +0.000 C 
ATOM     18  C   UNL     1       2.647   4.525  20.951  0.00  0.00    +0.000 C 
ATOM     19  O   UNL     1       1.472   3.688  20.885  0.00  0.00    +0.000 OA
ATOM     20  C   UNL     1       1.173   4.152  19.555  0.00  0.00    +0.000 C 
BRANCH  17  21
ATOM     21  C   UNL     1       3.508   4.307  18.496  0.00  0.00    +0.000 C 
BRANCH  21  27
ATOM     22  C   UNL     1       5.627   5.105  16.307  0.00  0.00    +0.000 C 
ATOM     23  N   UNL     1       5.820   5.079  17.733  0.00  0.00    +0.000 N 
ATOM     24  C   UNL     1       6.982   5.386  18.377  0.00  0.00    +0.000 A 
ATOM     25  N   UNL     1       6.828   5.229  19.670  0.00  0.00    +0.000 NA
ATOM     26  N   UNL     1       5.538   4.804  19.881  0.00  0.00    +0.000 NA
ATOM     27  C   UNL     1       4.922   4.733  18.715  0.00  0.00    +0.000 A 
ENDBRANCH  21  27
ENDBRANCH  17  21
ENDBRANCH   1  17
TORSDOF 5
ENDMDL
