MODEL 1
REMARK VINA RESULT:      -8.7      0.000      0.000
REMARK  Name = 
REMARK  7 active torsions:
REMARK  status: ('A' for Active; 'I' for Inactive)
REMARK    1  A    between atoms: C_1  and  C_2
REMARK    2  A    between atoms: C_4  and  C_5
REMARK    3  A    between atoms: C_7  and  N_8
REMARK    4  A    between atoms: C_10  and  C_11
REMARK    5  A    between atoms: N_13  and  C_14
REMARK    6  A    between atoms: N_22  and  C_23
REMARK    7  A    between atoms: C_27  and  C_28
REMARK                            x       y       z     vdW  Elec       q    Type
REMARK                         _______ _______ _______ _____ _____    ______ ____
ROOT
ATOM      1  C   UNL     1       0.119  10.194  22.252  0.00  0.00    +0.000 C 
ATOM      2  O   UNL     1       0.344   9.933  23.430  0.00  0.00    +0.000 OA
ATOM      3  N   UNL     1      -0.698  11.214  21.787  0.00  0.00    +0.000 N 
ATOM      4  H   UNL     1      -0.876  11.198  20.785  0.00  0.00    +0.000 HD
ENDROOT
BRANCH   3   5
ATOM      5  C   UNL     1      -1.346  12.185  22.584  0.00  0.00    +0.000 A 
ATOM      6  C   UNL     1      -2.604  11.963  23.157  0.00  0.00    +0.000 A 
ATOM      7  C   UNL     1      -3.228  12.933  23.939  0.00  0.00    +0.000 A 
ATOM      8  C   UNL     1      -2.610  14.163  24.154  0.00  0.00    +0.000 A 
ATOM      9  C   UNL     1      -1.344  14.402  23.596  0.00  0.00    +0.000 A 
ATOM     10  C   UNL     1      -0.708  13.408  22.825  0.00  0.00    +0.000 A 
ATOM     11  C   UNL     1      -0.664  15.716  23.829  0.00  0.00    +0.000 C 
ATOM     12  O   UNL     1       0.501  15.864  23.480  0.00  0.00    +0.000 OA
ATOM     13  N   UNL     1      -1.418  16.715  24.454  0.00  0.00    +0.000 N 
ATOM     14  C   UNL     1      -0.855  18.042  24.620  0.00  0.00    +0.000 C 
ATOM     15  C   UNL     1      -2.862  16.585  24.571  0.00  0.00    +0.000 C 
ATOM     16  C   UNL     1      -3.260  15.193  25.030  0.00  0.00    +0.000 C 
ENDBRANCH   3   5
BRANCH   1  19
ATOM     17  N   UNL     1       1.587   7.676  20.179  0.00  0.00    +0.000 N 
ATOM     18  N   UNL     1       0.966   8.036  21.344  0.00  0.00    +0.000 NA
ATOM     19  C   UNL     1       0.700   9.347  21.196  0.00  0.00    +0.000 A 
ATOM     20  C   UNL     1       1.029   9.789  19.894  0.00  0.00    +0.000 A 
ATOM     21  C   UNL     1       1.560   8.700  19.243  0.00  0.00    +0.000 A 
ATOM     22  C   UNL     1       1.944   8.581  17.812  0.00  0.00    +0.000 C 
BRANCH  17  29
ATOM     23  C   UNL     1       5.358   4.828  18.692  0.00  0.00    +0.000 C 
ATOM     24  C   UNL     1       4.017   4.967  19.350  0.00  0.00    +0.000 A 
ATOM     25  C   UNL     1       3.373   3.866  19.926  0.00  0.00    +0.000 A 
ATOM     26  C   UNL     1       2.144   4.018  20.587  0.00  0.00    +0.000 A 
ATOM     27  C   UNL     1       1.442   2.835  21.186  0.00  0.00    +0.000 C 
ATOM     28  C   UNL     1       1.566   5.291  20.678  0.00  0.00    +0.000 A 
ATOM     29  C   UNL     1       2.184   6.391  20.072  0.00  0.00    +0.000 A 
ATOM     30  C   UNL     1       3.408   6.226  19.415  0.00  0.00    +0.000 A 
ENDBRANCH  17  29
ENDBRANCH   1  19
TORSDOF 3
ENDMDL
MODEL 2
REMARK VINA RESULT:      -8.7      2.230     10.199
REMARK  Name = 
REMARK  7 active torsions:
REMARK  status: ('A' for Active; 'I' for Inactive)
REMARK    1  A    between atoms: C_1  and  C_2
REMARK    2  A    between atoms: C_4  and  C_5
REMARK    3  A    between atoms: C_7  and  N_8
REMARK    4  A    between atoms: C_10  and  C_11
REMARK    5  A    between atoms: N_13  and  C_14
REMARK    6  A    between atoms: N_22  and  C_23
REMARK    7  A    between atoms: C_27  and  C_28
REMARK                            x       y       z     vdW  Elec       q    Type
REMARK                         _______ _______ _______ _____ _____    ______ ____
ROOT
ATOM      1  C   UNL     1       1.166   9.353  21.543  0.00  0.00    +0.000 C 
ATOM      2  O   UNL     1       1.883   9.109  22.508  0.00  0.00    +0.000 OA
ATOM      3  N   UNL     1       1.085   8.603  20.379  0.00  0.00    +0.000 N 
ATOM      4  H   UNL     1       0.540   9.028  19.632  0.00  0.00    +0.000 HD
ENDROOT
BRANCH   3   5
ATOM      5  C   UNL     1       1.751   7.381  20.133  0.00  0.00    +0.000 A 
ATOM      6  C   UNL     1       1.526   6.238  20.910  0.00  0.00    +0.000 A 
ATOM      7  C   UNL     1       2.193   5.042  20.653  0.00  0.00    +0.000 A 
ATOM      8  C   UNL     1       3.119   4.965  19.616  0.00  0.00    +0.000 A 
ATOM      9  C   UNL     1       3.353   6.097  18.818  0.00  0.00    +0.000 A 
ATOM     10  C   UNL     1       2.657   7.298  19.070  0.00  0.00    +0.000 A 
ATOM     11  C   UNL     1       4.338   6.025  17.693  0.00  0.00    +0.000 C 
ATOM     12  O   UNL     1       4.422   6.958  16.902  0.00  0.00    +0.000 OA
ATOM     13  N   UNL     1       5.114   4.865  17.607  0.00  0.00    +0.000 N 
ATOM     14  C   UNL     1       6.156   4.771  16.602  0.00  0.00    +0.000 C 
ATOM     15  C   UNL     1       5.184   3.939  18.726  0.00  0.00    +0.000 C 
ATOM     16  C   UNL     1       3.807   3.667  19.310  0.00  0.00    +0.000 C 
ENDBRANCH   3   5
BRANCH   1  19
ATOM     17  N   UNL     1      -0.947  12.163  22.203  0.00  0.00    +0.000 N 
ATOM     18  N   UNL     1      -0.155  11.145  22.659  0.00  0.00    +0.000 NA
ATOM     19  C   UNL     1       0.333  10.569  21.545  0.00  0.00    +0.000 A 
ATOM     20  C   UNL     1      -0.038  11.297  20.392  0.00  0.00    +0.000 A 
ATOM     21  C   UNL     1      -0.826  12.335  20.832  0.00  0.00    +0.000 A 
ATOM     22  C   UNL     1      -1.368  13.475  20.047  0.00  0.00    +0.000 C 
BRANCH  17  29
ATOM     23  C   UNL     1      -1.747  16.106  25.095  0.00  0.00    +0.000 C 
ATOM     24  C   UNL     1      -2.199  14.783  24.548  0.00  0.00    +0.000 A 
ATOM     25  C   UNL     1      -3.458  14.259  24.862  0.00  0.00    +0.000 A 
ATOM     26  C   UNL     1      -3.891  13.048  24.301  0.00  0.00    +0.000 A 
ATOM     27  C   UNL     1      -5.232  12.473  24.654  0.00  0.00    +0.000 C 
ATOM     28  C   UNL     1      -3.055  12.366  23.407  0.00  0.00    +0.000 A 
ATOM     29  C   UNL     1      -1.780  12.864  23.116  0.00  0.00    +0.000 A 
ATOM     30  C   UNL     1      -1.358  14.072  23.684  0.00  0.00    +0.000 A 
ENDBRANCH  17  29
ENDBRANCH   1  19
TORSDOF 3
ENDMDL
MODEL 3
REMARK VINA RESULT:      -8.7      2.235     10.289
REMARK  Name = 
REMARK  7 active torsions:
REMARK  status: ('A' for Active; 'I' for Inactive)
REMARK    1  A    between atoms: C_1  and  C_2
REMARK    2  A    between atoms: C_4  and  C_5
REMARK    3  A    between atoms: C_7  and  N_8
REMARK    4  A    between atoms: C_10  and  C_11
REMARK    5  A    between atoms: N_13  and  C_14
REMARK    6  A    between atoms: N_22  and  C_23
REMARK    7  A    between atoms: C_27  and  C_28
REMARK                            x       y       z     vdW  Elec       q    Type
REMARK                         _______ _______ _______ _____ _____    ______ ____
ROOT
ATOM      1  C   UNL     1       1.170   9.381  21.532  0.00  0.00    +0.000 C 
ATOM      2  O   UNL     1       1.871   9.124  22.507  0.00  0.00    +0.000 OA
ATOM      3  N   UNL     1       1.099   8.636  20.364  0.00  0.00    +0.000 N 
ATOM      4  H   UNL     1       0.570   9.070  19.611  0.00  0.00    +0.000 HD
ENDROOT
BRANCH   3   5
ATOM      5  C   UNL     1       1.756   7.408  20.123  0.00  0.00    +0.000 A 
ATOM      6  C   UNL     1       1.520   6.269  20.902  0.00  0.00    +0.000 A 
ATOM      7  C   UNL     1       2.178   5.066  20.649  0.00  0.00    +0.000 A 
ATOM      8  C   UNL     1       3.106   4.981  19.614  0.00  0.00    +0.000 A 
ATOM      9  C   UNL     1       3.350   6.109  18.814  0.00  0.00    +0.000 A 
ATOM     10  C   UNL     1       2.664   7.316  19.061  0.00  0.00    +0.000 A 
ATOM     11  C   UNL     1       4.337   6.026  17.691  0.00  0.00    +0.000 C 
ATOM     12  O   UNL     1       4.431   6.956  16.899  0.00  0.00    +0.000 OA
ATOM     13  N   UNL     1       5.104   4.860  17.610  0.00  0.00    +0.000 N 
ATOM     14  C   UNL     1       6.148   4.755  16.608  0.00  0.00    +0.000 C 
ATOM     15  C   UNL     1       5.164   3.936  18.731  0.00  0.00    +0.000 C 
ATOM     16  C   UNL     1       3.784   3.676  19.313  0.00  0.00    +0.000 C 
ENDBRANCH   3   5
BRANCH   1  19
ATOM     17  N   UNL     1      -0.931  12.203  22.171  0.00  0.00    +0.000 N 
ATOM     18  N   UNL     1      -0.164  11.170  22.635  0.00  0.00    +0.000 NA
ATOM     19  C   UNL     1       0.351  10.605  21.528  0.00  0.00    +0.000 A 
ATOM     20  C   UNL     1       0.020  11.352  20.375  0.00  0.00    +0.000 A 
ATOM     21  C   UNL     1      -0.769  12.393  20.806  0.00  0.00    +0.000 A 
ATOM     22  C   UNL     1      -1.276  13.549  20.022  0.00  0.00    +0.000 C 
BRANCH  17  29
ATOM     23  C   UNL     1      -5.182  12.454  24.703  0.00  0.00    +0.000 C 
ATOM     24  C   UNL     1      -3.862  13.055  24.320  0.00  0.00    +0.000 A 
ATOM     25  C   UNL     1      -3.419  14.256  24.885  0.00  0.00    +0.000 A 
ATOM     26  C   UNL     1      -2.159  14.780  24.560  0.00  0.00    +0.000 A 
ATOM     27  C   UNL     1      -1.691  16.080  25.148  0.00  0.00    +0.000 C 
ATOM     28  C   UNL     1      -1.333  14.083  23.668  0.00  0.00    +0.000 A 
ATOM     29  C   UNL     1      -1.783  12.901  23.069  0.00  0.00    +0.000 A 
ATOM     30  C   UNL     1      -3.043  12.389  23.400  0.00  0.00    +0.000 A 
ENDBRANCH  17  29
ENDBRANCH   1  19
TORSDOF 3
ENDMDL
MODEL 4
REMARK VINA RESULT:      -8.7      0.066      1.605
REMARK  Name = 
REMARK  7 active torsions:
REMARK  status: ('A' for Active; 'I' for Inactive)
REMARK    1  A    between atoms: C_1  and  C_2
REMARK    2  A    between atoms: C_4  and  C_5
REMARK    3  A    between atoms: C_7  and  N_8
REMARK    4  A    between atoms: C_10  and  C_11
REMARK    5  A    between atoms: N_13  and  C_14
REMARK    6  A    between atoms: N_22  and  C_23
REMARK    7  A    between atoms: C_27  and  C_28
REMARK                            x       y       z     vdW  Elec       q    Type
REMARK                         _______ _______ _______ _____ _____    ______ ____
ROOT
ATOM      1  C   UNL     1       0.065  10.195  22.282  0.00  0.00    +0.000 C 
ATOM      2  O   UNL     1       0.267   9.928  23.462  0.00  0.00    +0.000 OA
ATOM      3  N   UNL     1      -0.737  11.223  21.807  0.00  0.00    +0.000 N 
ATOM      4  H   UNL     1      -0.898  11.212  20.803  0.00  0.00    +0.000 HD
ENDROOT
BRANCH   3   5
ATOM      5  C   UNL     1      -1.392  12.194  22.597  0.00  0.00    +0.000 A 
ATOM      6  C   UNL     1      -2.660  11.977  23.151  0.00  0.00    +0.000 A 
ATOM      7  C   UNL     1      -3.290  12.948  23.927  0.00  0.00    +0.000 A 
ATOM      8  C   UNL     1      -2.670  14.173  24.154  0.00  0.00    +0.000 A 
ATOM      9  C   UNL     1      -1.395  14.409  23.615  0.00  0.00    +0.000 A 
ATOM     10  C   UNL     1      -0.753  13.413  22.851  0.00  0.00    +0.000 A 
ATOM     11  C   UNL     1      -0.713  15.719  23.862  0.00  0.00    +0.000 C 
ATOM     12  O   UNL     1       0.458  15.863  23.530  0.00  0.00    +0.000 OA
ATOM     13  N   UNL     1      -1.471  16.719  24.478  0.00  0.00    +0.000 N 
ATOM     14  C   UNL     1      -0.905  18.043  24.656  0.00  0.00    +0.000 C 
ATOM     15  C   UNL     1      -2.917  16.596  24.574  0.00  0.00    +0.000 C 
ATOM     16  C   UNL     1      -3.329  15.204  25.024  0.00  0.00    +0.000 C 
ENDBRANCH   3   5
BRANCH   1  19
ATOM     17  N   UNL     1       1.563   7.680  20.225  0.00  0.00    +0.000 N 
ATOM     18  N   UNL     1       0.932   8.040  21.385  0.00  0.00    +0.000 NA
ATOM     19  C   UNL     1       0.658   9.348  21.232  0.00  0.00    +0.000 A 
ATOM     20  C   UNL     1       0.993   9.789  19.931  0.00  0.00    +0.000 A 
ATOM     21  C   UNL     1       1.536   8.702  19.287  0.00  0.00    +0.000 A 
ATOM     22  C   UNL     1       1.930   8.582  17.858  0.00  0.00    +0.000 C 
BRANCH  17  29
ATOM     23  C   UNL     1       1.385   2.796  21.034  0.00  0.00    +0.000 C 
ATOM     24  C   UNL     1       2.114   4.001  20.515  0.00  0.00    +0.000 A 
ATOM     25  C   UNL     1       3.349   3.880  19.868  0.00  0.00    +0.000 A 
ATOM     26  C   UNL     1       3.995   5.007  19.338  0.00  0.00    +0.000 A 
ATOM     27  C   UNL     1       5.330   4.882  18.664  0.00  0.00    +0.000 C 
ATOM     28  C   UNL     1       3.386   6.264  19.449  0.00  0.00    +0.000 A 
ATOM     29  C   UNL     1       2.169   6.400  20.127  0.00  0.00    +0.000 A 
ATOM     30  C   UNL     1       1.536   5.268  20.653  0.00  0.00    +0.000 A 
ENDBRANCH  17  29
ENDBRANCH   1  19
TORSDOF 3
ENDMDL
MODEL 5
REMARK VINA RESULT:      -8.5      3.619     10.472
REMARK  Name = 
REMARK  7 active torsions:
REMARK  status: ('A' for Active; 'I' for Inactive)
REMARK    1  A    between atoms: C_1  and  C_2
REMARK    2  A    between atoms: C_4  and  C_5
REMARK    3  A    between atoms: C_7  and  N_8
REMARK    4  A    between atoms: C_10  and  C_11
REMARK    5  A    between atoms: N_13  and  C_14
REMARK    6  A    between atoms: N_22  and  C_23
REMARK    7  A    between atoms: C_27  and  C_28
REMARK                            x       y       z     vdW  Elec       q    Type
REMARK                         _______ _______ _______ _____ _____    ______ ____
ROOT
ATOM      1  C   UNL     1       1.209   9.273  19.826  0.00  0.00    +0.000 C 
ATOM      2  O   UNL     1       1.391   8.858  20.966  0.00  0.00    +0.000 OA
ATOM      3  N   UNL     1       1.760   8.741  18.670  0.00  0.00    +0.000 N 
ATOM      4  H   UNL     1       1.609   9.294  17.829  0.00  0.00    +0.000 HD
ENDROOT
BRANCH   3   5
ATOM      5  C   UNL     1       2.559   7.577  18.592  0.00  0.00    +0.000 A 
ATOM      6  C   UNL     1       2.510   6.570  19.563  0.00  0.00    +0.000 A 
ATOM      7  C   UNL     1       3.307   5.431  19.470  0.00  0.00    +0.000 A 
ATOM      8  C   UNL     1       4.189   5.280  18.403  0.00  0.00    +0.000 A 
ATOM      9  C   UNL     1       4.248   6.274  17.414  0.00  0.00    +0.000 A 
ATOM     10  C   UNL     1       3.422   7.413  17.502  0.00  0.00    +0.000 A 
ATOM     11  C   UNL     1       5.185   6.118  16.256  0.00  0.00    +0.000 C 
ATOM     12  O   UNL     1       5.121   6.901  15.316  0.00  0.00    +0.000 OA
ATOM     13  N   UNL     1       6.094   5.056  16.318  0.00  0.00    +0.000 N 
ATOM     14  C   UNL     1       7.095   4.906  15.279  0.00  0.00    +0.000 C 
ATOM     15  C   UNL     1       6.324   4.354  17.571  0.00  0.00    +0.000 C 
ATOM     16  C   UNL     1       5.018   4.034  18.278  0.00  0.00    +0.000 C 
ENDBRANCH   3   5
BRANCH   1  19
ATOM     17  N   UNL     1      -1.309  11.794  19.515  0.00  0.00    +0.000 N 
ATOM     18  N   UNL     1      -0.903  10.580  19.998  0.00  0.00    +0.000 NA
ATOM     19  C   UNL     1       0.381  10.473  19.613  0.00  0.00    +0.000 A 
ATOM     20  C   UNL     1       0.831  11.667  19.002  0.00  0.00    +0.000 A 
ATOM     21  C   UNL     1      -0.252  12.516  18.980  0.00  0.00    +0.000 A 
ATOM     22  C   UNL     1      -0.292  13.944  18.570  0.00  0.00    +0.000 C 
BRANCH  17  29
ATOM     23  C   UNL     1      -5.886  11.473  17.645  0.00  0.00    +0.000 C 
ATOM     24  C   UNL     1      -4.940  12.013  18.677  0.00  0.00    +0.000 A 
ATOM     25  C   UNL     1      -5.396  12.799  19.741  0.00  0.00    +0.000 A 
ATOM     26  C   UNL     1      -4.511  13.253  20.730  0.00  0.00    +0.000 A 
ATOM     27  C   UNL     1      -4.995  14.114  21.859  0.00  0.00    +0.000 C 
ATOM     28  C   UNL     1      -3.156  12.901  20.654  0.00  0.00    +0.000 A 
ATOM     29  C   UNL     1      -2.684  12.146  19.574  0.00  0.00    +0.000 A 
ATOM     30  C   UNL     1      -3.578  11.702  18.593  0.00  0.00    +0.000 A 
ENDBRANCH  17  29
ENDBRANCH   1  19
TORSDOF 3
ENDMDL
MODEL 6
REMARK VINA RESULT:      -8.5      3.626     10.499
REMARK  Name = 
REMARK  7 active torsions:
REMARK  status: ('A' for Active; 'I' for Inactive)
REMARK    1  A    between atoms: C_1  and  C_2
REMARK    2  A    between atoms: C_4  and  C_5
REMARK    3  A    between atoms: C_7  and  N_8
REMARK    4  A    between atoms: C_10  and  C_11
REMARK    5  A    between atoms: N_13  and  C_14
REMARK    6  A    between atoms: N_22  and  C_23
REMARK    7  A    between atoms: C_27  and  C_28
REMARK                            x       y       z     vdW  Elec       q    Type
REMARK                         _______ _______ _______ _____ _____    ______ ____
ROOT
ATOM      1  C   UNL     1       1.250   9.240  19.821  0.00  0.00    +0.000 C 
ATOM      2  O   UNL     1       1.463   8.838  20.960  0.00  0.00    +0.000 OA
ATOM      3  N   UNL     1       1.775   8.698  18.656  0.00  0.00    +0.000 N 
ATOM      4  H   UNL     1       1.601   9.241  17.814  0.00  0.00    +0.000 HD
ENDROOT
BRANCH   3   5
ATOM      5  C   UNL     1       2.579   7.538  18.572  0.00  0.00    +0.000 A 
ATOM      6  C   UNL     1       2.533   6.525  19.537  0.00  0.00    +0.000 A 
ATOM      7  C   UNL     1       3.334   5.389  19.436  0.00  0.00    +0.000 A 
ATOM      8  C   UNL     1       4.217   5.247  18.368  0.00  0.00    +0.000 A 
ATOM      9  C   UNL     1       4.271   6.247  17.384  0.00  0.00    +0.000 A 
ATOM     10  C   UNL     1       3.441   7.383  17.480  0.00  0.00    +0.000 A 
ATOM     11  C   UNL     1       5.208   6.101  16.225  0.00  0.00    +0.000 C 
ATOM     12  O   UNL     1       5.140   6.890  15.289  0.00  0.00    +0.000 OA
ATOM     13  N   UNL     1       6.120   5.043  16.280  0.00  0.00    +0.000 N 
ATOM     14  C   UNL     1       7.122   4.902  15.240  0.00  0.00    +0.000 C 
ATOM     15  C   UNL     1       6.354   4.334  17.528  0.00  0.00    +0.000 C 
ATOM     16  C   UNL     1       5.050   4.006  18.235  0.00  0.00    +0.000 C 
ENDBRANCH   3   5
BRANCH   1  19
ATOM     17  N   UNL     1      -1.290  11.742  19.537  0.00  0.00    +0.000 N 
ATOM     18  N   UNL     1      -0.868  10.534  20.019  0.00  0.00    +0.000 NA
ATOM     19  C   UNL     1       0.411  10.434  19.615  0.00  0.00    +0.000 A 
ATOM     20  C   UNL     1       0.843  11.628  18.993  0.00  0.00    +0.000 A 
ATOM     21  C   UNL     1      -0.245  12.469  18.984  0.00  0.00    +0.000 A 
ATOM     22  C   UNL     1      -0.301  13.895  18.569  0.00  0.00    +0.000 C 
BRANCH  17  29
ATOM     23  C   UNL     1      -4.994  14.033  21.898  0.00  0.00    +0.000 C 
ATOM     24  C   UNL     1      -4.505  13.195  20.753  0.00  0.00    +0.000 A 
ATOM     25  C   UNL     1      -5.365  12.803  19.721  0.00  0.00    +0.000 A 
ATOM     26  C   UNL     1      -4.885  12.065  18.629  0.00  0.00    +0.000 A 
ATOM     27  C   UNL     1      -5.810  11.625  17.531  0.00  0.00    +0.000 C 
ATOM     28  C   UNL     1      -3.525  11.730  18.569  0.00  0.00    +0.000 A 
ATOM     29  C   UNL     1      -2.666  12.085  19.615  0.00  0.00    +0.000 A 
ATOM     30  C   UNL     1      -3.158  12.819  20.700  0.00  0.00    +0.000 A 
ENDBRANCH  17  29
ENDBRANCH   1  19
TORSDOF 3
ENDMDL
MODEL 7
REMARK VINA RESULT:      -8.5      2.409     10.434
REMARK  Name = 
REMARK  7 active torsions:
REMARK  status: ('A' for Active; 'I' for Inactive)
REMARK    1  A    between atoms: C_1  and  C_2
REMARK    2  A    between atoms: C_4  and  C_5
REMARK    3  A    between atoms: C_7  and  N_8
REMARK    4  A    between atoms: C_10  and  C_11
REMARK    5  A    between atoms: N_13  and  C_14
REMARK    6  A    between atoms: N_22  and  C_23
REMARK    7  A    between atoms: C_27  and  C_28
REMARK                            x       y       z     vdW  Elec       q    Type
REMARK                         _______ _______ _______ _____ _____    ______ ____
ROOT
ATOM      1  C   UNL     1       1.143   8.958  20.163  0.00  0.00    +0.000 C 
ATOM      2  O   UNL     1       1.559   8.366  21.154  0.00  0.00    +0.000 OA
ATOM      3  N   UNL     1       1.543   8.732  18.854  0.00  0.00    +0.000 N 
ATOM      4  H   UNL     1       1.195   9.406  18.177  0.00  0.00    +0.000 HD
ENDROOT
BRANCH   3   5
ATOM      5  C   UNL     1       2.437   7.725  18.423  0.00  0.00    +0.000 A 
ATOM      6  C   UNL     1       3.531   8.001  17.595  0.00  0.00    +0.000 A 
ATOM      7  C   UNL     1       4.401   6.994  17.180  0.00  0.00    +0.000 A 
ATOM      8  C   UNL     1       4.183   5.676  17.573  0.00  0.00    +0.000 A 
ATOM      9  C   UNL     1       3.097   5.378  18.411  0.00  0.00    +0.000 A 
ATOM     10  C   UNL     1       2.234   6.406  18.846  0.00  0.00    +0.000 A 
ATOM     11  C   UNL     1       2.859   3.966  18.850  0.00  0.00    +0.000 C 
ATOM     12  O   UNL     1       2.012   3.734  19.705  0.00  0.00    +0.000 OA
ATOM     13  N   UNL     1       3.643   2.978  18.248  0.00  0.00    +0.000 N 
ATOM     14  C   UNL     1       3.397   1.581  18.552  0.00  0.00    +0.000 C 
ATOM     15  C   UNL     1       4.406   3.272  17.045  0.00  0.00    +0.000 C 
ATOM     16  C   UNL     1       5.142   4.596  17.162  0.00  0.00    +0.000 C 
ENDBRANCH   3   5
BRANCH   1  19
ATOM     17  N   UNL     1      -0.998  11.633  21.191  0.00  0.00    +0.000 N 
ATOM     18  N   UNL     1       0.095  10.840  21.411  0.00  0.00    +0.000 NA
ATOM     19  C   UNL     1       0.169  10.052  20.324  0.00  0.00    +0.000 A 
ATOM     20  C   UNL     1      -0.791  10.428  19.356  0.00  0.00    +0.000 A 
ATOM     21  C   UNL     1      -1.505  11.465  19.910  0.00  0.00    +0.000 A 
ATOM     22  C   UNL     1      -2.541  12.315  19.267  0.00  0.00    +0.000 C 
BRANCH  17  29
ATOM     23  C   UNL     1      -0.649  15.782  23.874  0.00  0.00    +0.000 C 
ATOM     24  C   UNL     1      -1.338  14.483  23.576  0.00  0.00    +0.000 A 
ATOM     25  C   UNL     1      -2.497  14.101  24.261  0.00  0.00    +0.000 A 
ATOM     26  C   UNL     1      -3.163  12.910  23.935  0.00  0.00    +0.000 A 
ATOM     27  C   UNL     1      -4.394  12.488  24.684  0.00  0.00    +0.000 C 
ATOM     28  C   UNL     1      -2.666  12.104  22.903  0.00  0.00    +0.000 A 
ATOM     29  C   UNL     1      -1.486  12.459  22.238  0.00  0.00    +0.000 A 
ATOM     30  C   UNL     1      -0.830  13.648  22.574  0.00  0.00    +0.000 A 
ENDBRANCH  17  29
ENDBRANCH   1  19
TORSDOF 3
ENDMDL
MODEL 8
REMARK VINA RESULT:      -8.4      2.710     10.500
REMARK  Name = 
REMARK  7 active torsions:
REMARK  status: ('A' for Active; 'I' for Inactive)
REMARK    1  A    between atoms: C_1  and  C_2
REMARK    2  A    between atoms: C_4  and  C_5
REMARK    3  A    between atoms: C_7  and  N_8
REMARK    4  A    between atoms: C_10  and  C_11
REMARK    5  A    between atoms: N_13  and  C_14
REMARK    6  A    between atoms: N_22  and  C_23
REMARK    7  A    between atoms: C_27  and  C_28
REMARK                            x       y       z     vdW  Elec       q    Type
REMARK                         _______ _______ _______ _____ _____    ______ ____
ROOT
ATOM      1  C   UNL     1       1.224   8.697  20.470  0.00  0.00    +0.000 C 
ATOM      2  O   UNL     1       1.431   8.093  21.517  0.00  0.00    +0.000 OA
ATOM      3  N   UNL     1       1.742   8.368  19.226  0.00  0.00    +0.000 N 
ATOM      4  H   UNL     1       1.576   9.057  18.496  0.00  0.00    +0.000 HD
ENDROOT
BRANCH   3   5
ATOM      5  C   UNL     1       2.530   7.232  18.931  0.00  0.00    +0.000 A 
ATOM      6  C   UNL     1       2.512   6.082  19.729  0.00  0.00    +0.000 A 
ATOM      7  C   UNL     1       3.296   4.972  19.422  0.00  0.00    +0.000 A 
ATOM      8  C   UNL     1       4.135   4.993  18.311  0.00  0.00    +0.000 A 
ATOM      9  C   UNL     1       4.161   6.133  17.491  0.00  0.00    +0.000 A 
ATOM     10  C   UNL     1       3.347   7.244  17.795  0.00  0.00    +0.000 A 
ATOM     11  C   UNL     1       5.050   6.164  16.286  0.00  0.00    +0.000 C 
ATOM     12  O   UNL     1       4.953   7.087  15.487  0.00  0.00    +0.000 OA
ATOM     13  N   UNL     1       5.953   5.105  16.141  0.00  0.00    +0.000 N 
ATOM     14  C   UNL     1       6.911   5.123  15.052  0.00  0.00    +0.000 C 
ATOM     15  C   UNL     1       6.228   4.212  17.255  0.00  0.00    +0.000 C 
ATOM     16  C   UNL     1       4.949   3.783  17.954  0.00  0.00    +0.000 C 
ENDBRANCH   3   5
BRANCH   1  19
ATOM     17  N   UNL     1      -0.701  11.627  21.178  0.00  0.00    +0.000 N 
ATOM     18  N   UNL     1       0.190  10.670  21.581  0.00  0.00    +0.000 NA
ATOM     19  C   UNL     1       0.402   9.920  20.485  0.00  0.00    +0.000 A 
ATOM     20  C   UNL     1      -0.246  10.472  19.357  0.00  0.00    +0.000 A 
ATOM     21  C   UNL     1      -0.917  11.585  19.808  0.00  0.00    +0.000 A 
ATOM     22  C   UNL     1      -1.646  12.606  19.010  0.00  0.00    +0.000 C 
BRANCH  17  29
ATOM     23  C   UNL     1      -4.271  12.471  24.507  0.00  0.00    +0.000 C 
ATOM     24  C   UNL     1      -3.040  12.926  23.781  0.00  0.00    +0.000 A 
ATOM     25  C   UNL     1      -2.423  14.144  24.088  0.00  0.00    +0.000 A 
ATOM     26  C   UNL     1      -1.241  14.533  23.440  0.00  0.00    +0.000 A 
ATOM     27  C   UNL     1      -0.590  15.849  23.752  0.00  0.00    +0.000 C 
ATOM     28  C   UNL     1      -0.668  13.683  22.485  0.00  0.00    +0.000 A 
ATOM     29  C   UNL     1      -1.298  12.480  22.145  0.00  0.00    +0.000 A 
ATOM     30  C   UNL     1      -2.478  12.105  22.796  0.00  0.00    +0.000 A 
ENDBRANCH  17  29
ENDBRANCH   1  19
TORSDOF 3
ENDMDL
MODEL 9
REMARK VINA RESULT:      -8.4      2.689     10.391
REMARK  Name = 
REMARK  7 active torsions:
REMARK  status: ('A' for Active; 'I' for Inactive)
REMARK    1  A    between atoms: C_1  and  C_2
REMARK    2  A    between atoms: C_4  and  C_5
REMARK    3  A    between atoms: C_7  and  N_8
REMARK    4  A    between atoms: C_10  and  C_11
REMARK    5  A    between atoms: N_13  and  C_14
REMARK    6  A    between atoms: N_22  and  C_23
REMARK    7  A    between atoms: C_27  and  C_28
REMARK                            x       y       z     vdW  Elec       q    Type
REMARK                         _______ _______ _______ _____ _____    ______ ____
ROOT
ATOM      1  C   UNL     1       1.292   8.815  20.527  0.00  0.00    +0.000 C 
ATOM      2  O   UNL     1       1.496   8.187  21.561  0.00  0.00    +0.000 OA
ATOM      3  N   UNL     1       1.748   8.470  19.263  0.00  0.00    +0.000 N 
ATOM      4  H   UNL     1       1.599   9.176  18.547  0.00  0.00    +0.000 HD
ENDROOT
BRANCH   3   5
ATOM      5  C   UNL     1       2.456   7.292  18.931  0.00  0.00    +0.000 A 
ATOM      6  C   UNL     1       2.313   6.104  19.658  0.00  0.00    +0.000 A 
ATOM      7  C   UNL     1       3.021   4.953  19.315  0.00  0.00    +0.000 A 
ATOM      8  C   UNL     1       3.905   4.969  18.240  0.00  0.00    +0.000 A 
ATOM      9  C   UNL     1       4.056   6.148  17.491  0.00  0.00    +0.000 A 
ATOM     10  C   UNL     1       3.320   7.302  17.830  0.00  0.00    +0.000 A 
ATOM     11  C   UNL     1       4.995   6.175  16.325  0.00  0.00    +0.000 C 
ATOM     12  O   UNL     1       5.006   7.147  15.580  0.00  0.00    +0.000 OA
ATOM     13  N   UNL     1       5.817   5.057  16.151  0.00  0.00    +0.000 N 
ATOM     14  C   UNL     1       6.820   5.058  15.103  0.00  0.00    +0.000 C 
ATOM     15  C   UNL     1       5.973   4.082  17.219  0.00  0.00    +0.000 C 
ATOM     16  C   UNL     1       4.636   3.720  17.843  0.00  0.00    +0.000 C 
ENDBRANCH   3   5
BRANCH   1  19
ATOM     17  N   UNL     1      -0.514  11.797  21.329  0.00  0.00    +0.000 N 
ATOM     18  N   UNL     1       0.278  10.751  21.719  0.00  0.00    +0.000 NA
ATOM     19  C   UNL     1       0.546  10.084  20.582  0.00  0.00    +0.000 A 
ATOM     20  C   UNL     1       0.039  10.773  19.456  0.00  0.00    +0.000 A 
ATOM     21  C   UNL     1      -0.604  11.886  19.947  0.00  0.00    +0.000 A 
ATOM     22  C   UNL     1      -1.195  13.017  19.185  0.00  0.00    +0.000 C 
BRANCH  17  29
ATOM     23  C   UNL     1      -0.678  15.996  23.951  0.00  0.00    +0.000 C 
ATOM     24  C   UNL     1      -1.250  14.649  23.620  0.00  0.00    +0.000 A 
ATOM     25  C   UNL     1      -2.437  14.199  24.209  0.00  0.00    +0.000 A 
ATOM     26  C   UNL     1      -2.992  12.961  23.850  0.00  0.00    +0.000 A 
ATOM     27  C   UNL     1      -4.252  12.467  24.497  0.00  0.00    +0.000 C 
ATOM     28  C   UNL     1      -2.353  12.176  22.881  0.00  0.00    +0.000 A 
ATOM     29  C   UNL     1      -1.146  12.602  22.314  0.00  0.00    +0.000 A 
ATOM     30  C   UNL     1      -0.602  13.837  22.682  0.00  0.00    +0.000 A 
ENDBRANCH  17  29
ENDBRANCH   1  19
TORSDOF 3
ENDMDL
