MODEL 1
REMARK VINA RESULT:      -8.4      0.000      0.000
REMARK  Name = 
REMARK  6 active torsions:
REMARK  status: ('A' for Active; 'I' for Inactive)
REMARK    1  A    between atoms: C_2  and  C_3
REMARK    2  A    between atoms: N_12  and  C_13
REMARK    3  A    between atoms: N_12  and  C_21
REMARK    4  A    between atoms: C_13  and  C_14
REMARK    5  A    between atoms: C_14  and  C_15
REMARK    6  A    between atoms: C_21  and  C_22
REMARK                            x       y       z     vdW  Elec       q    Type
REMARK                         _______ _______ _______ _____ _____    ______ ____
ROOT
ATOM      1  O   UNL     1       5.929   6.721  17.065  0.00  0.00    +0.000 OA
ATOM      2  C   UNL     1       4.879   6.080  17.146  0.00  0.00    +0.000 C 
ATOM      3  N   UNL     1       4.745   4.782  16.601  0.00  0.00    +0.000 N 
ENDROOT
BRANCH   2   4
ATOM      4  C   UNL     1       3.773   6.762  17.865  0.00  0.00    +0.000 A 
ATOM      5  C   UNL     1       3.255   7.939  17.309  0.00  0.00    +0.000 A 
ATOM      6  N   UNL     1       2.298   8.747  17.859  0.00  0.00    +0.000 NA
ATOM      7  C   UNL     1       1.897   8.299  19.061  0.00  0.00    +0.000 A 
ATOM      8  N   UNL     1       0.992   8.873  19.901  0.00  0.00    +0.000 N 
ATOM      9  C   UNL     1       0.896   8.084  21.012  0.00  0.00    +0.000 A 
ATOM     10  N   UNL     1       1.702   7.047  20.947  0.00  0.00    +0.000 NA
ATOM     11  C   UNL     1       2.338   7.171  19.739  0.00  0.00    +0.000 A 
ATOM     12  C   UNL     1       3.332   6.392  19.141  0.00  0.00    +0.000 A 
ATOM     13  H   UNL     1       0.503   9.740  19.724  0.00  0.00    +0.000 HD
ENDBRANCH   2   4
BRANCH   3  14
ATOM     14  C   UNL     1       3.554   3.950  16.833  0.00  0.00    +0.000 C 
BRANCH  14  15
ATOM     15  C   UNL     1       3.661   2.685  17.691  0.00  0.00    +0.000 C 
BRANCH  15  16
ATOM     16  C   UNL     1       2.844   2.831  18.958  0.00  0.00    +0.000 A 
ATOM     17  C   UNL     1       1.507   3.232  18.891  0.00  0.00    +0.000 A 
ATOM     18  C   UNL     1       0.755   3.383  20.056  0.00  0.00    +0.000 A 
ATOM     19  C   UNL     1       1.337   3.142  21.301  0.00  0.00    +0.000 A 
ATOM     20  C   UNL     1       2.675   2.763  21.382  0.00  0.00    +0.000 A 
ATOM     21  C   UNL     1       3.428   2.612  20.217  0.00  0.00    +0.000 A 
ENDBRANCH  15  16
ENDBRANCH  14  15
ENDBRANCH   3  14
BRANCH   3  22
ATOM     22  C   UNL     1       5.994   4.155  16.152  0.00  0.00    +0.000 C 
BRANCH  22  23
ATOM     23  C   UNL     1       6.288   4.246  14.667  0.00  0.00    +0.000 A 
ATOM     24  C   UNL     1       7.349   5.051  14.221  0.00  0.00    +0.000 A 
ATOM     25  C   UNL     1       7.721   5.068  12.878  0.00  0.00    +0.000 A 
ATOM     26  C   UNL     1       7.038   4.279  11.957  0.00  0.00    +0.000 A 
ATOM     27  C   UNL     1       5.970   3.490  12.379  0.00  0.00    +0.000 A 
ATOM     28  C   UNL     1       5.593   3.473  13.725  0.00  0.00    +0.000 A 
ENDBRANCH  22  23
ENDBRANCH   3  22
TORSDOF 6
ENDMDL
MODEL 2
REMARK VINA RESULT:      -8.1      0.629      1.339
REMARK  Name = 
REMARK  6 active torsions:
REMARK  status: ('A' for Active; 'I' for Inactive)
REMARK    1  A    between atoms: C_2  and  C_3
REMARK    2  A    between atoms: N_12  and  C_13
REMARK    3  A    between atoms: N_12  and  C_21
REMARK    4  A    between atoms: C_13  and  C_14
REMARK    5  A    between atoms: C_14  and  C_15
REMARK    6  A    between atoms: C_21  and  C_22
REMARK                            x       y       z     vdW  Elec       q    Type
REMARK                         _______ _______ _______ _____ _____    ______ ____
ROOT
ATOM      1  O   UNL     1       6.213   6.715  16.813  0.00  0.00    +0.000 OA
ATOM      2  C   UNL     1       5.154   6.107  16.984  0.00  0.00    +0.000 C 
ATOM      3  N   UNL     1       4.950   4.796  16.496  0.00  0.00    +0.000 N 
ENDROOT
BRANCH   2   4
ATOM      4  C   UNL     1       4.116   6.845  17.748  0.00  0.00    +0.000 A 
ATOM      5  C   UNL     1       3.668   6.287  18.953  0.00  0.00    +0.000 A 
ATOM      6  N   UNL     1       2.669   6.771  19.752  0.00  0.00    +0.000 NA
ATOM      7  C   UNL     1       2.106   7.877  19.234  0.00  0.00    +0.000 A 
ATOM      8  N   UNL     1       1.066   8.594  19.742  0.00  0.00    +0.000 N 
ATOM      9  C   UNL     1       0.819   9.631  18.887  0.00  0.00    +0.000 A 
ATOM     10  N   UNL     1       1.625   9.612  17.848  0.00  0.00    +0.000 NA
ATOM     11  C   UNL     1       2.429   8.519  18.047  0.00  0.00    +0.000 A 
ATOM     12  C   UNL     1       3.444   7.971  17.259  0.00  0.00    +0.000 A 
ATOM     13  H   UNL     1       0.565   8.371  20.591  0.00  0.00    +0.000 HD
ENDBRANCH   2   4
BRANCH   3  14
ATOM     14  C   UNL     1       3.755   4.007  16.833  0.00  0.00    +0.000 C 
BRANCH  14  15
ATOM     15  C   UNL     1       3.888   2.749  17.698  0.00  0.00    +0.000 C 
BRANCH  15  16
ATOM     16  C   UNL     1       2.989   2.842  18.913  0.00  0.00    +0.000 A 
ATOM     17  C   UNL     1       1.640   3.175  18.767  0.00  0.00    +0.000 A 
ATOM     18  C   UNL     1       0.812   3.277  19.885  0.00  0.00    +0.000 A 
ATOM     19  C   UNL     1       1.329   3.055  21.162  0.00  0.00    +0.000 A 
ATOM     20  C   UNL     1       2.677   2.743  21.322  0.00  0.00    +0.000 A 
ATOM     21  C   UNL     1       3.507   2.641  20.204  0.00  0.00    +0.000 A 
ENDBRANCH  15  16
ENDBRANCH  14  15
ENDBRANCH   3  14
BRANCH   3  22
ATOM     22  C   UNL     1       6.151   4.118  15.990  0.00  0.00    +0.000 C 
BRANCH  22  23
ATOM     23  C   UNL     1       6.379   4.197  14.494  0.00  0.00    +0.000 A 
ATOM     24  C   UNL     1       7.410   5.011  13.995  0.00  0.00    +0.000 A 
ATOM     25  C   UNL     1       7.724   5.018  12.636  0.00  0.00    +0.000 A 
ATOM     26  C   UNL     1       7.011   4.211  11.753  0.00  0.00    +0.000 A 
ATOM     27  C   UNL     1       5.972   3.413  12.229  0.00  0.00    +0.000 A 
ATOM     28  C   UNL     1       5.654   3.406  13.590  0.00  0.00    +0.000 A 
ENDBRANCH  22  23
ENDBRANCH   3  22
TORSDOF 6
ENDMDL
MODEL 3
REMARK VINA RESULT:      -8.0      3.078      4.464
REMARK  Name = 
REMARK  6 active torsions:
REMARK  status: ('A' for Active; 'I' for Inactive)
REMARK    1  A    between atoms: C_2  and  C_3
REMARK    2  A    between atoms: N_12  and  C_13
REMARK    3  A    between atoms: N_12  and  C_21
REMARK    4  A    between atoms: C_13  and  C_14
REMARK    5  A    between atoms: C_14  and  C_15
REMARK    6  A    between atoms: C_21  and  C_22
REMARK                            x       y       z     vdW  Elec       q    Type
REMARK                         _______ _______ _______ _____ _____    ______ ____
ROOT
ATOM      1  O   UNL     1       2.019   9.457  17.389  0.00  0.00    +0.000 OA
ATOM      2  C   UNL     1       1.785   8.884  18.455  0.00  0.00    +0.000 C 
ATOM      3  N   UNL     1       2.402   7.660  18.805  0.00  0.00    +0.000 N 
ENDROOT
BRANCH   2   4
ATOM      4  C   UNL     1       0.821   9.576  19.348  0.00  0.00    +0.000 A 
ATOM      5  C   UNL     1      -0.277  10.216  18.758  0.00  0.00    +0.000 A 
ATOM      6  N   UNL     1      -1.222  10.968  19.400  0.00  0.00    +0.000 NA
ATOM      7  C   UNL     1      -0.973  11.065  20.718  0.00  0.00    +0.000 A 
ATOM      8  N   UNL     1      -1.682  11.763  21.647  0.00  0.00    +0.000 N 
ATOM      9  C   UNL     1      -1.069  11.588  22.856  0.00  0.00    +0.000 A 
ATOM     10  N   UNL     1       0.005  10.836  22.756  0.00  0.00    +0.000 NA
ATOM     11  C   UNL     1       0.082  10.508  21.427  0.00  0.00    +0.000 A 
ATOM     12  C   UNL     1       1.030   9.765  20.719  0.00  0.00    +0.000 A 
ATOM     13  H   UNL     1      -2.501  12.322  21.454  0.00  0.00    +0.000 HD
ENDBRANCH   2   4
BRANCH   3  14
ATOM     14  C   UNL     1       2.252   7.056  20.138  0.00  0.00    +0.000 C 
BRANCH  14  15
ATOM     15  C   UNL     1       0.994   6.248  20.473  0.00  0.00    +0.000 C 
BRANCH  15  16
ATOM     16  C   UNL     1       1.321   4.772  20.566  0.00  0.00    +0.000 A 
ATOM     17  C   UNL     1       2.288   4.320  21.467  0.00  0.00    +0.000 A 
ATOM     18  C   UNL     1       2.604   2.963  21.544  0.00  0.00    +0.000 A 
ATOM     19  C   UNL     1       1.960   2.046  20.713  0.00  0.00    +0.000 A 
ATOM     20  C   UNL     1       1.009   2.488  19.795  0.00  0.00    +0.000 A 
ATOM     21  C   UNL     1       0.693   3.844  19.717  0.00  0.00    +0.000 A 
ENDBRANCH  15  16
ENDBRANCH  14  15
ENDBRANCH   3  14
BRANCH   3  22
ATOM     22  C   UNL     1       3.510   7.243  17.937  0.00  0.00    +0.000 C 
BRANCH  22  23
ATOM     23  C   UNL     1       3.913   5.784  18.028  0.00  0.00    +0.000 A 
ATOM     24  C   UNL     1       4.899   5.396  18.951  0.00  0.00    +0.000 A 
ATOM     25  C   UNL     1       5.210   4.051  19.145  0.00  0.00    +0.000 A 
ATOM     26  C   UNL     1       4.541   3.070  18.418  0.00  0.00    +0.000 A 
ATOM     27  C   UNL     1       3.575   3.439  17.484  0.00  0.00    +0.000 A 
ATOM     28  C   UNL     1       3.262   4.787  17.287  0.00  0.00    +0.000 A 
ENDBRANCH  22  23
ENDBRANCH   3  22
TORSDOF 6
ENDMDL
MODEL 4
REMARK VINA RESULT:      -7.8      1.975      6.993
REMARK  Name = 
REMARK  6 active torsions:
REMARK  status: ('A' for Active; 'I' for Inactive)
REMARK    1  A    between atoms: C_2  and  C_3
REMARK    2  A    between atoms: N_12  and  C_13
REMARK    3  A    between atoms: N_12  and  C_21
REMARK    4  A    between atoms: C_13  and  C_14
REMARK    5  A    between atoms: C_14  and  C_15
REMARK    6  A    between atoms: C_21  and  C_22
REMARK                            x       y       z     vdW  Elec       q    Type
REMARK                         _______ _______ _______ _____ _____    ______ ____
ROOT
ATOM      1  O   UNL     1       5.463   3.375  18.659  0.00  0.00    +0.000 OA
ATOM      2  C   UNL     1       5.223   4.410  18.034  0.00  0.00    +0.000 C 
ATOM      3  N   UNL     1       4.356   5.409  18.534  0.00  0.00    +0.000 N 
ENDROOT
BRANCH   2   4
ATOM      4  C   UNL     1       5.918   4.538  16.728  0.00  0.00    +0.000 A 
ATOM      5  C   UNL     1       6.922   5.509  16.611  0.00  0.00    +0.000 A 
ATOM      6  N   UNL     1       7.615   5.830  15.476  0.00  0.00    +0.000 NA
ATOM      7  C   UNL     1       7.205   5.109  14.419  0.00  0.00    +0.000 A 
ATOM      8  N   UNL     1       7.647   5.196  13.134  0.00  0.00    +0.000 N 
ATOM      9  C   UNL     1       6.949   4.284  12.392  0.00  0.00    +0.000 A 
ATOM     10  N   UNL     1       6.069   3.631  13.119  0.00  0.00    +0.000 NA
ATOM     11  C   UNL     1       6.212   4.140  14.384  0.00  0.00    +0.000 A 
ATOM     12  C   UNL     1       5.521   3.865  15.567  0.00  0.00    +0.000 A 
ATOM     13  H   UNL     1       8.352   5.839  12.804  0.00  0.00    +0.000 HD
ENDBRANCH   2   4
BRANCH   3  14
ATOM     14  C   UNL     1       4.192   6.713  17.872  0.00  0.00    +0.000 C 
BRANCH  14  15
ATOM     15  C   UNL     1       2.823   7.122  17.318  0.00  0.00    +0.000 C 
BRANCH  15  16
ATOM     16  C   UNL     1       2.155   8.121  18.240  0.00  0.00    +0.000 A 
ATOM     17  C   UNL     1       1.817   9.394  17.772  0.00  0.00    +0.000 A 
ATOM     18  C   UNL     1       1.215  10.323  18.622  0.00  0.00    +0.000 A 
ATOM     19  C   UNL     1       0.955   9.989  19.952  0.00  0.00    +0.000 A 
ATOM     20  C   UNL     1       1.307   8.731  20.435  0.00  0.00    +0.000 A 
ATOM     21  C   UNL     1       1.909   7.801  19.586  0.00  0.00    +0.000 A 
ENDBRANCH  15  16
ENDBRANCH  14  15
ENDBRANCH   3  14
BRANCH   3  22
ATOM     22  C   UNL     1       3.954   5.250  19.938  0.00  0.00    +0.000 C 
BRANCH  22  23
ATOM     23  C   UNL     1       2.744   4.372  20.188  0.00  0.00    +0.000 A 
ATOM     24  C   UNL     1       1.875   4.075  19.125  0.00  0.00    +0.000 A 
ATOM     25  C   UNL     1       0.819   3.179  19.290  0.00  0.00    +0.000 A 
ATOM     26  C   UNL     1       0.615   2.565  20.523  0.00  0.00    +0.000 A 
ATOM     27  C   UNL     1       1.455   2.865  21.593  0.00  0.00    +0.000 A 
ATOM     28  C   UNL     1       2.513   3.764  21.430  0.00  0.00    +0.000 A 
ENDBRANCH  22  23
ENDBRANCH   3  22
TORSDOF 6
ENDMDL
MODEL 5
REMARK VINA RESULT:      -7.8      0.722      1.692
REMARK  Name = 
REMARK  6 active torsions:
REMARK  status: ('A' for Active; 'I' for Inactive)
REMARK    1  A    between atoms: C_2  and  C_3
REMARK    2  A    between atoms: N_12  and  C_13
REMARK    3  A    between atoms: N_12  and  C_21
REMARK    4  A    between atoms: C_13  and  C_14
REMARK    5  A    between atoms: C_14  and  C_15
REMARK    6  A    between atoms: C_21  and  C_22
REMARK                            x       y       z     vdW  Elec       q    Type
REMARK                         _______ _______ _______ _____ _____    ______ ____
ROOT
ATOM      1  O   UNL     1       5.923   6.224  17.671  0.00  0.00    +0.000 OA
ATOM      2  C   UNL     1       4.750   5.864  17.547  0.00  0.00    +0.000 C 
ATOM      3  N   UNL     1       4.392   4.690  16.844  0.00  0.00    +0.000 N 
ENDROOT
BRANCH   2   4
ATOM      4  C   UNL     1       3.745   6.743  18.196  0.00  0.00    +0.000 A 
ATOM      5  C   UNL     1       3.194   6.321  19.414  0.00  0.00    +0.000 A 
ATOM      6  N   UNL     1       2.204   6.948  20.120  0.00  0.00    +0.000 NA
ATOM      7  C   UNL     1       1.764   8.052  19.491  0.00  0.00    +0.000 A 
ATOM      8  N   UNL     1       0.767   8.890  19.887  0.00  0.00    +0.000 N 
ATOM      9  C   UNL     1       0.652   9.873  18.946  0.00  0.00    +0.000 A 
ATOM     10  N   UNL     1       1.501   9.706  17.956  0.00  0.00    +0.000 NA
ATOM     11  C   UNL     1       2.197   8.569  18.279  0.00  0.00    +0.000 A 
ATOM     12  C   UNL     1       3.197   7.878  17.589  0.00  0.00    +0.000 A 
ATOM     13  H   UNL     1       0.210   8.777  20.722  0.00  0.00    +0.000 HD
ENDBRANCH   2   4
BRANCH   3  14
ATOM     14  C   UNL     1       3.016   4.170  16.830  0.00  0.00    +0.000 C 
BRANCH  14  15
ATOM     15  C   UNL     1       2.722   2.770  17.377  0.00  0.00    +0.000 C 
BRANCH  15  16
ATOM     16  C   UNL     1       2.399   2.835  18.856  0.00  0.00    +0.000 A 
ATOM     17  C   UNL     1       1.127   3.229  19.281  0.00  0.00    +0.000 A 
ATOM     18  C   UNL     1       0.829   3.305  20.642  0.00  0.00    +0.000 A 
ATOM     19  C   UNL     1       1.805   2.997  21.591  0.00  0.00    +0.000 A 
ATOM     20  C   UNL     1       3.083   2.624  21.179  0.00  0.00    +0.000 A 
ATOM     21  C   UNL     1       3.382   2.547  19.818  0.00  0.00    +0.000 A 
ENDBRANCH  15  16
ENDBRANCH  14  15
ENDBRANCH   3  14
BRANCH   3  22
ATOM     22  C   UNL     1       5.508   3.806  16.485  0.00  0.00    +0.000 C 
BRANCH  22  23
ATOM     23  C   UNL     1       6.075   3.983  15.090  0.00  0.00    +0.000 A 
ATOM     24  C   UNL     1       5.432   3.370  14.001  0.00  0.00    +0.000 A 
ATOM     25  C   UNL     1       5.856   3.606  12.694  0.00  0.00    +0.000 A 
ATOM     26  C   UNL     1       6.930   4.458  12.453  0.00  0.00    +0.000 A 
ATOM     27  C   UNL     1       7.591   5.058  13.523  0.00  0.00    +0.000 A 
ATOM     28  C   UNL     1       7.170   4.821  14.835  0.00  0.00    +0.000 A 
ENDBRANCH  22  23
ENDBRANCH   3  22
TORSDOF 6
ENDMDL
MODEL 6
REMARK VINA RESULT:      -7.6      2.746      6.289
REMARK  Name = 
REMARK  6 active torsions:
REMARK  status: ('A' for Active; 'I' for Inactive)
REMARK    1  A    between atoms: C_2  and  C_3
REMARK    2  A    between atoms: N_12  and  C_13
REMARK    3  A    between atoms: N_12  and  C_21
REMARK    4  A    between atoms: C_13  and  C_14
REMARK    5  A    between atoms: C_14  and  C_15
REMARK    6  A    between atoms: C_21  and  C_22
REMARK                            x       y       z     vdW  Elec       q    Type
REMARK                         _______ _______ _______ _____ _____    ______ ____
ROOT
ATOM      1  O   UNL     1       5.822   4.007  16.685  0.00  0.00    +0.000 OA
ATOM      2  C   UNL     1       5.404   5.004  17.278  0.00  0.00    +0.000 C 
ATOM      3  N   UNL     1       4.037   5.174  17.596  0.00  0.00    +0.000 N 
ENDROOT
BRANCH   2   4
ATOM      4  C   UNL     1       6.439   6.003  17.646  0.00  0.00    +0.000 A 
ATOM      5  C   UNL     1       7.344   5.668  18.663  0.00  0.00    +0.000 A 
ATOM      6  N   UNL     1       8.309   6.478  19.193  0.00  0.00    +0.000 NA
ATOM      7  C   UNL     1       8.293   7.703  18.639  0.00  0.00    +0.000 A 
ATOM      8  N   UNL     1       9.085   8.765  18.952  0.00  0.00    +0.000 N 
ATOM      9  C   UNL     1       8.721   9.807  18.147  0.00  0.00    +0.000 A 
ATOM     10  N   UNL     1       7.727   9.485  17.349  0.00  0.00    +0.000 NA
ATOM     11  C   UNL     1       7.444   8.177  17.649  0.00  0.00    +0.000 A 
ATOM     12  C   UNL     1       6.463   7.314  17.156  0.00  0.00    +0.000 A 
ATOM     13  H   UNL     1       9.796   8.769  19.670  0.00  0.00    +0.000 HD
ENDBRANCH   2   4
BRANCH   3  14
ATOM     14  C   UNL     1       3.557   6.277  18.443  0.00  0.00    +0.000 C 
BRANCH  14  15
ATOM     15  C   UNL     1       2.769   7.433  17.818  0.00  0.00    +0.000 C 
BRANCH  15  16
ATOM     16  C   UNL     1       1.985   8.176  18.879  0.00  0.00    +0.000 A 
ATOM     17  C   UNL     1       1.840   7.631  20.158  0.00  0.00    +0.000 A 
ATOM     18  C   UNL     1       1.105   8.305  21.134  0.00  0.00    +0.000 A 
ATOM     19  C   UNL     1       0.502   9.528  20.838  0.00  0.00    +0.000 A 
ATOM     20  C   UNL     1       0.622  10.070  19.560  0.00  0.00    +0.000 A 
ATOM     21  C   UNL     1       1.356   9.397  18.583  0.00  0.00    +0.000 A 
ENDBRANCH  15  16
ENDBRANCH  14  15
ENDBRANCH   3  14
BRANCH   3  22
ATOM     22  C   UNL     1       3.191   3.990  17.393  0.00  0.00    +0.000 C 
BRANCH  22  23
ATOM     23  C   UNL     1       2.505   3.444  18.630  0.00  0.00    +0.000 A 
ATOM     24  C   UNL     1       3.284   2.940  19.686  0.00  0.00    +0.000 A 
ATOM     25  C   UNL     1       2.694   2.538  20.883  0.00  0.00    +0.000 A 
ATOM     26  C   UNL     1       1.314   2.633  21.046  0.00  0.00    +0.000 A 
ATOM     27  C   UNL     1       0.526   3.111  20.001  0.00  0.00    +0.000 A 
ATOM     28  C   UNL     1       1.115   3.512  18.799  0.00  0.00    +0.000 A 
ENDBRANCH  22  23
ENDBRANCH   3  22
TORSDOF 6
ENDMDL
MODEL 7
REMARK VINA RESULT:      -7.4      2.501      3.696
REMARK  Name = 
REMARK  6 active torsions:
REMARK  status: ('A' for Active; 'I' for Inactive)
REMARK    1  A    between atoms: C_2  and  C_3
REMARK    2  A    between atoms: N_12  and  C_13
REMARK    3  A    between atoms: N_12  and  C_21
REMARK    4  A    between atoms: C_13  and  C_14
REMARK    5  A    between atoms: C_14  and  C_15
REMARK    6  A    between atoms: C_21  and  C_22
REMARK                            x       y       z     vdW  Elec       q    Type
REMARK                         _______ _______ _______ _____ _____    ______ ____
ROOT
ATOM      1  O   UNL     1       2.207   9.646  17.239  0.00  0.00    +0.000 OA
ATOM      2  C   UNL     1       2.146   8.793  18.127  0.00  0.00    +0.000 C 
ATOM      3  N   UNL     1       2.858   7.574  18.051  0.00  0.00    +0.000 N 
ENDROOT
BRANCH   2   4
ATOM      4  C   UNL     1       1.284   9.143  19.285  0.00  0.00    +0.000 A 
ATOM      5  C   UNL     1       0.129   9.898  19.039  0.00  0.00    +0.000 A 
ATOM      6  N   UNL     1      -0.741  10.383  19.976  0.00  0.00    +0.000 NA
ATOM      7  C   UNL     1      -0.353  10.074  21.225  0.00  0.00    +0.000 A 
ATOM      8  N   UNL     1      -0.958  10.427  22.393  0.00  0.00    +0.000 N 
ATOM      9  C   UNL     1      -0.219   9.907  23.418  0.00  0.00    +0.000 A 
ATOM     10  N   UNL     1       0.838   9.258  22.980  0.00  0.00    +0.000 NA
ATOM     11  C   UNL     1       0.772   9.361  21.614  0.00  0.00    +0.000 A 
ATOM     12  C   UNL     1       1.639   8.905  20.617  0.00  0.00    +0.000 A 
ATOM     13  H   UNL     1      -1.793  10.991  22.468  0.00  0.00    +0.000 HD
ENDBRANCH   2   4
BRANCH   3  14
ATOM     14  C   UNL     1       2.919   6.626  19.174  0.00  0.00    +0.000 C 
BRANCH  14  15
ATOM     15  C   UNL     1       1.866   5.519  19.298  0.00  0.00    +0.000 C 
BRANCH  15  16
ATOM     16  C   UNL     1       2.477   4.169  18.986  0.00  0.00    +0.000 A 
ATOM     17  C   UNL     1       1.973   3.393  17.939  0.00  0.00    +0.000 A 
ATOM     18  C   UNL     1       2.522   2.142  17.657  0.00  0.00    +0.000 A 
ATOM     19  C   UNL     1       3.577   1.651  18.428  0.00  0.00    +0.000 A 
ATOM     20  C   UNL     1       4.074   2.406  19.488  0.00  0.00    +0.000 A 
ATOM     21  C   UNL     1       3.525   3.658  19.770  0.00  0.00    +0.000 A 
ENDBRANCH  15  16
ENDBRANCH  14  15
ENDBRANCH   3  14
BRANCH   3  22
ATOM     22  C   UNL     1       3.855   7.493  16.975  0.00  0.00    +0.000 C 
BRANCH  22  23
ATOM     23  C   UNL     1       4.899   6.403  17.118  0.00  0.00    +0.000 A 
ATOM     24  C   UNL     1       5.943   6.563  18.043  0.00  0.00    +0.000 A 
ATOM     25  C   UNL     1       6.853   5.534  18.284  0.00  0.00    +0.000 A 
ATOM     26  C   UNL     1       6.733   4.326  17.603  0.00  0.00    +0.000 A 
ATOM     27  C   UNL     1       5.715   4.158  16.666  0.00  0.00    +0.000 A 
ATOM     28  C   UNL     1       4.804   5.189  16.421  0.00  0.00    +0.000 A 
ENDBRANCH  22  23
ENDBRANCH   3  22
TORSDOF 6
ENDMDL
MODEL 8
REMARK VINA RESULT:      -7.4      2.904      3.914
REMARK  Name = 
REMARK  6 active torsions:
REMARK  status: ('A' for Active; 'I' for Inactive)
REMARK    1  A    between atoms: C_2  and  C_3
REMARK    2  A    between atoms: N_12  and  C_13
REMARK    3  A    between atoms: N_12  and  C_21
REMARK    4  A    between atoms: C_13  and  C_14
REMARK    5  A    between atoms: C_14  and  C_15
REMARK    6  A    between atoms: C_21  and  C_22
REMARK                            x       y       z     vdW  Elec       q    Type
REMARK                         _______ _______ _______ _____ _____    ______ ____
ROOT
ATOM      1  O   UNL     1       2.642   8.464  17.024  0.00  0.00    +0.000 OA
ATOM      2  C   UNL     1       2.413   7.949  18.121  0.00  0.00    +0.000 C 
ATOM      3  N   UNL     1       2.858   6.648  18.450  0.00  0.00    +0.000 N 
ENDROOT
BRANCH   2   4
ATOM      4  C   UNL     1       1.651   8.796  19.073  0.00  0.00    +0.000 A 
ATOM      5  C   UNL     1       1.380  10.120  18.702  0.00  0.00    +0.000 A 
ATOM      6  N   UNL     1       0.767  11.071  19.470  0.00  0.00    +0.000 NA
ATOM      7  C   UNL     1       0.454  10.603  20.690  0.00  0.00    +0.000 A 
ATOM      8  N   UNL     1      -0.126  11.284  21.717  0.00  0.00    +0.000 N 
ATOM      9  C   UNL     1      -0.251  10.422  22.770  0.00  0.00    +0.000 A 
ATOM     10  N   UNL     1       0.235   9.233  22.489  0.00  0.00    +0.000 NA
ATOM     11  C   UNL     1       0.685   9.332  21.198  0.00  0.00    +0.000 A 
ATOM     12  C   UNL     1       1.333   8.405  20.378  0.00  0.00    +0.000 A 
ATOM     13  H   UNL     1      -0.392  12.258  21.691  0.00  0.00    +0.000 HD
ENDBRANCH   2   4
BRANCH   3  14
ATOM     14  C   UNL     1       2.731   6.092  19.806  0.00  0.00    +0.000 C 
BRANCH  14  15
ATOM     15  C   UNL     1       1.831   4.876  20.052  0.00  0.00    +0.000 C 
BRANCH  15  16
ATOM     16  C   UNL     1       2.451   3.628  19.459  0.00  0.00    +0.000 A 
ATOM     17  C   UNL     1       3.548   3.024  20.079  0.00  0.00    +0.000 A 
ATOM     18  C   UNL     1       4.132   1.883  19.528  0.00  0.00    +0.000 A 
ATOM     19  C   UNL     1       3.629   1.340  18.345  0.00  0.00    +0.000 A 
ATOM     20  C   UNL     1       2.549   1.947  17.706  0.00  0.00    +0.000 A 
ATOM     21  C   UNL     1       1.964   3.088  18.256  0.00  0.00    +0.000 A 
ENDBRANCH  15  16
ENDBRANCH  14  15
ENDBRANCH   3  14
BRANCH   3  22
ATOM     22  C   UNL     1       3.808   6.049  17.504  0.00  0.00    +0.000 C 
BRANCH  22  23
ATOM     23  C   UNL     1       5.276   6.176  17.864  0.00  0.00    +0.000 A 
ATOM     24  C   UNL     1       6.067   7.133  17.207  0.00  0.00    +0.000 A 
ATOM     25  C   UNL     1       7.388   7.357  17.594  0.00  0.00    +0.000 A 
ATOM     26  C   UNL     1       7.940   6.629  18.644  0.00  0.00    +0.000 A 
ATOM     27  C   UNL     1       7.174   5.662  19.293  0.00  0.00    +0.000 A 
ATOM     28  C   UNL     1       5.850   5.433  18.905  0.00  0.00    +0.000 A 
ENDBRANCH  22  23
ENDBRANCH   3  22
TORSDOF 6
ENDMDL
MODEL 9
REMARK VINA RESULT:      -7.4      2.979      3.949
REMARK  Name = 
REMARK  6 active torsions:
REMARK  status: ('A' for Active; 'I' for Inactive)
REMARK    1  A    between atoms: C_2  and  C_3
REMARK    2  A    between atoms: N_12  and  C_13
REMARK    3  A    between atoms: N_12  and  C_21
REMARK    4  A    between atoms: C_13  and  C_14
REMARK    5  A    between atoms: C_14  and  C_15
REMARK    6  A    between atoms: C_21  and  C_22
REMARK                            x       y       z     vdW  Elec       q    Type
REMARK                         _______ _______ _______ _____ _____    ______ ____
ROOT
ATOM      1  O   UNL     1       2.536   8.590  17.096  0.00  0.00    +0.000 OA
ATOM      2  C   UNL     1       2.262   8.037  18.164  0.00  0.00    +0.000 C 
ATOM      3  N   UNL     1       2.713   6.733  18.474  0.00  0.00    +0.000 N 
ENDROOT
BRANCH   2   4
ATOM      4  C   UNL     1       1.440   8.841  19.102  0.00  0.00    +0.000 A 
ATOM      5  C   UNL     1       0.766   9.959  18.592  0.00  0.00    +0.000 A 
ATOM      6  N   UNL     1       0.030  10.863  19.308  0.00  0.00    +0.000 NA
ATOM      7  C   UNL     1       0.034  10.581  20.622  0.00  0.00    +0.000 A 
ATOM      8  N   UNL     1      -0.560  11.286  21.624  0.00  0.00    +0.000 N 
ATOM      9  C   UNL     1      -0.294  10.644  22.800  0.00  0.00    +0.000 A 
ATOM     10  N   UNL     1       0.455   9.579  22.617  0.00  0.00    +0.000 NA
ATOM     11  C   UNL     1       0.673   9.530  21.265  0.00  0.00    +0.000 A 
ATOM     12  C   UNL     1       1.429   8.648  20.488  0.00  0.00    +0.000 A 
ATOM     13  H   UNL     1      -1.084  12.141  21.501  0.00  0.00    +0.000 HD
ENDBRANCH   2   4
BRANCH   3  14
ATOM     14  C   UNL     1       2.529   6.132  19.804  0.00  0.00    +0.000 C 
BRANCH  14  15
ATOM     15  C   UNL     1       1.655   4.884  19.964  0.00  0.00    +0.000 C 
BRANCH  15  16
ATOM     16  C   UNL     1       2.359   3.667  19.401  0.00  0.00    +0.000 A 
ATOM     17  C   UNL     1       1.925   3.094  18.203  0.00  0.00    +0.000 A 
ATOM     18  C   UNL     1       2.561   1.964  17.688  0.00  0.00    +0.000 A 
ATOM     19  C   UNL     1       3.633   1.391  18.373  0.00  0.00    +0.000 A 
ATOM     20  C   UNL     1       4.061   1.940  19.580  0.00  0.00    +0.000 A 
ATOM     21  C   UNL     1       3.425   3.071  20.096  0.00  0.00    +0.000 A 
ENDBRANCH  15  16
ENDBRANCH  14  15
ENDBRANCH   3  14
BRANCH   3  22
ATOM     22  C   UNL     1       3.719   6.180  17.558  0.00  0.00    +0.000 C 
BRANCH  22  23
ATOM     23  C   UNL     1       5.165   6.323  17.993  0.00  0.00    +0.000 A 
ATOM     24  C   UNL     1       5.663   5.497  19.014  0.00  0.00    +0.000 A 
ATOM     25  C   UNL     1       7.014   5.520  19.359  0.00  0.00    +0.000 A 
ATOM     26  C   UNL     1       7.890   6.369  18.688  0.00  0.00    +0.000 A 
ATOM     27  C   UNL     1       7.407   7.209  17.686  0.00  0.00    +0.000 A 
ATOM     28  C   UNL     1       6.053   7.190  17.340  0.00  0.00    +0.000 A 
ENDBRANCH  22  23
ENDBRANCH   3  22
TORSDOF 6
ENDMDL
