MODEL 1
REMARK VINA RESULT:      -8.0      0.000      0.000
REMARK  Name = 
REMARK  4 active torsions:
REMARK  status: ('A' for Active; 'I' for Inactive)
REMARK    1  A    between atoms: C_2  and  C_19
REMARK    2  A    between atoms: N_3  and  C_4
REMARK    3  A    between atoms: C_7  and  C_8
REMARK    4  A    between atoms: C_24  and  N_25
REMARK                            x       y       z     vdW  Elec       q    Type
REMARK                         _______ _______ _______ _____ _____    ______ ____
ROOT
ATOM      1  C   UNL     1       5.443   5.050  17.794  0.00  0.00    +0.000 C 
ATOM      2  C   UNL     1       5.744   5.745  16.461  0.00  0.00    +0.000 C 
ATOM      3  C   UNL     1       6.513   7.052  16.648  0.00  0.00    +0.000 C 
ATOM      4  C   UNL     1       7.764   6.923  17.541  0.00  0.00    +0.000 C 
ATOM      5  C   UNL     1       7.532   6.063  18.797  0.00  0.00    +0.000 C 
ATOM      6  C   UNL     1       6.766   4.773  18.513  0.00  0.00    +0.000 C 
ENDROOT
BRANCH   4   7
ATOM      7  C   UNL     1       8.232   8.288  17.965  0.00  0.00    +0.000 A 
ATOM      8  N   UNL     1       8.053   9.410  17.294  0.00  0.00    +0.000 NA
ATOM      9  C   UNL     1       8.561  10.406  18.082  0.00  0.00    +0.000 A 
ATOM     10  C   UNL     1       8.619  11.789  17.852  0.00  0.00    +0.000 A 
ATOM     11  C   UNL     1       9.177  12.608  18.837  0.00  0.00    +0.000 A 
ATOM     12  C   UNL     1       9.668  12.066  20.027  0.00  0.00    +0.000 A 
ATOM     13  C   UNL     1       9.624  10.689  20.274  0.00  0.00    +0.000 A 
ATOM     14  C   UNL     1       9.064   9.889  19.271  0.00  0.00    +0.000 A 
ATOM     15  N   UNL     1       8.851   8.536  19.168  0.00  0.00    +0.000 N 
ATOM     16  H   UNL     1       9.078   7.847  19.868  0.00  0.00    +0.000 HD
ENDBRANCH   4   7
BRANCH   1  19
ATOM     17  O   UNL     1       2.616   5.068  17.626  0.00  0.00    +0.000 OA
ATOM     18  C   UNL     1       3.148   5.751  18.490  0.00  0.00    +0.000 C 
ATOM     19  N   UNL     1       4.530   5.840  18.620  0.00  0.00    +0.000 N 
ATOM     20  H   UNL     1       4.903   6.314  19.436  0.00  0.00    +0.000 HD
BRANCH  18  21
ATOM     21  C   UNL     1       2.357   6.583  19.440  0.00  0.00    +0.000 A 
ATOM     22  C   UNL     1       2.310   7.966  19.158  0.00  0.00    +0.000 A 
ATOM     23  C   UNL     1       1.517   8.812  19.915  0.00  0.00    +0.000 A 
ATOM     24  C   UNL     1       0.779   8.245  20.928  0.00  0.00    +0.000 A 
ATOM     25  N   UNL     1       0.796   6.925  21.217  0.00  0.00    +0.000 NA
ATOM     26  C   UNL     1       1.576   6.069  20.496  0.00  0.00    +0.000 A 
BRANCH  26  27
ATOM     27  N   UNL     1       1.525   4.745  20.884  0.00  0.00    +0.000 N 
ATOM     28  C   UNL     1       2.664   4.120  21.557  0.00  0.00    +0.000 C 
ATOM     29  C   UNL     1       2.851   2.790  20.842  0.00  0.00    +0.000 C 
ATOM     30  C   UNL     1       1.448   2.417  20.402  0.00  0.00    +0.000 C 
ATOM     31  C   UNL     1       0.741   3.753  20.156  0.00  0.00    +0.000 C 
ENDBRANCH  26  27
ENDBRANCH  18  21
ENDBRANCH   1  19
TORSDOF 4
ENDMDL
MODEL 2
REMARK VINA RESULT:      -7.6      0.182      1.092
REMARK  Name = 
REMARK  4 active torsions:
REMARK  status: ('A' for Active; 'I' for Inactive)
REMARK    1  A    between atoms: C_2  and  C_19
REMARK    2  A    between atoms: N_3  and  C_4
REMARK    3  A    between atoms: C_7  and  C_8
REMARK    4  A    between atoms: C_24  and  N_25
REMARK                            x       y       z     vdW  Elec       q    Type
REMARK                         _______ _______ _______ _____ _____    ______ ____
ROOT
ATOM      1  C   UNL     1       5.450   5.165  17.785  0.00  0.00    +0.000 C 
ATOM      2  C   UNL     1       5.740   5.907  16.476  0.00  0.00    +0.000 C 
ATOM      3  C   UNL     1       6.487   7.220  16.706  0.00  0.00    +0.000 C 
ATOM      4  C   UNL     1       7.739   7.083  17.595  0.00  0.00    +0.000 C 
ATOM      5  C   UNL     1       7.521   6.178  18.822  0.00  0.00    +0.000 C 
ATOM      6  C   UNL     1       6.777   4.886  18.496  0.00  0.00    +0.000 C 
ENDROOT
BRANCH   4   7
ATOM      7  C   UNL     1       8.185   8.441  18.064  0.00  0.00    +0.000 A 
ATOM      8  N   UNL     1       8.921   8.688  19.132  0.00  0.00    +0.000 NA
ATOM      9  C   UNL     1       9.152  10.036  19.127  0.00  0.00    +0.000 A 
ATOM     10  C   UNL     1       9.883  10.823  20.030  0.00  0.00    +0.000 A 
ATOM     11  C   UNL     1       9.989  12.195  19.787  0.00  0.00    +0.000 A 
ATOM     12  C   UNL     1       9.380  12.776  18.672  0.00  0.00    +0.000 A 
ATOM     13  C   UNL     1       8.642  12.009  17.763  0.00  0.00    +0.000 A 
ATOM     14  C   UNL     1       8.547  10.639  18.029  0.00  0.00    +0.000 A 
ATOM     15  N   UNL     1       7.930   9.603  17.372  0.00  0.00    +0.000 N 
ATOM     16  H   UNL     1       7.408   9.674  16.513  0.00  0.00    +0.000 HD
ENDBRANCH   4   7
BRANCH   1  19
ATOM     17  O   UNL     1       2.623   5.129  17.626  0.00  0.00    +0.000 OA
ATOM     18  C   UNL     1       3.143   5.797  18.508  0.00  0.00    +0.000 C 
ATOM     19  N   UNL     1       4.524   5.912  18.636  0.00  0.00    +0.000 N 
ATOM     20  H   UNL     1       4.890   6.370  19.464  0.00  0.00    +0.000 HD
BRANCH  18  21
ATOM     21  C   UNL     1       2.339   6.586  19.484  0.00  0.00    +0.000 A 
ATOM     22  C   UNL     1       2.286   7.979  19.258  0.00  0.00    +0.000 A 
ATOM     23  C   UNL     1       1.481   8.789  20.041  0.00  0.00    +0.000 A 
ATOM     24  C   UNL     1       0.738   8.177  21.023  0.00  0.00    +0.000 A 
ATOM     25  N   UNL     1       0.759   6.846  21.258  0.00  0.00    +0.000 NA
ATOM     26  C   UNL     1       1.551   6.024  20.510  0.00  0.00    +0.000 A 
BRANCH  26  27
ATOM     27  N   UNL     1       1.504   4.685  20.843  0.00  0.00    +0.000 N 
ATOM     28  C   UNL     1       2.611   4.057  21.564  0.00  0.00    +0.000 C 
ATOM     29  C   UNL     1       2.873   2.760  20.813  0.00  0.00    +0.000 C 
ATOM     30  C   UNL     1       1.508   2.377  20.269  0.00  0.00    +0.000 C 
ATOM     31  C   UNL     1       0.790   3.708  20.029  0.00  0.00    +0.000 C 
ENDBRANCH  26  27
ENDBRANCH  18  21
ENDBRANCH   1  19
TORSDOF 4
ENDMDL
MODEL 3
REMARK VINA RESULT:      -7.6      5.376      9.210
REMARK  Name = 
REMARK  4 active torsions:
REMARK  status: ('A' for Active; 'I' for Inactive)
REMARK    1  A    between atoms: C_2  and  C_19
REMARK    2  A    between atoms: N_3  and  C_4
REMARK    3  A    between atoms: C_7  and  C_8
REMARK    4  A    between atoms: C_24  and  N_25
REMARK                            x       y       z     vdW  Elec       q    Type
REMARK                         _______ _______ _______ _____ _____    ______ ____
ROOT
ATOM      1  C   UNL     1      -0.789  11.551  21.626  0.00  0.00    +0.000 C 
ATOM      2  C   UNL     1      -0.875  10.389  22.623  0.00  0.00    +0.000 C 
ATOM      3  C   UNL     1      -0.246   9.108  22.076  0.00  0.00    +0.000 C 
ATOM      4  C   UNL     1       1.177   9.298  21.513  0.00  0.00    +0.000 C 
ATOM      5  C   UNL     1       1.332  10.572  20.661  0.00  0.00    +0.000 C 
ATOM      6  C   UNL     1       0.683  11.801  21.289  0.00  0.00    +0.000 C 
ENDROOT
BRANCH   4   7
ATOM      7  C   UNL     1       1.561   8.105  20.680  0.00  0.00    +0.000 A 
ATOM      8  N   UNL     1       2.032   8.142  19.448  0.00  0.00    +0.000 NA
ATOM      9  C   UNL     1       2.320   6.846  19.116  0.00  0.00    +0.000 A 
ATOM     10  C   UNL     1       2.852   6.323  17.927  0.00  0.00    +0.000 A 
ATOM     11  C   UNL     1       3.075   4.946  17.845  0.00  0.00    +0.000 A 
ATOM     12  C   UNL     1       2.778   4.105  18.919  0.00  0.00    +0.000 A 
ATOM     13  C   UNL     1       2.242   4.606  20.111  0.00  0.00    +0.000 A 
ATOM     14  C   UNL     1       2.024   5.987  20.169  0.00  0.00    +0.000 A 
ATOM     15  N   UNL     1       1.533   6.812  21.151  0.00  0.00    +0.000 N 
ATOM     16  H   UNL     1       1.234   6.526  22.070  0.00  0.00    +0.000 HD
ENDBRANCH   4   7
BRANCH   1  19
ATOM     17  O   UNL     1      -2.198  13.476  20.099  0.00  0.00    +0.000 OA
ATOM     18  C   UNL     1      -2.210  12.314  19.718  0.00  0.00    +0.000 C 
ATOM     19  N   UNL     1      -1.586  11.293  20.426  0.00  0.00    +0.000 N 
ATOM     20  H   UNL     1      -1.520  10.380  19.990  0.00  0.00    +0.000 HD
BRANCH  18  21
ATOM     21  C   UNL     1      -2.942  11.892  18.490  0.00  0.00    +0.000 A 
ATOM     22  C   UNL     1      -2.140  11.473  17.406  0.00  0.00    +0.000 A 
ATOM     23  C   UNL     1      -2.720  10.960  16.258  0.00  0.00    +0.000 A 
ATOM     24  C   UNL     1      -4.092  10.867  16.234  0.00  0.00    +0.000 A 
ATOM     25  N   UNL     1      -4.887  11.251  17.257  0.00  0.00    +0.000 NA
ATOM     26  C   UNL     1      -4.344  11.771  18.396  0.00  0.00    +0.000 A 
BRANCH  26  27
ATOM     27  N   UNL     1      -5.248  12.139  19.373  0.00  0.00    +0.000 N 
ATOM     28  C   UNL     1      -6.252  11.191  19.856  0.00  0.00    +0.000 C 
ATOM     29  C   UNL     1      -7.553  11.979  19.864  0.00  0.00    +0.000 C 
ATOM     30  C   UNL     1      -7.110  13.404  20.142  0.00  0.00    +0.000 C 
ATOM     31  C   UNL     1      -5.716  13.514  19.519  0.00  0.00    +0.000 C 
ENDBRANCH  26  27
ENDBRANCH  18  21
ENDBRANCH   1  19
TORSDOF 4
ENDMDL
MODEL 4
REMARK VINA RESULT:      -7.5      5.906      9.536
REMARK  Name = 
REMARK  4 active torsions:
REMARK  status: ('A' for Active; 'I' for Inactive)
REMARK    1  A    between atoms: C_2  and  C_19
REMARK    2  A    between atoms: N_3  and  C_4
REMARK    3  A    between atoms: C_7  and  C_8
REMARK    4  A    between atoms: C_24  and  N_25
REMARK                            x       y       z     vdW  Elec       q    Type
REMARK                         _______ _______ _______ _____ _____    ______ ____
ROOT
ATOM      1  C   UNL     1      -1.994  13.680  21.129  0.00  0.00    +0.000 C 
ATOM      2  C   UNL     1      -1.140  13.145  22.284  0.00  0.00    +0.000 C 
ATOM      3  C   UNL     1      -0.348  11.898  21.891  0.00  0.00    +0.000 C 
ATOM      4  C   UNL     1       0.457  12.051  20.585  0.00  0.00    +0.000 C 
ATOM      5  C   UNL     1      -0.325  12.764  19.465  0.00  0.00    +0.000 C 
ATOM      6  C   UNL     1      -1.076  14.002  19.948  0.00  0.00    +0.000 C 
ENDROOT
BRANCH   4   7
ATOM      7  C   UNL     1       0.890  10.698  20.090  0.00  0.00    +0.000 A 
ATOM      8  N   UNL     1       1.252  10.406  18.855  0.00  0.00    +0.000 NA
ATOM      9  C   UNL     1       1.643   9.095  18.878  0.00  0.00    +0.000 A 
ATOM     10  C   UNL     1       2.125   8.286  17.837  0.00  0.00    +0.000 A 
ATOM     11  C   UNL     1       2.481   6.967  18.127  0.00  0.00    +0.000 A 
ATOM     12  C   UNL     1       2.361   6.458  19.422  0.00  0.00    +0.000 A 
ATOM     13  C   UNL     1       1.877   7.247  20.473  0.00  0.00    +0.000 A 
ATOM     14  C   UNL     1       1.524   8.563  20.157  0.00  0.00    +0.000 A 
ATOM     15  N   UNL     1       1.033   9.602  20.910  0.00  0.00    +0.000 N 
ATOM     16  H   UNL     1       0.842   9.578  21.900  0.00  0.00    +0.000 HD
ENDBRANCH   4   7
BRANCH   1  19
ATOM     17  O   UNL     1      -4.621  14.341  20.301  0.00  0.00    +0.000 OA
ATOM     18  C   UNL     1      -4.302  13.161  20.322  0.00  0.00    +0.000 C 
ATOM     19  N   UNL     1      -3.050  12.737  20.757  0.00  0.00    +0.000 N 
ATOM     20  H   UNL     1      -2.803  11.763  20.624  0.00  0.00    +0.000 HD
BRANCH  18  21
ATOM     21  C   UNL     1      -5.248  12.077  19.933  0.00  0.00    +0.000 A 
ATOM     22  C   UNL     1      -6.398  11.942  20.741  0.00  0.00    +0.000 A 
ATOM     23  C   UNL     1      -7.392  11.038  20.405  0.00  0.00    +0.000 A 
ATOM     24  C   UNL     1      -7.212  10.303  19.257  0.00  0.00    +0.000 A 
ATOM     25  N   UNL     1      -6.128  10.415  18.458  0.00  0.00    +0.000 NA
ATOM     26  C   UNL     1      -5.127  11.288  18.770  0.00  0.00    +0.000 A 
BRANCH  26  27
ATOM     27  N   UNL     1      -4.062  11.314  17.891  0.00  0.00    +0.000 N 
ATOM     28  C   UNL     1      -4.276  11.578  16.468  0.00  0.00    +0.000 C 
ATOM     29  C   UNL     1      -3.457  10.514  15.752  0.00  0.00    +0.000 C 
ATOM     30  C   UNL     1      -2.299  10.254  16.697  0.00  0.00    +0.000 C 
ATOM     31  C   UNL     1      -2.866  10.504  18.097  0.00  0.00    +0.000 C 
ENDBRANCH  26  27
ENDBRANCH  18  21
ENDBRANCH   1  19
TORSDOF 4
ENDMDL
MODEL 5
REMARK VINA RESULT:      -7.3      4.145      5.855
REMARK  Name = 
REMARK  4 active torsions:
REMARK  status: ('A' for Active; 'I' for Inactive)
REMARK    1  A    between atoms: C_2  and  C_19
REMARK    2  A    between atoms: N_3  and  C_4
REMARK    3  A    between atoms: C_7  and  C_8
REMARK    4  A    between atoms: C_24  and  N_25
REMARK                            x       y       z     vdW  Elec       q    Type
REMARK                         _______ _______ _______ _____ _____    ______ ____
ROOT
ATOM      1  C   UNL     1       3.325   4.135  19.534  0.00  0.00    +0.000 C 
ATOM      2  C   UNL     1       2.798   3.135  18.498  0.00  0.00    +0.000 C 
ATOM      3  C   UNL     1       3.509   3.267  17.152  0.00  0.00    +0.000 C 
ATOM      4  C   UNL     1       5.048   3.259  17.250  0.00  0.00    +0.000 C 
ATOM      5  C   UNL     1       5.591   4.111  18.413  0.00  0.00    +0.000 C 
ATOM      6  C   UNL     1       4.827   3.907  19.718  0.00  0.00    +0.000 C 
ENDROOT
BRANCH   4   7
ATOM      7  C   UNL     1       5.645   3.757  15.962  0.00  0.00    +0.000 A 
ATOM      8  N   UNL     1       6.520   4.737  15.843  0.00  0.00    +0.000 NA
ATOM      9  C   UNL     1       6.847   4.792  14.516  0.00  0.00    +0.000 A 
ATOM     10  C   UNL     1       7.738   5.645  13.847  0.00  0.00    +0.000 A 
ATOM     11  C   UNL     1       7.914   5.482  12.471  0.00  0.00    +0.000 A 
ATOM     12  C   UNL     1       7.219   4.493  11.771  0.00  0.00    +0.000 A 
ATOM     13  C   UNL     1       6.323   3.635  12.418  0.00  0.00    +0.000 A 
ATOM     14  C   UNL     1       6.161   3.820  13.795  0.00  0.00    +0.000 A 
ATOM     15  N   UNL     1       5.395   3.179  14.738  0.00  0.00    +0.000 N 
ATOM     16  H   UNL     1       4.779   2.399  14.570  0.00  0.00    +0.000 HD
ENDBRANCH   4   7
BRANCH   1  19
ATOM     17  O   UNL     1       1.562   5.905  20.870  0.00  0.00    +0.000 OA
ATOM     18  C   UNL     1       2.175   6.324  19.898  0.00  0.00    +0.000 C 
ATOM     19  N   UNL     1       3.027   5.516  19.153  0.00  0.00    +0.000 N 
ATOM     20  H   UNL     1       3.604   5.956  18.444  0.00  0.00    +0.000 HD
BRANCH  18  21
ATOM     21  C   UNL     1       2.015   7.720  19.403  0.00  0.00    +0.000 A 
ATOM     22  C   UNL     1       2.479   7.968  18.093  0.00  0.00    +0.000 A 
ATOM     23  C   UNL     1       2.281   9.203  17.498  0.00  0.00    +0.000 A 
ATOM     24  C   UNL     1       1.611  10.154  18.231  0.00  0.00    +0.000 A 
ATOM     25  N   UNL     1       1.147   9.946  19.482  0.00  0.00    +0.000 NA
ATOM     26  C   UNL     1       1.337   8.743  20.099  0.00  0.00    +0.000 A 
BRANCH  26  27
ATOM     27  N   UNL     1       0.832   8.643  21.380  0.00  0.00    +0.000 N 
ATOM     28  C   UNL     1      -0.611   8.668  21.617  0.00  0.00    +0.000 C 
ATOM     29  C   UNL     1      -0.795   9.642  22.771  0.00  0.00    +0.000 C 
ATOM     30  C   UNL     1       0.485   9.495  23.573  0.00  0.00    +0.000 C 
ATOM     31  C   UNL     1       1.560   9.140  22.542  0.00  0.00    +0.000 C 
ENDBRANCH  26  27
ENDBRANCH  18  21
ENDBRANCH   1  19
TORSDOF 4
ENDMDL
MODEL 6
REMARK VINA RESULT:      -7.3      5.371      9.341
REMARK  Name = 
REMARK  4 active torsions:
REMARK  status: ('A' for Active; 'I' for Inactive)
REMARK    1  A    between atoms: C_2  and  C_19
REMARK    2  A    between atoms: N_3  and  C_4
REMARK    3  A    between atoms: C_7  and  C_8
REMARK    4  A    between atoms: C_24  and  N_25
REMARK                            x       y       z     vdW  Elec       q    Type
REMARK                         _______ _______ _______ _____ _____    ______ ____
ROOT
ATOM      1  C   UNL     1      -0.799  11.590  21.645  0.00  0.00    +0.000 C 
ATOM      2  C   UNL     1      -0.941  10.471  22.684  0.00  0.00    +0.000 C 
ATOM      3  C   UNL     1      -0.330   9.154  22.205  0.00  0.00    +0.000 C 
ATOM      4  C   UNL     1       1.111   9.287  21.673  0.00  0.00    +0.000 C 
ATOM      5  C   UNL     1       1.321  10.522  20.776  0.00  0.00    +0.000 C 
ATOM      6  C   UNL     1       0.687  11.791  21.339  0.00  0.00    +0.000 C 
ENDROOT
BRANCH   4   7
ATOM      7  C   UNL     1       1.485   8.052  20.897  0.00  0.00    +0.000 A 
ATOM      8  N   UNL     1       1.263   6.807  21.273  0.00  0.00    +0.000 NA
ATOM      9  C   UNL     1       1.687   6.020  20.236  0.00  0.00    +0.000 A 
ATOM     10  C   UNL     1       1.672   4.623  20.109  0.00  0.00    +0.000 A 
ATOM     11  C   UNL     1       2.148   4.055  18.925  0.00  0.00    +0.000 A 
ATOM     12  C   UNL     1       2.630   4.857  17.887  0.00  0.00    +0.000 A 
ATOM     13  C   UNL     1       2.658   6.252  17.997  0.00  0.00    +0.000 A 
ATOM     14  C   UNL     1       2.179   6.797  19.193  0.00  0.00    +0.000 A 
ATOM     15  N   UNL     1       2.048   8.088  19.643  0.00  0.00    +0.000 N 
ATOM     16  H   UNL     1       2.292   8.921  19.129  0.00  0.00    +0.000 HD
ENDBRANCH   4   7
BRANCH   1  19
ATOM     17  O   UNL     1      -2.305  13.454  20.135  0.00  0.00    +0.000 OA
ATOM     18  C   UNL     1      -2.248  12.299  19.737  0.00  0.00    +0.000 C 
ATOM     19  N   UNL     1      -1.571  11.305  20.435  0.00  0.00    +0.000 N 
ATOM     20  H   UNL     1      -1.449  10.404  19.987  0.00  0.00    +0.000 HD
BRANCH  18  21
ATOM     21  C   UNL     1      -2.945  11.854  18.497  0.00  0.00    +0.000 A 
ATOM     22  C   UNL     1      -2.112  11.430  17.439  0.00  0.00    +0.000 A 
ATOM     23  C   UNL     1      -2.660  10.896  16.284  0.00  0.00    +0.000 A 
ATOM     24  C   UNL     1      -4.030  10.789  16.227  0.00  0.00    +0.000 A 
ATOM     25  N   UNL     1      -4.852  11.178  17.226  0.00  0.00    +0.000 NA
ATOM     26  C   UNL     1      -4.343  11.717  18.371  0.00  0.00    +0.000 A 
BRANCH  26  27
ATOM     27  N   UNL     1      -5.274  12.089  19.321  0.00  0.00    +0.000 N 
ATOM     28  C   UNL     1      -6.261  11.128  19.814  0.00  0.00    +0.000 C 
ATOM     29  C   UNL     1      -7.583  11.880  19.776  0.00  0.00    +0.000 C 
ATOM     30  C   UNL     1      -7.183  13.324  20.020  0.00  0.00    +0.000 C 
ATOM     31  C   UNL     1      -5.781  13.453  19.419  0.00  0.00    +0.000 C 
ENDBRANCH  26  27
ENDBRANCH  18  21
ENDBRANCH   1  19
TORSDOF 4
ENDMDL
MODEL 7
REMARK VINA RESULT:      -7.1      5.536      9.449
REMARK  Name = 
REMARK  4 active torsions:
REMARK  status: ('A' for Active; 'I' for Inactive)
REMARK    1  A    between atoms: C_2  and  C_19
REMARK    2  A    between atoms: N_3  and  C_4
REMARK    3  A    between atoms: C_7  and  C_8
REMARK    4  A    between atoms: C_24  and  N_25
REMARK                            x       y       z     vdW  Elec       q    Type
REMARK                         _______ _______ _______ _____ _____    ______ ____
ROOT
ATOM      1  C   UNL     1      -1.054  11.840  21.937  0.00  0.00    +0.000 C 
ATOM      2  C   UNL     1      -1.060  10.671  22.929  0.00  0.00    +0.000 C 
ATOM      3  C   UNL     1      -0.407   9.416  22.351  0.00  0.00    +0.000 C 
ATOM      4  C   UNL     1       0.986   9.660  21.735  0.00  0.00    +0.000 C 
ATOM      5  C   UNL     1       1.062  10.942  20.885  0.00  0.00    +0.000 C 
ATOM      6  C   UNL     1       0.394  12.145  21.546  0.00  0.00    +0.000 C 
ENDROOT
BRANCH   4   7
ATOM      7  C   UNL     1       1.379   8.485  20.880  0.00  0.00    +0.000 A 
ATOM      8  N   UNL     1       1.770   8.542  19.621  0.00  0.00    +0.000 NA
ATOM      9  C   UNL     1       2.105   7.262  19.273  0.00  0.00    +0.000 A 
ATOM     10  C   UNL     1       2.588   6.762  18.054  0.00  0.00    +0.000 A 
ATOM     11  C   UNL     1       2.879   5.399  17.958  0.00  0.00    +0.000 A 
ATOM     12  C   UNL     1       2.693   4.547  19.049  0.00  0.00    +0.000 A 
ATOM     13  C   UNL     1       2.207   5.025  20.273  0.00  0.00    +0.000 A 
ATOM     14  C   UNL     1       1.920   6.392  20.343  0.00  0.00    +0.000 A 
ATOM     15  N   UNL     1       1.448   7.195  21.352  0.00  0.00    +0.000 N 
ATOM     16  H   UNL     1       1.223   6.897  22.289  0.00  0.00    +0.000 HD
ENDBRANCH   4   7
BRANCH   1  19
ATOM     17  O   UNL     1      -2.528  13.733  20.432  0.00  0.00    +0.000 OA
ATOM     18  C   UNL     1      -2.543  12.566  20.066  0.00  0.00    +0.000 C 
ATOM     19  N   UNL     1      -1.887  11.559  20.767  0.00  0.00    +0.000 N 
ATOM     20  H   UNL     1      -1.827  10.641  20.341  0.00  0.00    +0.000 HD
BRANCH  18  21
ATOM     21  C   UNL     1      -3.310  12.121  18.869  0.00  0.00    +0.000 A 
ATOM     22  C   UNL     1      -2.552  11.533  17.833  0.00  0.00    +0.000 A 
ATOM     23  C   UNL     1      -3.179  10.989  16.724  0.00  0.00    +0.000 A 
ATOM     24  C   UNL     1      -4.553  11.037  16.690  0.00  0.00    +0.000 A 
ATOM     25  N   UNL     1      -5.306  11.585  17.668  0.00  0.00    +0.000 NA
ATOM     26  C   UNL     1      -4.717  12.139  18.768  0.00  0.00    +0.000 A 
BRANCH  26  27
ATOM     27  N   UNL     1      -5.581  12.679  19.700  0.00  0.00    +0.000 N 
ATOM     28  C   UNL     1      -5.983  14.083  19.617  0.00  0.00    +0.000 C 
ATOM     29  C   UNL     1      -5.829  14.612  21.036  0.00  0.00    +0.000 C 
ATOM     30  C   UNL     1      -6.109  13.399  21.905  0.00  0.00    +0.000 C 
ATOM     31  C   UNL     1      -5.634  12.201  21.077  0.00  0.00    +0.000 C 
ENDBRANCH  26  27
ENDBRANCH  18  21
ENDBRANCH   1  19
TORSDOF 4
ENDMDL
MODEL 8
REMARK VINA RESULT:      -7.1      2.353      6.903
REMARK  Name = 
REMARK  4 active torsions:
REMARK  status: ('A' for Active; 'I' for Inactive)
REMARK    1  A    between atoms: C_2  and  C_19
REMARK    2  A    between atoms: N_3  and  C_4
REMARK    3  A    between atoms: C_7  and  C_8
REMARK    4  A    between atoms: C_24  and  N_25
REMARK                            x       y       z     vdW  Elec       q    Type
REMARK                         _______ _______ _______ _____ _____    ______ ____
ROOT
ATOM      1  C   UNL     1       3.221   2.647  18.804  0.00  0.00    +0.000 C 
ATOM      2  C   UNL     1       3.699   3.221  20.143  0.00  0.00    +0.000 C 
ATOM      3  C   UNL     1       3.416   4.717  20.268  0.00  0.00    +0.000 C 
ATOM      4  C   UNL     1       1.960   5.110  19.944  0.00  0.00    +0.000 C 
ATOM      5  C   UNL     1       1.395   4.393  18.704  0.00  0.00    +0.000 C 
ATOM      6  C   UNL     1       1.717   2.902  18.669  0.00  0.00    +0.000 C 
ENDROOT
BRANCH   4   7
ATOM      7  C   UNL     1       1.867   6.597  19.731  0.00  0.00    +0.000 A 
ATOM      8  N   UNL     1       2.148   7.237  18.612  0.00  0.00    +0.000 NA
ATOM      9  C   UNL     1       1.846   8.551  18.843  0.00  0.00    +0.000 A 
ATOM     10  C   UNL     1       1.948   9.658  17.987  0.00  0.00    +0.000 A 
ATOM     11  C   UNL     1       1.550  10.909  18.462  0.00  0.00    +0.000 A 
ATOM     12  C   UNL     1       1.060  11.061  19.761  0.00  0.00    +0.000 A 
ATOM     13  C   UNL     1       0.955   9.971  20.633  0.00  0.00    +0.000 A 
ATOM     14  C   UNL     1       1.363   8.729  20.135  0.00  0.00    +0.000 A 
ATOM     15  N   UNL     1       1.395   7.470  20.684  0.00  0.00    +0.000 N 
ATOM     16  H   UNL     1       1.094   7.222  21.614  0.00  0.00    +0.000 HD
ENDBRANCH   4   7
BRANCH   1  19
ATOM     17  O   UNL     1       5.887   3.600  18.869  0.00  0.00    +0.000 OA
ATOM     18  C   UNL     1       5.295   3.612  17.799  0.00  0.00    +0.000 C 
ATOM     19  N   UNL     1       3.970   3.207  17.678  0.00  0.00    +0.000 N 
ATOM     20  H   UNL     1       3.582   3.115  16.747  0.00  0.00    +0.000 HD
BRANCH  18  21
ATOM     21  C   UNL     1       5.931   4.113  16.548  0.00  0.00    +0.000 A 
ATOM     22  C   UNL     1       5.715   3.334  15.390  0.00  0.00    +0.000 A 
ATOM     23  C   UNL     1       6.171   3.766  14.156  0.00  0.00    +0.000 A 
ATOM     24  C   UNL     1       6.821   4.977  14.113  0.00  0.00    +0.000 A 
ATOM     25  N   UNL     1       7.036   5.749  15.201  0.00  0.00    +0.000 NA
ATOM     26  C   UNL     1       6.608   5.345  16.432  0.00  0.00    +0.000 A 
BRANCH  26  27
ATOM     27  N   UNL     1       6.889   6.206  17.474  0.00  0.00    +0.000 N 
ATOM     28  C   UNL     1       6.689   7.648  17.325  0.00  0.00    +0.000 C 
ATOM     29  C   UNL     1       7.960   8.272  17.880  0.00  0.00    +0.000 C 
ATOM     30  C   UNL     1       8.406   7.292  18.950  0.00  0.00    +0.000 C 
ATOM     31  C   UNL     1       7.932   5.923  18.455  0.00  0.00    +0.000 C 
ENDBRANCH  26  27
ENDBRANCH  18  21
ENDBRANCH   1  19
TORSDOF 4
ENDMDL
MODEL 9
REMARK VINA RESULT:      -7.0      4.628      8.034
REMARK  Name = 
REMARK  4 active torsions:
REMARK  status: ('A' for Active; 'I' for Inactive)
REMARK    1  A    between atoms: C_2  and  C_19
REMARK    2  A    between atoms: N_3  and  C_4
REMARK    3  A    between atoms: C_7  and  C_8
REMARK    4  A    between atoms: C_24  and  N_25
REMARK                            x       y       z     vdW  Elec       q    Type
REMARK                         _______ _______ _______ _____ _____    ______ ____
ROOT
ATOM      1  C   UNL     1       9.581  13.447  19.632  0.00  0.00    +0.000 C 
ATOM      2  C   UNL     1      10.416  12.349  20.301  0.00  0.00    +0.000 C 
ATOM      3  C   UNL     1       9.868  10.951  20.018  0.00  0.00    +0.000 C 
ATOM      4  C   UNL     1       9.610  10.667  18.525  0.00  0.00    +0.000 C 
ATOM      5  C   UNL     1       8.941  11.842  17.786  0.00  0.00    +0.000 C 
ATOM      6  C   UNL     1       9.559  13.196  18.122  0.00  0.00    +0.000 C 
ENDROOT
BRANCH   4   7
ATOM      7  C   UNL     1       8.745   9.444  18.379  0.00  0.00    +0.000 A 
ATOM      8  N   UNL     1       7.753   9.297  17.521  0.00  0.00    +0.000 NA
ATOM      9  C   UNL     1       7.307   8.013  17.679  0.00  0.00    +0.000 A 
ATOM     10  C   UNL     1       6.276   7.335  17.010  0.00  0.00    +0.000 A 
ATOM     11  C   UNL     1       6.027   6.002  17.345  0.00  0.00    +0.000 A 
ATOM     12  C   UNL     1       6.785   5.353  18.323  0.00  0.00    +0.000 A 
ATOM     13  C   UNL     1       7.814   6.013  19.004  0.00  0.00    +0.000 A 
ATOM     14  C   UNL     1       8.042   7.349  18.655  0.00  0.00    +0.000 A 
ATOM     15  N   UNL     1       8.946   8.285  19.092  0.00  0.00    +0.000 N 
ATOM     16  H   UNL     1       9.657   8.140  19.792  0.00  0.00    +0.000 HD
ENDBRANCH   4   7
BRANCH   1  19
ATOM     17  O   UNL     1       8.381  15.705  20.850  0.00  0.00    +0.000 OA
ATOM     18  C   UNL     1       7.713  14.687  20.735  0.00  0.00    +0.000 C 
ATOM     19  N   UNL     1       8.231  13.516  20.192  0.00  0.00    +0.000 N 
ATOM     20  H   UNL     1       7.591  12.753  20.003  0.00  0.00    +0.000 HD
BRANCH  18  21
ATOM     21  C   UNL     1       6.305  14.605  21.218  0.00  0.00    +0.000 A 
ATOM     22  C   UNL     1       5.328  15.170  20.370  0.00  0.00    +0.000 A 
ATOM     23  C   UNL     1       3.981  15.052  20.673  0.00  0.00    +0.000 A 
ATOM     24  C   UNL     1       3.651  14.358  21.813  0.00  0.00    +0.000 A 
ATOM     25  N   UNL     1       4.561  13.799  22.639  0.00  0.00    +0.000 NA
ATOM     26  C   UNL     1       5.896  13.907  22.373  0.00  0.00    +0.000 A 
BRANCH  26  27
ATOM     27  N   UNL     1       6.738  13.308  23.289  0.00  0.00    +0.000 N 
ATOM     28  C   UNL     1       6.845  11.850  23.360  0.00  0.00    +0.000 C 
ATOM     29  C   UNL     1       6.754  11.530  24.844  0.00  0.00    +0.000 C 
ATOM     30  C   UNL     1       7.363  12.748  25.514  0.00  0.00    +0.000 C 
ATOM     31  C   UNL     1       7.041  13.917  24.579  0.00  0.00    +0.000 C 
ENDBRANCH  26  27
ENDBRANCH  18  21
ENDBRANCH   1  19
TORSDOF 4
ENDMDL
