MODEL 1
REMARK VINA RESULT:      -8.5      0.000      0.000
REMARK  Name = 
REMARK  5 active torsions:
REMARK  status: ('A' for Active; 'I' for Inactive)
REMARK    1  A    between atoms: C_1  and  C_2
REMARK    2  A    between atoms: C_4  and  C_5
REMARK    3  A    between atoms: C_9  and  N_10
REMARK    4  A    between atoms: C_11  and  C_13
REMARK    5  A    between atoms: C_25  and  C_26
REMARK                            x       y       z     vdW  Elec       q    Type
REMARK                         _______ _______ _______ _____ _____    ______ ____
ROOT
ATOM      1  N   UNL     1       2.071   8.322  18.231  0.00  0.00    +0.000 N 
ATOM      2  C   UNL     1       2.431   7.157  18.916  0.00  0.00    +0.000 C 
ATOM      3  O   UNL     1       2.021   6.811  20.019  0.00  0.00    +0.000 OA
ATOM      4  H   UNL     1       2.463   8.462  17.308  0.00  0.00    +0.000 HD
ENDROOT
BRANCH   2   5
ATOM      5  C   UNL     1       3.340   6.202  18.186  0.00  0.00    +0.000 A 
ATOM      6  C   UNL     1       4.530   6.746  17.674  0.00  0.00    +0.000 A 
ATOM      7  C   UNL     1       5.517   5.930  17.126  0.00  0.00    +0.000 A 
ATOM      8  C   UNL     1       5.370   4.551  17.199  0.00  0.00    +0.000 A 
ATOM      9  C   UNL     1       4.178   3.989  17.683  0.00  0.00    +0.000 A 
ATOM     10  C   UNL     1       4.013   2.608  17.775  0.00  0.00    +0.000 A 
ATOM     11  N   UNL     1       2.830   1.996  17.989  0.00  0.00    +0.000 NA
ATOM     12  C   UNL     1       1.758   2.798  18.115  0.00  0.00    +0.000 A 
ATOM     13  C   UNL     1       1.839   4.179  18.197  0.00  0.00    +0.000 A 
ATOM     14  C   UNL     1       3.093   4.812  18.053  0.00  0.00    +0.000 A 
ENDBRANCH   2   5
BRANCH   1  19
ATOM     15  C   UNL     1      -0.949  10.547  18.254  0.00  0.00    +0.000 A 
ATOM     16  C   UNL     1      -0.746  11.228  19.465  0.00  0.00    +0.000 A 
ATOM     17  C   UNL     1       0.367  10.970  20.259  0.00  0.00    +0.000 A 
ATOM     18  C   UNL     1       1.307  10.028  19.854  0.00  0.00    +0.000 A 
ATOM     19  C   UNL     1       1.145   9.318  18.654  0.00  0.00    +0.000 A 
ATOM     20  C   UNL     1       0.009   9.585  17.860  0.00  0.00    +0.000 A 
BRANCH  15  24
ATOM     21  C   UNL     1      -5.477  12.074  17.045  0.00  0.00    +0.000 C 
ATOM     22  C   UNL     1      -4.124  11.495  16.910  0.00  0.00    +0.000 A 
ATOM     23  N   UNL     1      -3.229  11.532  17.947  0.00  0.00    +0.000 NA
ATOM     24  C   UNL     1      -2.163  10.885  17.501  0.00  0.00    +0.000 A 
ATOM     25  O   UNL     1      -2.288  10.443  16.205  0.00  0.00    +0.000 OA
ATOM     26  C   UNL     1      -3.556  10.833  15.843  0.00  0.00    +0.000 A 
ATOM     27  C   UNL     1      -4.050  10.468  14.503  0.00  0.00    +0.000 C 
ENDBRANCH  15  24
ENDBRANCH   1  19
TORSDOF 3
ENDMDL
MODEL 2
REMARK VINA RESULT:      -8.4      3.263      8.786
REMARK  Name = 
REMARK  5 active torsions:
REMARK  status: ('A' for Active; 'I' for Inactive)
REMARK    1  A    between atoms: C_1  and  C_2
REMARK    2  A    between atoms: C_4  and  C_5
REMARK    3  A    between atoms: C_9  and  N_10
REMARK    4  A    between atoms: C_11  and  C_13
REMARK    5  A    between atoms: C_25  and  C_26
REMARK                            x       y       z     vdW  Elec       q    Type
REMARK                         _______ _______ _______ _____ _____    ______ ____
ROOT
ATOM      1  N   UNL     1       2.932   7.402  18.591  0.00  0.00    +0.000 N 
ATOM      2  C   UNL     1       2.018   7.549  19.640  0.00  0.00    +0.000 C 
ATOM      3  O   UNL     1       1.799   6.729  20.526  0.00  0.00    +0.000 OA
ATOM      4  H   UNL     1       3.035   8.179  17.949  0.00  0.00    +0.000 HD
ENDROOT
BRANCH   2   5
ATOM      5  C   UNL     1       1.306   8.874  19.731  0.00  0.00    +0.000 A 
ATOM      6  C   UNL     1       1.152   9.580  18.526  0.00  0.00    +0.000 A 
ATOM      7  C   UNL     1       0.371  10.733  18.463  0.00  0.00    +0.000 A 
ATOM      8  C   UNL     1      -0.359  11.116  19.580  0.00  0.00    +0.000 A 
ATOM      9  C   UNL     1      -0.198  10.439  20.799  0.00  0.00    +0.000 A 
ATOM     10  C   UNL     1      -0.929  10.800  21.930  0.00  0.00    +0.000 A 
ATOM     11  N   UNL     1      -0.656  10.372  23.180  0.00  0.00    +0.000 NA
ATOM     12  C   UNL     1       0.396   9.545  23.311  0.00  0.00    +0.000 A 
ATOM     13  C   UNL     1       1.086   9.005  22.237  0.00  0.00    +0.000 A 
ATOM     14  C   UNL     1       0.744   9.394  20.924  0.00  0.00    +0.000 A 
ENDBRANCH   2   5
BRANCH   1  19
ATOM     15  C   UNL     1       5.290   5.090  16.814  0.00  0.00    +0.000 A 
ATOM     16  C   UNL     1       5.579   4.186  17.848  0.00  0.00    +0.000 A 
ATOM     17  C   UNL     1       5.003   4.326  19.107  0.00  0.00    +0.000 A 
ATOM     18  C   UNL     1       4.119   5.370  19.356  0.00  0.00    +0.000 A 
ATOM     19  C   UNL     1       3.804   6.302  18.355  0.00  0.00    +0.000 A 
ATOM     20  C   UNL     1       4.398   6.153  17.083  0.00  0.00    +0.000 A 
BRANCH  15  24
ATOM     21  C   UNL     1       8.279   5.501  12.914  0.00  0.00    +0.000 C 
ATOM     22  C   UNL     1       7.201   4.998  13.792  0.00  0.00    +0.000 A 
ATOM     23  N   UNL     1       7.035   5.483  15.063  0.00  0.00    +0.000 NA
ATOM     24  C   UNL     1       5.962   4.861  15.528  0.00  0.00    +0.000 A 
ATOM     25  O   UNL     1       5.418   3.962  14.642  0.00  0.00    +0.000 OA
ATOM     26  C   UNL     1       6.218   4.069  13.528  0.00  0.00    +0.000 A 
ATOM     27  C   UNL     1       5.882   3.265  12.340  0.00  0.00    +0.000 C 
ENDBRANCH  15  24
ENDBRANCH   1  19
TORSDOF 3
ENDMDL
MODEL 3
REMARK VINA RESULT:      -8.4      1.825      2.854
REMARK  Name = 
REMARK  5 active torsions:
REMARK  status: ('A' for Active; 'I' for Inactive)
REMARK    1  A    between atoms: C_1  and  C_2
REMARK    2  A    between atoms: C_4  and  C_5
REMARK    3  A    between atoms: C_9  and  N_10
REMARK    4  A    between atoms: C_11  and  C_13
REMARK    5  A    between atoms: C_25  and  C_26
REMARK                            x       y       z     vdW  Elec       q    Type
REMARK                         _______ _______ _______ _____ _____    ______ ____
ROOT
ATOM      1  N   UNL     1       2.017   8.334  17.853  0.00  0.00    +0.000 N 
ATOM      2  C   UNL     1       2.342   7.366  18.809  0.00  0.00    +0.000 C 
ATOM      3  O   UNL     1       2.234   7.486  20.025  0.00  0.00    +0.000 OA
ATOM      4  H   UNL     1       2.124   8.083  16.878  0.00  0.00    +0.000 HD
ENDROOT
BRANCH   2   5
ATOM      5  C   UNL     1       2.783   6.023  18.283  0.00  0.00    +0.000 A 
ATOM      6  C   UNL     1       1.885   4.959  18.470  0.00  0.00    +0.000 A 
ATOM      7  C   UNL     1       2.113   3.715  17.885  0.00  0.00    +0.000 A 
ATOM      8  C   UNL     1       3.179   3.567  17.008  0.00  0.00    +0.000 A 
ATOM      9  C   UNL     1       4.101   4.610  16.829  0.00  0.00    +0.000 A 
ATOM     10  C   UNL     1       5.173   4.486  15.946  0.00  0.00    +0.000 A 
ATOM     11  N   UNL     1       6.225   5.330  15.904  0.00  0.00    +0.000 NA
ATOM     12  C   UNL     1       6.210   6.345  16.785  0.00  0.00    +0.000 A 
ATOM     13  C   UNL     1       5.124   6.646  17.592  0.00  0.00    +0.000 A 
ATOM     14  C   UNL     1       3.990   5.804  17.573  0.00  0.00    +0.000 A 
ENDBRANCH   2   5
BRANCH   1  19
ATOM     15  C   UNL     1      -0.506  11.046  18.439  0.00  0.00    +0.000 A 
ATOM     16  C   UNL     1       0.347  12.147  18.613  0.00  0.00    +0.000 A 
ATOM     17  C   UNL     1       1.730  12.005  18.530  0.00  0.00    +0.000 A 
ATOM     18  C   UNL     1       2.287  10.759  18.265  0.00  0.00    +0.000 A 
ATOM     19  C   UNL     1       1.474   9.629  18.089  0.00  0.00    +0.000 A 
ATOM     20  C   UNL     1       0.074   9.783  18.180  0.00  0.00    +0.000 A 
BRANCH  15  24
ATOM     21  C   UNL     1      -5.324  11.444  17.472  0.00  0.00    +0.000 C 
ATOM     22  C   UNL     1      -4.041  11.533  18.202  0.00  0.00    +0.000 A 
ATOM     23  N   UNL     1      -2.892  10.990  17.687  0.00  0.00    +0.000 NA
ATOM     24  C   UNL     1      -1.947  11.301  18.561  0.00  0.00    +0.000 A 
ATOM     25  O   UNL     1      -2.411  11.999  19.650  0.00  0.00    +0.000 OA
ATOM     26  C   UNL     1      -3.755  12.150  19.400  0.00  0.00    +0.000 A 
ATOM     27  C   UNL     1      -4.569  12.913  20.362  0.00  0.00    +0.000 C 
ENDBRANCH  15  24
ENDBRANCH   1  19
TORSDOF 3
ENDMDL
MODEL 4
REMARK VINA RESULT:      -8.4      3.044      4.257
REMARK  Name = 
REMARK  5 active torsions:
REMARK  status: ('A' for Active; 'I' for Inactive)
REMARK    1  A    between atoms: C_1  and  C_2
REMARK    2  A    between atoms: C_4  and  C_5
REMARK    3  A    between atoms: C_9  and  N_10
REMARK    4  A    between atoms: C_11  and  C_13
REMARK    5  A    between atoms: C_25  and  C_26
REMARK                            x       y       z     vdW  Elec       q    Type
REMARK                         _______ _______ _______ _____ _____    ______ ____
ROOT
ATOM      1  N   UNL     1       2.203   8.491  17.640  0.00  0.00    +0.000 N 
ATOM      2  C   UNL     1       2.603   7.426  18.453  0.00  0.00    +0.000 C 
ATOM      3  O   UNL     1       2.393   7.317  19.657  0.00  0.00    +0.000 OA
ATOM      4  H   UNL     1       2.414   8.430  16.652  0.00  0.00    +0.000 HD
ENDROOT
BRANCH   2   5
ATOM      5  C   UNL     1       3.276   6.268  17.761  0.00  0.00    +0.000 A 
ATOM      6  C   UNL     1       4.433   6.573  17.024  0.00  0.00    +0.000 A 
ATOM      7  C   UNL     1       5.225   5.564  16.480  0.00  0.00    +0.000 A 
ATOM      8  C   UNL     1       4.929   4.240  16.776  0.00  0.00    +0.000 A 
ATOM      9  C   UNL     1       3.764   3.915  17.489  0.00  0.00    +0.000 A 
ATOM     10  C   UNL     1       3.455   2.593  17.806  0.00  0.00    +0.000 A 
ATOM     11  N   UNL     1       2.253   2.182  18.260  0.00  0.00    +0.000 NA
ATOM     12  C   UNL     1       1.313   3.133  18.404  0.00  0.00    +0.000 A 
ATOM     13  C   UNL     1       1.566   4.489  18.268  0.00  0.00    +0.000 A 
ATOM     14  C   UNL     1       2.850   4.920  17.870  0.00  0.00    +0.000 A 
ENDBRANCH   2   5
BRANCH   1  19
ATOM     15  C   UNL     1       1.417  12.042  18.558  0.00  0.00    +0.000 A 
ATOM     16  C   UNL     1       0.028  11.951  18.738  0.00  0.00    +0.000 A 
ATOM     17  C   UNL     1      -0.641  10.742  18.570  0.00  0.00    +0.000 A 
ATOM     18  C   UNL     1       0.067   9.597  18.225  0.00  0.00    +0.000 A 
ATOM     19  C   UNL     1       1.456   9.639  18.030  0.00  0.00    +0.000 A 
ATOM     20  C   UNL     1       2.124  10.872  18.198  0.00  0.00    +0.000 A 
BRANCH  15  24
ATOM     21  C   UNL     1       2.082  16.831  19.525  0.00  0.00    +0.000 C 
ATOM     22  C   UNL     1       2.378  15.442  19.114  0.00  0.00    +0.000 A 
ATOM     23  N   UNL     1       1.449  14.444  19.259  0.00  0.00    +0.000 NA
ATOM     24  C   UNL     1       2.023  13.367  18.746  0.00  0.00    +0.000 A 
ATOM     25  O   UNL     1       3.301  13.586  18.291  0.00  0.00    +0.000 OA
ATOM     26  C   UNL     1       3.511  14.925  18.524  0.00  0.00    +0.000 A 
ATOM     27  C   UNL     1       4.790  15.521  18.101  0.00  0.00    +0.000 C 
ENDBRANCH  15  24
ENDBRANCH   1  19
TORSDOF 3
ENDMDL
MODEL 5
REMARK VINA RESULT:      -8.3      3.063      4.372
REMARK  Name = 
REMARK  5 active torsions:
REMARK  status: ('A' for Active; 'I' for Inactive)
REMARK    1  A    between atoms: C_1  and  C_2
REMARK    2  A    between atoms: C_4  and  C_5
REMARK    3  A    between atoms: C_9  and  N_10
REMARK    4  A    between atoms: C_11  and  C_13
REMARK    5  A    between atoms: C_25  and  C_26
REMARK                            x       y       z     vdW  Elec       q    Type
REMARK                         _______ _______ _______ _____ _____    ______ ____
ROOT
ATOM      1  N   UNL     1       2.302   8.599  17.650  0.00  0.00    +0.000 N 
ATOM      2  C   UNL     1       2.664   7.503  18.440  0.00  0.00    +0.000 C 
ATOM      3  O   UNL     1       2.428   7.365  19.636  0.00  0.00    +0.000 OA
ATOM      4  H   UNL     1       2.533   8.561  16.664  0.00  0.00    +0.000 HD
ENDROOT
BRANCH   2   5
ATOM      5  C   UNL     1       3.328   6.351  17.728  0.00  0.00    +0.000 A 
ATOM      6  C   UNL     1       4.494   6.657  17.006  0.00  0.00    +0.000 A 
ATOM      7  C   UNL     1       5.278   5.650  16.447  0.00  0.00    +0.000 A 
ATOM      8  C   UNL     1       4.964   4.323  16.713  0.00  0.00    +0.000 A 
ATOM      9  C   UNL     1       3.790   3.998  17.410  0.00  0.00    +0.000 A 
ATOM     10  C   UNL     1       3.461   2.674  17.697  0.00  0.00    +0.000 A 
ATOM     11  N   UNL     1       2.251   2.269  18.135  0.00  0.00    +0.000 NA
ATOM     12  C   UNL     1       1.322   3.228  18.292  0.00  0.00    +0.000 A 
ATOM     13  C   UNL     1       1.593   4.584  18.186  0.00  0.00    +0.000 A 
ATOM     14  C   UNL     1       2.885   5.007  17.806  0.00  0.00    +0.000 A 
ENDBRANCH   2   5
BRANCH   1  19
ATOM     15  C   UNL     1       1.517  12.180  18.439  0.00  0.00    +0.000 A 
ATOM     16  C   UNL     1       0.164  12.066  18.792  0.00  0.00    +0.000 A 
ATOM     17  C   UNL     1      -0.481  10.833  18.781  0.00  0.00    +0.000 A 
ATOM     18  C   UNL     1       0.217   9.685  18.423  0.00  0.00    +0.000 A 
ATOM     19  C   UNL     1       1.571   9.750  18.057  0.00  0.00    +0.000 A 
ATOM     20  C   UNL     1       2.213  11.007  18.067  0.00  0.00    +0.000 A 
BRANCH  15  24
ATOM     21  C   UNL     1       4.696  15.948  18.467  0.00  0.00    +0.000 C 
ATOM     22  C   UNL     1       3.417  15.209  18.522  0.00  0.00    +0.000 A 
ATOM     23  N   UNL     1       3.366  13.860  18.283  0.00  0.00    +0.000 NA
ATOM     24  C   UNL     1       2.097  13.529  18.470  0.00  0.00    +0.000 A 
ATOM     25  O   UNL     1       1.291  14.594  18.793  0.00  0.00    +0.000 OA
ATOM     26  C   UNL     1       2.154  15.663  18.833  0.00  0.00    +0.000 A 
ATOM     27  C   UNL     1       1.622  16.985  19.208  0.00  0.00    +0.000 C 
ENDBRANCH  15  24
ENDBRANCH   1  19
TORSDOF 3
ENDMDL
MODEL 6
REMARK VINA RESULT:      -8.3      1.385      2.470
REMARK  Name = 
REMARK  5 active torsions:
REMARK  status: ('A' for Active; 'I' for Inactive)
REMARK    1  A    between atoms: C_1  and  C_2
REMARK    2  A    between atoms: C_4  and  C_5
REMARK    3  A    between atoms: C_9  and  N_10
REMARK    4  A    between atoms: C_11  and  C_13
REMARK    5  A    between atoms: C_25  and  C_26
REMARK                            x       y       z     vdW  Elec       q    Type
REMARK                         _______ _______ _______ _____ _____    ______ ____
ROOT
ATOM      1  N   UNL     1       2.267   7.961  17.992  0.00  0.00    +0.000 N 
ATOM      2  C   UNL     1       2.654   6.852  18.751  0.00  0.00    +0.000 C 
ATOM      3  O   UNL     1       2.336   6.626  19.914  0.00  0.00    +0.000 OA
ATOM      4  H   UNL     1       2.577   7.999  17.028  0.00  0.00    +0.000 HD
ENDROOT
BRANCH   2   5
ATOM      5  C   UNL     1       3.465   5.799  18.039  0.00  0.00    +0.000 A 
ATOM      6  C   UNL     1       2.823   4.569  17.814  0.00  0.00    +0.000 A 
ATOM      7  C   UNL     1       3.415   3.583  17.026  0.00  0.00    +0.000 A 
ATOM      8  C   UNL     1       4.597   3.873  16.358  0.00  0.00    +0.000 A 
ATOM      9  C   UNL     1       5.266   5.085  16.590  0.00  0.00    +0.000 A 
ATOM     10  C   UNL     1       6.448   5.399  15.922  0.00  0.00    +0.000 A 
ATOM     11  N   UNL     1       7.269   6.413  16.267  0.00  0.00    +0.000 NA
ATOM     12  C   UNL     1       6.895   7.148  17.329  0.00  0.00    +0.000 A 
ATOM     13  C   UNL     1       5.668   7.017  17.960  0.00  0.00    +0.000 A 
ATOM     14  C   UNL     1       4.776   6.005  17.542  0.00  0.00    +0.000 A 
ENDBRANCH   2   5
BRANCH   1  19
ATOM     15  C   UNL     1      -0.650  10.317  18.039  0.00  0.00    +0.000 A 
ATOM     16  C   UNL     1      -0.340  11.074  19.179  0.00  0.00    +0.000 A 
ATOM     17  C   UNL     1       0.812  10.823  19.918  0.00  0.00    +0.000 A 
ATOM     18  C   UNL     1       1.684   9.813  19.526  0.00  0.00    +0.000 A 
ATOM     19  C   UNL     1       1.413   9.026  18.396  0.00  0.00    +0.000 A 
ATOM     20  C   UNL     1       0.239   9.286  17.658  0.00  0.00    +0.000 A 
BRANCH  15  24
ATOM     21  C   UNL     1      -5.210  11.893  17.023  0.00  0.00    +0.000 C 
ATOM     22  C   UNL     1      -3.876  11.284  16.835  0.00  0.00    +0.000 A 
ATOM     23  N   UNL     1      -2.926  11.336  17.822  0.00  0.00    +0.000 NA
ATOM     24  C   UNL     1      -1.898  10.654  17.340  0.00  0.00    +0.000 A 
ATOM     25  O   UNL     1      -2.100  10.174  16.069  0.00  0.00    +0.000 OA
ATOM     26  C   UNL     1      -3.379  10.577  15.762  0.00  0.00    +0.000 A 
ATOM     27  C   UNL     1      -3.950  10.180  14.463  0.00  0.00    +0.000 C 
ENDBRANCH  15  24
ENDBRANCH   1  19
TORSDOF 3
ENDMDL
MODEL 7
REMARK VINA RESULT:      -8.2      1.730      2.622
REMARK  Name = 
REMARK  5 active torsions:
REMARK  status: ('A' for Active; 'I' for Inactive)
REMARK    1  A    between atoms: C_1  and  C_2
REMARK    2  A    between atoms: C_4  and  C_5
REMARK    3  A    between atoms: C_9  and  N_10
REMARK    4  A    between atoms: C_11  and  C_13
REMARK    5  A    between atoms: C_25  and  C_26
REMARK                            x       y       z     vdW  Elec       q    Type
REMARK                         _______ _______ _______ _____ _____    ______ ____
ROOT
ATOM      1  N   UNL     1       1.946   8.326  17.869  0.00  0.00    +0.000 N 
ATOM      2  C   UNL     1       2.325   7.388  18.834  0.00  0.00    +0.000 C 
ATOM      3  O   UNL     1       2.344   7.567  20.047  0.00  0.00    +0.000 OA
ATOM      4  H   UNL     1       1.944   8.027  16.901  0.00  0.00    +0.000 HD
ENDROOT
BRANCH   2   5
ATOM      5  C   UNL     1       2.653   6.003  18.334  0.00  0.00    +0.000 A 
ATOM      6  C   UNL     1       1.650   5.032  18.492  0.00  0.00    +0.000 A 
ATOM      7  C   UNL     1       1.778   3.767  17.924  0.00  0.00    +0.000 A 
ATOM      8  C   UNL     1       2.858   3.508  17.090  0.00  0.00    +0.000 A 
ATOM      9  C   UNL     1       3.882   4.456  16.940  0.00  0.00    +0.000 A 
ATOM     10  C   UNL     1       4.969   4.220  16.100  0.00  0.00    +0.000 A 
ATOM     11  N   UNL     1       6.099   4.958  16.093  0.00  0.00    +0.000 NA
ATOM     12  C   UNL     1       6.149   5.979  16.966  0.00  0.00    +0.000 A 
ATOM     13  C   UNL     1       5.067   6.391  17.729  0.00  0.00    +0.000 A 
ATOM     14  C   UNL     1       3.859   5.662  17.672  0.00  0.00    +0.000 A 
ENDBRANCH   2   5
BRANCH   1  19
ATOM     15  C   UNL     1      -0.399  11.188  18.485  0.00  0.00    +0.000 A 
ATOM     16  C   UNL     1       0.520  12.243  18.597  0.00  0.00    +0.000 A 
ATOM     17  C   UNL     1       1.888  12.022  18.464  0.00  0.00    +0.000 A 
ATOM     18  C   UNL     1       2.365  10.742  18.208  0.00  0.00    +0.000 A 
ATOM     19  C   UNL     1       1.485   9.654  18.093  0.00  0.00    +0.000 A 
ATOM     20  C   UNL     1       0.100   9.889  18.235  0.00  0.00    +0.000 A 
BRANCH  15  24
ATOM     21  C   UNL     1      -4.685  12.734  20.367  0.00  0.00    +0.000 C 
ATOM     22  C   UNL     1      -3.716  12.144  19.420  0.00  0.00    +0.000 A 
ATOM     23  N   UNL     1      -2.368  12.185  19.664  0.00  0.00    +0.000 NA
ATOM     24  C   UNL     1      -1.818  11.525  18.656  0.00  0.00    +0.000 A 
ATOM     25  O   UNL     1      -2.728  11.071  17.732  0.00  0.00    +0.000 OA
ATOM     26  C   UNL     1      -3.943  11.466  18.242  0.00  0.00    +0.000 A 
ATOM     27  C   UNL     1      -5.168  11.090  17.513  0.00  0.00    +0.000 C 
ENDBRANCH  15  24
ENDBRANCH   1  19
TORSDOF 3
ENDMDL
MODEL 8
REMARK VINA RESULT:      -8.2      2.658      4.252
REMARK  Name = 
REMARK  5 active torsions:
REMARK  status: ('A' for Active; 'I' for Inactive)
REMARK    1  A    between atoms: C_1  and  C_2
REMARK    2  A    between atoms: C_4  and  C_5
REMARK    3  A    between atoms: C_9  and  N_10
REMARK    4  A    between atoms: C_11  and  C_13
REMARK    5  A    between atoms: C_25  and  C_26
REMARK                            x       y       z     vdW  Elec       q    Type
REMARK                         _______ _______ _______ _____ _____    ______ ____
ROOT
ATOM      1  N   UNL     1       2.039   8.529  17.695  0.00  0.00    +0.000 N 
ATOM      2  C   UNL     1       2.529   7.483  18.485  0.00  0.00    +0.000 C 
ATOM      3  O   UNL     1       2.348   7.342  19.690  0.00  0.00    +0.000 OA
ATOM      4  H   UNL     1       2.238   8.498  16.702  0.00  0.00    +0.000 HD
ENDROOT
BRANCH   2   5
ATOM      5  C   UNL     1       3.274   6.388  17.764  0.00  0.00    +0.000 A 
ATOM      6  C   UNL     1       4.426   6.779  17.061  0.00  0.00    +0.000 A 
ATOM      7  C   UNL     1       5.279   5.834  16.496  0.00  0.00    +0.000 A 
ATOM      8  C   UNL     1       5.048   4.486  16.738  0.00  0.00    +0.000 A 
ATOM      9  C   UNL     1       3.889   4.075  17.416  0.00  0.00    +0.000 A 
ATOM     10  C   UNL     1       3.643   2.728  17.679  0.00  0.00    +0.000 A 
ATOM     11  N   UNL     1       2.457   2.239  18.095  0.00  0.00    +0.000 NA
ATOM     12  C   UNL     1       1.466   3.134  18.255  0.00  0.00    +0.000 A 
ATOM     13  C   UNL     1       1.650   4.506  18.173  0.00  0.00    +0.000 A 
ATOM     14  C   UNL     1       2.917   5.017  17.816  0.00  0.00    +0.000 A 
ENDBRANCH   2   5
BRANCH   1  19
ATOM     15  C   UNL     1       1.044  11.868  19.083  0.00  0.00    +0.000 A 
ATOM     16  C   UNL     1      -0.346  11.807  18.903  0.00  0.00    +0.000 A 
ATOM     17  C   UNL     1      -0.952  10.686  18.344  0.00  0.00    +0.000 A 
ATOM     18  C   UNL     1      -0.178   9.597  17.959  0.00  0.00    +0.000 A 
ATOM     19  C   UNL     1       1.217   9.613  18.114  0.00  0.00    +0.000 A 
ATOM     20  C   UNL     1       1.820  10.758  18.677  0.00  0.00    +0.000 A 
BRANCH  15  24
ATOM     21  C   UNL     1       3.170  15.106  22.133  0.00  0.00    +0.000 C 
ATOM     22  C   UNL     1       2.459  14.567  20.954  0.00  0.00    +0.000 A 
ATOM     23  N   UNL     1       2.300  13.218  20.775  0.00  0.00    +0.000 NA
ATOM     24  C   UNL     1       1.582  13.102  19.668  0.00  0.00    +0.000 A 
ATOM     25  O   UNL     1       1.279  14.307  19.080  0.00  0.00    +0.000 OA
ATOM     26  C   UNL     1       1.839  15.238  19.922  0.00  0.00    +0.000 A 
ATOM     27  C   UNL     1       1.656  16.667  19.614  0.00  0.00    +0.000 C 
ENDBRANCH  15  24
ENDBRANCH   1  19
TORSDOF 3
ENDMDL
MODEL 9
REMARK VINA RESULT:      -8.2      1.511      1.892
REMARK  Name = 
REMARK  5 active torsions:
REMARK  status: ('A' for Active; 'I' for Inactive)
REMARK    1  A    between atoms: C_1  and  C_2
REMARK    2  A    between atoms: C_4  and  C_5
REMARK    3  A    between atoms: C_9  and  N_10
REMARK    4  A    between atoms: C_11  and  C_13
REMARK    5  A    between atoms: C_25  and  C_26
REMARK                            x       y       z     vdW  Elec       q    Type
REMARK                         _______ _______ _______ _____ _____    ______ ____
ROOT
ATOM      1  N   UNL     1       2.364   8.618  17.575  0.00  0.00    +0.000 N 
ATOM      2  C   UNL     1       2.675   7.528  18.394  0.00  0.00    +0.000 C 
ATOM      3  O   UNL     1       2.467   7.449  19.601  0.00  0.00    +0.000 OA
ATOM      4  H   UNL     1       2.561   8.530  16.585  0.00  0.00    +0.000 HD
ENDROOT
BRANCH   2   5
ATOM      5  C   UNL     1       3.237   6.309  17.708  0.00  0.00    +0.000 A 
ATOM      6  C   UNL     1       4.370   6.517  16.903  0.00  0.00    +0.000 A 
ATOM      7  C   UNL     1       5.068   5.444  16.353  0.00  0.00    +0.000 A 
ATOM      8  C   UNL     1       4.707   4.151  16.708  0.00  0.00    +0.000 A 
ATOM      9  C   UNL     1       3.563   3.923  17.489  0.00  0.00    +0.000 A 
ATOM     10  C   UNL     1       3.189   2.633  17.864  0.00  0.00    +0.000 A 
ATOM     11  N   UNL     1       1.989   2.314  18.393  0.00  0.00    +0.000 NA
ATOM     12  C   UNL     1       1.119   3.327  18.553  0.00  0.00    +0.000 A 
ATOM     13  C   UNL     1       1.449   4.659  18.359  0.00  0.00    +0.000 A 
ATOM     14  C   UNL     1       2.734   4.995  17.882  0.00  0.00    +0.000 A 
ENDBRANCH   2   5
BRANCH   1  19
ATOM     15  C   UNL     1      -0.358  11.054  18.424  0.00  0.00    +0.000 A 
ATOM     16  C   UNL     1       0.411  12.176  18.771  0.00  0.00    +0.000 A 
ATOM     17  C   UNL     1       1.802  12.139  18.719  0.00  0.00    +0.000 A 
ATOM     18  C   UNL     1       2.452  10.979  18.311  0.00  0.00    +0.000 A 
ATOM     19  C   UNL     1       1.726   9.831  17.960  0.00  0.00    +0.000 A 
ATOM     20  C   UNL     1       0.316   9.879  18.022  0.00  0.00    +0.000 A 
BRANCH  15  24
ATOM     21  C   UNL     1      -5.187  10.968  17.436  0.00  0.00    +0.000 C 
ATOM     22  C   UNL     1      -3.920  11.220  18.154  0.00  0.00    +0.000 A 
ATOM     23  N   UNL     1      -2.727  10.740  17.681  0.00  0.00    +0.000 NA
ATOM     24  C   UNL     1      -1.816  11.195  18.528  0.00  0.00    +0.000 A 
ATOM     25  O   UNL     1      -2.343  11.931  19.562  0.00  0.00    +0.000 OA
ATOM     26  C   UNL     1      -3.693  11.948  19.302  0.00  0.00    +0.000 A 
ATOM     27  C   UNL     1      -4.575  12.710  20.205  0.00  0.00    +0.000 C 
ENDBRANCH  15  24
ENDBRANCH   1  19
TORSDOF 3
ENDMDL
