MODEL 1
REMARK VINA RESULT:      -8.0      0.000      0.000
REMARK  Name = 
REMARK  3 active torsions:
REMARK  status: ('A' for Active; 'I' for Inactive)
REMARK    1  A    between atoms: C_1  and  N_2
REMARK    2  A    between atoms: C_9  and  N_10
REMARK    3  A    between atoms: C_11  and  C_13
REMARK                            x       y       z     vdW  Elec       q    Type
REMARK                         _______ _______ _______ _____ _____    ______ ____
ROOT
ATOM      1  N   UNL     1       0.727   8.613  20.873  0.00  0.00    +0.000 N 
ATOM      2  C   UNL     1       0.978   9.410  21.975  0.00  0.00    +0.000 C 
ATOM      3  O   UNL     1       1.920   9.278  22.747  0.00  0.00    +0.000 OA
ATOM      4  H   UNL     1      -0.008   8.920  20.253  0.00  0.00    +0.000 HD
ENDROOT
BRANCH   1  13
ATOM      5  C   UNL     1       4.882   4.357  18.203  0.00  0.00    +0.000 C 
ATOM      6  N   UNL     1       3.755   4.159  19.101  0.00  0.00    +0.000 N 
ATOM      7  C   UNL     1       3.487   2.866  19.548  0.00  0.00    +0.000 C 
ATOM      8  O   UNL     1       4.152   1.880  19.222  0.00  0.00    +0.000 OA
ATOM      9  C   UNL     1       2.239   2.689  20.382  0.00  0.00    +0.000 C 
ATOM     10  C   UNL     1       2.063   3.833  21.354  0.00  0.00    +0.000 C 
ATOM     11  C   UNL     1       2.110   5.138  20.614  0.00  0.00    +0.000 A 
ATOM     12  C   UNL     1       1.358   6.231  21.079  0.00  0.00    +0.000 A 
ATOM     13  C   UNL     1       1.445   7.474  20.456  0.00  0.00    +0.000 A 
ATOM     14  C   UNL     1       2.291   7.610  19.351  0.00  0.00    +0.000 A 
ATOM     15  C   UNL     1       3.067   6.532  18.903  0.00  0.00    +0.000 A 
ATOM     16  C   UNL     1       2.982   5.282  19.524  0.00  0.00    +0.000 A 
ENDBRANCH   1  13
BRANCH   2  17
ATOM     17  C   UNL     1       0.026  10.494  22.158  0.00  0.00    +0.000 A 
ATOM     18  C   UNL     1      -1.108  10.614  22.942  0.00  0.00    +0.000 A 
ATOM     19  C   UNL     1      -1.619  11.933  22.796  0.00  0.00    +0.000 A 
ATOM     20  C   UNL     1      -2.694  12.633  23.366  0.00  0.00    +0.000 A 
ATOM     21  F   UNL     1      -3.503  12.032  24.251  0.00  0.00    +0.000 F 
ATOM     22  C   UNL     1      -2.921  13.966  23.028  0.00  0.00    +0.000 A 
ATOM     23  C   UNL     1      -2.088  14.606  22.112  0.00  0.00    +0.000 A 
ATOM     24  C   UNL     1      -1.014  13.930  21.516  0.00  0.00    +0.000 A 
ATOM     25  C   UNL     1      -0.800  12.594  21.885  0.00  0.00    +0.000 A 
ATOM     26  N   UNL     1       0.172  11.700  21.499  0.00  0.00    +0.000 N 
ATOM     27  H   UNL     1       0.922  11.891  20.846  0.00  0.00    +0.000 HD
ENDBRANCH   2  17
TORSDOF 2
ENDMDL
MODEL 2
REMARK VINA RESULT:      -8.0      1.193      1.307
REMARK  Name = 
REMARK  3 active torsions:
REMARK  status: ('A' for Active; 'I' for Inactive)
REMARK    1  A    between atoms: C_1  and  N_2
REMARK    2  A    between atoms: C_9  and  N_10
REMARK    3  A    between atoms: C_11  and  C_13
REMARK                            x       y       z     vdW  Elec       q    Type
REMARK                         _______ _______ _______ _____ _____    ______ ____
ROOT
ATOM      1  N   UNL     1       1.275   8.657  20.568  0.00  0.00    +0.000 N 
ATOM      2  C   UNL     1       0.119   8.906  21.284  0.00  0.00    +0.000 C 
ATOM      3  O   UNL     1      -0.678   8.057  21.666  0.00  0.00    +0.000 OA
ATOM      4  H   UNL     1       1.901   9.437  20.439  0.00  0.00    +0.000 HD
ENDROOT
BRANCH   1  13
ATOM      5  C   UNL     1       4.189   3.770  17.384  0.00  0.00    +0.000 C 
ATOM      6  N   UNL     1       3.255   3.763  18.499  0.00  0.00    +0.000 N 
ATOM      7  C   UNL     1       2.916   2.536  19.068  0.00  0.00    +0.000 C 
ATOM      8  O   UNL     1       3.362   1.456  18.675  0.00  0.00    +0.000 OA
ATOM      9  C   UNL     1       1.854   2.565  20.142  0.00  0.00    +0.000 C 
ATOM     10  C   UNL     1       2.035   3.753  21.059  0.00  0.00    +0.000 C 
ATOM     11  C   UNL     1       2.101   5.014  20.248  0.00  0.00    +0.000 A 
ATOM     12  C   UNL     1       1.613   6.217  20.787  0.00  0.00    +0.000 A 
ATOM     13  C   UNL     1       1.735   7.414  20.086  0.00  0.00    +0.000 A 
ATOM     14  C   UNL     1       2.346   7.394  18.828  0.00  0.00    +0.000 A 
ATOM     15  C   UNL     1       2.863   6.202  18.299  0.00  0.00    +0.000 A 
ATOM     16  C   UNL     1       2.741   4.998  19.000  0.00  0.00    +0.000 A 
ENDBRANCH   1  13
BRANCH   2  17
ATOM     17  C   UNL     1      -0.096  10.309  21.603  0.00  0.00    +0.000 A 
ATOM     18  C   UNL     1      -0.992  10.945  22.444  0.00  0.00    +0.000 A 
ATOM     19  C   UNL     1      -0.705  12.338  22.437  0.00  0.00    +0.000 A 
ATOM     20  C   UNL     1      -1.235  13.449  23.113  0.00  0.00    +0.000 A 
ATOM     21  F   UNL     1      -2.248  13.296  23.978  0.00  0.00    +0.000 F 
ATOM     22  C   UNL     1      -0.700  14.719  22.903  0.00  0.00    +0.000 A 
ATOM     23  C   UNL     1       0.355  14.893  22.009  0.00  0.00    +0.000 A 
ATOM     24  C   UNL     1       0.897  13.805  21.309  0.00  0.00    +0.000 A 
ATOM     25  C   UNL     1       0.350  12.536  21.551  0.00  0.00    +0.000 A 
ATOM     26  N   UNL     1       0.686  11.302  21.045  0.00  0.00    +0.000 N 
ATOM     27  H   UNL     1       1.426  11.121  20.379  0.00  0.00    +0.000 HD
ENDBRANCH   2  17
TORSDOF 2
ENDMDL
MODEL 3
REMARK VINA RESULT:      -8.0      2.118      3.097
REMARK  Name = 
REMARK  3 active torsions:
REMARK  status: ('A' for Active; 'I' for Inactive)
REMARK    1  A    between atoms: C_1  and  N_2
REMARK    2  A    between atoms: C_9  and  N_10
REMARK    3  A    between atoms: C_11  and  C_13
REMARK                            x       y       z     vdW  Elec       q    Type
REMARK                         _______ _______ _______ _____ _____    ______ ____
ROOT
ATOM      1  N   UNL     1       1.784   8.420  19.653  0.00  0.00    +0.000 N 
ATOM      2  C   UNL     1       1.063   9.442  19.064  0.00  0.00    +0.000 C 
ATOM      3  O   UNL     1       0.864   9.571  17.862  0.00  0.00    +0.000 OA
ATOM      4  H   UNL     1       1.752   8.369  20.660  0.00  0.00    +0.000 HD
ENDROOT
BRANCH   1  13
ATOM      5  C   UNL     1       3.959   2.724  17.344  0.00  0.00    +0.000 C 
ATOM      6  N   UNL     1       4.424   4.085  17.127  0.00  0.00    +0.000 N 
ATOM      7  C   UNL     1       5.486   4.286  16.246  0.00  0.00    +0.000 C 
ATOM      8  O   UNL     1       6.054   3.373  15.642  0.00  0.00    +0.000 OA
ATOM      9  C   UNL     1       6.012   5.699  16.141  0.00  0.00    +0.000 C 
ATOM     10  C   UNL     1       4.885   6.705  16.146  0.00  0.00    +0.000 C 
ATOM     11  C   UNL     1       4.009   6.480  17.343  0.00  0.00    +0.000 A 
ATOM     12  C   UNL     1       3.357   7.570  17.945  0.00  0.00    +0.000 A 
ATOM     13  C   UNL     1       2.477   7.376  19.007  0.00  0.00    +0.000 A 
ATOM     14  C   UNL     1       2.261   6.074  19.469  0.00  0.00    +0.000 A 
ATOM     15  C   UNL     1       2.885   4.980  18.851  0.00  0.00    +0.000 A 
ATOM     16  C   UNL     1       3.770   5.170  17.785  0.00  0.00    +0.000 A 
ENDBRANCH   1  13
BRANCH   2  17
ATOM     17  C   UNL     1       0.495  10.394  20.007  0.00  0.00    +0.000 A 
ATOM     18  C   UNL     1      -0.407  10.248  21.046  0.00  0.00    +0.000 A 
ATOM     19  C   UNL     1      -0.550  11.504  21.697  0.00  0.00    +0.000 A 
ATOM     20  C   UNL     1      -1.273  11.949  22.816  0.00  0.00    +0.000 A 
ATOM     21  F   UNL     1      -2.049  11.098  23.503  0.00  0.00    +0.000 F 
ATOM     22  C   UNL     1      -1.177  13.276  23.231  0.00  0.00    +0.000 A 
ATOM     23  C   UNL     1      -0.373  14.171  22.528  0.00  0.00    +0.000 A 
ATOM     24  C   UNL     1       0.350  13.761  21.399  0.00  0.00    +0.000 A 
ATOM     25  C   UNL     1       0.248  12.416  21.013  0.00  0.00    +0.000 A 
ATOM     26  N   UNL     1       0.851  11.729  19.985  0.00  0.00    +0.000 N 
ATOM     27  H   UNL     1       1.499  12.122  19.314  0.00  0.00    +0.000 HD
ENDBRANCH   2  17
TORSDOF 2
ENDMDL
MODEL 4
REMARK VINA RESULT:      -7.9      3.789      9.464
REMARK  Name = 
REMARK  3 active torsions:
REMARK  status: ('A' for Active; 'I' for Inactive)
REMARK    1  A    between atoms: C_1  and  N_2
REMARK    2  A    between atoms: C_9  and  N_10
REMARK    3  A    between atoms: C_11  and  C_13
REMARK                            x       y       z     vdW  Elec       q    Type
REMARK                         _______ _______ _______ _____ _____    ______ ____
ROOT
ATOM      1  N   UNL     1       2.205   8.154  18.899  0.00  0.00    +0.000 N 
ATOM      2  C   UNL     1       2.482   6.879  19.357  0.00  0.00    +0.000 C 
ATOM      3  O   UNL     1       1.875   6.296  20.247  0.00  0.00    +0.000 OA
ATOM      4  H   UNL     1       2.701   8.453  18.072  0.00  0.00    +0.000 HD
ENDROOT
BRANCH   1  13
ATOM      5  C   UNL     1      -2.680  12.393  19.720  0.00  0.00    +0.000 C 
ATOM      6  N   UNL     1      -1.781  11.771  20.679  0.00  0.00    +0.000 N 
ATOM      7  C   UNL     1      -1.969  12.046  22.034  0.00  0.00    +0.000 C 
ATOM      8  O   UNL     1      -2.854  12.790  22.462  0.00  0.00    +0.000 OA
ATOM      9  C   UNL     1      -0.942  11.475  22.983  0.00  0.00    +0.000 C 
ATOM     10  C   UNL     1      -0.550  10.071  22.586  0.00  0.00    +0.000 C 
ATOM     11  C   UNL     1      -0.113  10.053  21.150  0.00  0.00    +0.000 A 
ATOM     12  C   UNL     1       0.870   9.140  20.731  0.00  0.00    +0.000 A 
ATOM     13  C   UNL     1       1.235   9.051  19.390  0.00  0.00    +0.000 A 
ATOM     14  C   UNL     1       0.608   9.896  18.468  0.00  0.00    +0.000 A 
ATOM     15  C   UNL     1      -0.396  10.786  18.876  0.00  0.00    +0.000 A 
ATOM     16  C   UNL     1      -0.764  10.880  20.222  0.00  0.00    +0.000 A 
ENDBRANCH   1  13
BRANCH   2  17
ATOM     17  C   UNL     1       3.577   6.219  18.662  0.00  0.00    +0.000 A 
ATOM     18  C   UNL     1       3.720   5.778  17.359  0.00  0.00    +0.000 A 
ATOM     19  C   UNL     1       5.040   5.274  17.197  0.00  0.00    +0.000 A 
ATOM     20  C   UNL     1       5.760   4.748  16.111  0.00  0.00    +0.000 A 
ATOM     21  F   UNL     1       5.182   4.634  14.907  0.00  0.00    +0.000 F 
ATOM     22  C   UNL     1       7.087   4.357  16.274  0.00  0.00    +0.000 A 
ATOM     23  C   UNL     1       7.702   4.472  17.519  0.00  0.00    +0.000 A 
ATOM     24  C   UNL     1       7.007   4.981  18.625  0.00  0.00    +0.000 A 
ATOM     25  C   UNL     1       5.677   5.382  18.430  0.00  0.00    +0.000 A 
ATOM     26  N   UNL     1       4.768   5.934  19.302  0.00  0.00    +0.000 N 
ATOM     27  H   UNL     1       4.941   6.145  20.277  0.00  0.00    +0.000 HD
ENDBRANCH   2  17
TORSDOF 2
ENDMDL
MODEL 5
REMARK VINA RESULT:      -7.9      1.202      1.575
REMARK  Name = 
REMARK  3 active torsions:
REMARK  status: ('A' for Active; 'I' for Inactive)
REMARK    1  A    between atoms: C_1  and  N_2
REMARK    2  A    between atoms: C_9  and  N_10
REMARK    3  A    between atoms: C_11  and  C_13
REMARK                            x       y       z     vdW  Elec       q    Type
REMARK                         _______ _______ _______ _____ _____    ______ ____
ROOT
ATOM      1  N   UNL     1       0.773   8.649  20.687  0.00  0.00    +0.000 N 
ATOM      2  C   UNL     1       0.951   9.458  21.794  0.00  0.00    +0.000 C 
ATOM      3  O   UNL     1       1.829   9.325  22.638  0.00  0.00    +0.000 OA
ATOM      4  H   UNL     1       0.093   8.958  20.009  0.00  0.00    +0.000 HD
ENDROOT
BRANCH   1  13
ATOM      5  C   UNL     1       5.001   4.288  18.318  0.00  0.00    +0.000 C 
ATOM      6  N   UNL     1       3.855   4.129  19.199  0.00  0.00    +0.000 N 
ATOM      7  C   UNL     1       3.580   2.857  19.701  0.00  0.00    +0.000 C 
ATOM      8  O   UNL     1       4.255   1.860  19.438  0.00  0.00    +0.000 OA
ATOM      9  C   UNL     1       2.314   2.715  20.514  0.00  0.00    +0.000 C 
ATOM     10  C   UNL     1       2.112   3.903  21.425  0.00  0.00    +0.000 C 
ATOM     11  C   UNL     1       2.172   5.172  20.625  0.00  0.00    +0.000 A 
ATOM     12  C   UNL     1       1.406   6.282  21.021  0.00  0.00    +0.000 A 
ATOM     13  C   UNL     1       1.504   7.494  20.342  0.00  0.00    +0.000 A 
ATOM     14  C   UNL     1       2.375   7.582  19.251  0.00  0.00    +0.000 A 
ATOM     15  C   UNL     1       3.164   6.486  18.872  0.00  0.00    +0.000 A 
ATOM     16  C   UNL     1       3.068   5.267  19.550  0.00  0.00    +0.000 A 
ENDBRANCH   1  13
BRANCH   2  17
ATOM     17  C   UNL     1       0.004  10.558  21.890  0.00  0.00    +0.000 A 
ATOM     18  C   UNL     1      -0.218  11.666  21.092  0.00  0.00    +0.000 A 
ATOM     19  C   UNL     1      -1.334  12.379  21.611  0.00  0.00    +0.000 A 
ATOM     20  C   UNL     1      -2.036  13.527  21.208  0.00  0.00    +0.000 A 
ATOM     21  F   UNL     1      -1.661  14.199  20.109  0.00  0.00    +0.000 F 
ATOM     22  C   UNL     1      -3.138  13.968  21.938  0.00  0.00    +0.000 A 
ATOM     23  C   UNL     1      -3.541  13.278  23.080  0.00  0.00    +0.000 A 
ATOM     24  C   UNL     1      -2.853  12.137  23.516  0.00  0.00    +0.000 A 
ATOM     25  C   UNL     1      -1.757  11.706  22.754  0.00  0.00    +0.000 A 
ATOM     26  N   UNL     1      -0.922  10.624  22.913  0.00  0.00    +0.000 N 
ATOM     27  H   UNL     1      -0.983   9.938  23.655  0.00  0.00    +0.000 HD
ENDBRANCH   2  17
TORSDOF 2
ENDMDL
MODEL 6
REMARK VINA RESULT:      -7.8      1.956      2.274
REMARK  Name = 
REMARK  3 active torsions:
REMARK  status: ('A' for Active; 'I' for Inactive)
REMARK    1  A    between atoms: C_1  and  N_2
REMARK    2  A    between atoms: C_9  and  N_10
REMARK    3  A    between atoms: C_11  and  C_13
REMARK                            x       y       z     vdW  Elec       q    Type
REMARK                         _______ _______ _______ _____ _____    ______ ____
ROOT
ATOM      1  N   UNL     1       1.478   8.590  20.436  0.00  0.00    +0.000 N 
ATOM      2  C   UNL     1       0.893   9.615  19.716  0.00  0.00    +0.000 C 
ATOM      3  O   UNL     1       0.603   9.573  18.527  0.00  0.00    +0.000 OA
ATOM      4  H   UNL     1       1.537   8.718  21.435  0.00  0.00    +0.000 HD
ENDROOT
BRANCH   1  13
ATOM      5  C   UNL     1       4.367   3.645  17.320  0.00  0.00    +0.000 C 
ATOM      6  N   UNL     1       3.360   3.657  18.370  0.00  0.00    +0.000 N 
ATOM      7  C   UNL     1       2.925   2.435  18.881  0.00  0.00    +0.000 C 
ATOM      8  O   UNL     1       3.345   1.344  18.490  0.00  0.00    +0.000 OA
ATOM      9  C   UNL     1       1.796   2.490  19.883  0.00  0.00    +0.000 C 
ATOM     10  C   UNL     1       1.970   3.645  20.842  0.00  0.00    +0.000 C 
ATOM     11  C   UNL     1       2.151   4.920  20.072  0.00  0.00    +0.000 A 
ATOM     12  C   UNL     1       1.685   6.132  20.610  0.00  0.00    +0.000 A 
ATOM     13  C   UNL     1       1.910   7.339  19.952  0.00  0.00    +0.000 A 
ATOM     14  C   UNL     1       2.603   7.319  18.737  0.00  0.00    +0.000 A 
ATOM     15  C   UNL     1       3.098   6.116  18.212  0.00  0.00    +0.000 A 
ATOM     16  C   UNL     1       2.873   4.903  18.869  0.00  0.00    +0.000 A 
ENDBRANCH   1  13
BRANCH   2  17
ATOM     17  C   UNL     1       0.597  10.804  20.501  0.00  0.00    +0.000 A 
ATOM     18  C   UNL     1       1.079  12.099  20.445  0.00  0.00    +0.000 A 
ATOM     19  C   UNL     1       0.378  12.882  21.404  0.00  0.00    +0.000 A 
ATOM     20  C   UNL     1       0.400  14.240  21.763  0.00  0.00    +0.000 A 
ATOM     21  F   UNL     1       1.235  15.090  21.146  0.00  0.00    +0.000 F 
ATOM     22  C   UNL     1      -0.457  14.718  22.752  0.00  0.00    +0.000 A 
ATOM     23  C   UNL     1      -1.331  13.847  23.400  0.00  0.00    +0.000 A 
ATOM     24  C   UNL     1      -1.368  12.484  23.073  0.00  0.00    +0.000 A 
ATOM     25  C   UNL     1      -0.506  12.032  22.062  0.00  0.00    +0.000 A 
ATOM     26  N   UNL     1      -0.341  10.781  21.516  0.00  0.00    +0.000 N 
ATOM     27  H   UNL     1      -0.852   9.949  21.784  0.00  0.00    +0.000 HD
ENDBRANCH   2  17
TORSDOF 2
ENDMDL
MODEL 7
REMARK VINA RESULT:      -7.8      1.163      1.410
REMARK  Name = 
REMARK  3 active torsions:
REMARK  status: ('A' for Active; 'I' for Inactive)
REMARK    1  A    between atoms: C_1  and  N_2
REMARK    2  A    between atoms: C_9  and  N_10
REMARK    3  A    between atoms: C_11  and  C_13
REMARK                            x       y       z     vdW  Elec       q    Type
REMARK                         _______ _______ _______ _____ _____    ______ ____
ROOT
ATOM      1  N   UNL     1       0.593   9.548  20.523  0.00  0.00    +0.000 N 
ATOM      2  C   UNL     1       0.720   9.991  21.827  0.00  0.00    +0.000 C 
ATOM      3  O   UNL     1       1.588   9.638  22.616  0.00  0.00    +0.000 OA
ATOM      4  H   UNL     1      -0.088  10.025  19.950  0.00  0.00    +0.000 HD
ENDROOT
BRANCH   1  13
ATOM      5  C   UNL     1       4.688   6.238  16.677  0.00  0.00    +0.000 C 
ATOM      6  N   UNL     1       3.836   5.799  17.771  0.00  0.00    +0.000 N 
ATOM      7  C   UNL     1       3.887   4.458  18.149  0.00  0.00    +0.000 C 
ATOM      8  O   UNL     1       4.614   3.624  17.606  0.00  0.00    +0.000 OA
ATOM      9  C   UNL     1       2.901   4.020  19.207  0.00  0.00    +0.000 C 
ATOM     10  C   UNL     1       2.762   5.065  20.291  0.00  0.00    +0.000 C 
ATOM     11  C   UNL     1       2.430   6.392  19.675  0.00  0.00    +0.000 A 
ATOM     12  C   UNL     1       1.633   7.309  20.382  0.00  0.00    +0.000 A 
ATOM     13  C   UNL     1       1.377   8.577  19.866  0.00  0.00    +0.000 A 
ATOM     14  C   UNL     1       1.923   8.918  18.625  0.00  0.00    +0.000 A 
ATOM     15  C   UNL     1       2.745   8.018  17.930  0.00  0.00    +0.000 A 
ATOM     16  C   UNL     1       3.003   6.744  18.444  0.00  0.00    +0.000 A 
ENDBRANCH   1  13
BRANCH   2  17
ATOM     17  C   UNL     1      -0.273  10.978  22.222  0.00  0.00    +0.000 A 
ATOM     18  C   UNL     1      -1.425  10.885  22.983  0.00  0.00    +0.000 A 
ATOM     19  C   UNL     1      -1.979  12.187  23.122  0.00  0.00    +0.000 A 
ATOM     20  C   UNL     1      -3.089  12.710  23.806  0.00  0.00    +0.000 A 
ATOM     21  F   UNL     1      -3.892  11.901  24.513  0.00  0.00    +0.000 F 
ATOM     22  C   UNL     1      -3.356  14.077  23.768  0.00  0.00    +0.000 A 
ATOM     23  C   UNL     1      -2.529  14.930  23.039  0.00  0.00    +0.000 A 
ATOM     24  C   UNL     1      -1.421  14.437  22.336  0.00  0.00    +0.000 A 
ATOM     25  C   UNL     1      -1.167  13.059  22.404  0.00  0.00    +0.000 A 
ATOM     26  N   UNL     1      -0.157  12.304  21.853  0.00  0.00    +0.000 N 
ATOM     27  H   UNL     1       0.598  12.659  21.280  0.00  0.00    +0.000 HD
ENDBRANCH   2  17
TORSDOF 2
ENDMDL
MODEL 8
REMARK VINA RESULT:      -7.8      3.819      9.590
REMARK  Name = 
REMARK  3 active torsions:
REMARK  status: ('A' for Active; 'I' for Inactive)
REMARK    1  A    between atoms: C_1  and  N_2
REMARK    2  A    between atoms: C_9  and  N_10
REMARK    3  A    between atoms: C_11  and  C_13
REMARK                            x       y       z     vdW  Elec       q    Type
REMARK                         _______ _______ _______ _____ _____    ______ ____
ROOT
ATOM      1  N   UNL     1       2.238   8.008  19.150  0.00  0.00    +0.000 N 
ATOM      2  C   UNL     1       2.474   6.693  19.507  0.00  0.00    +0.000 C 
ATOM      3  O   UNL     1       1.854   6.065  20.357  0.00  0.00    +0.000 OA
ATOM      4  H   UNL     1       2.737   8.351  18.343  0.00  0.00    +0.000 HD
ENDROOT
BRANCH   1  13
ATOM      5  C   UNL     1      -1.435  11.701  23.072  0.00  0.00    +0.000 C 
ATOM      6  N   UNL     1      -1.431  11.552  21.625  0.00  0.00    +0.000 N 
ATOM      7  C   UNL     1      -2.306  12.339  20.878  0.00  0.00    +0.000 C 
ATOM      8  O   UNL     1      -3.085  13.154  21.378  0.00  0.00    +0.000 OA
ATOM      9  C   UNL     1      -2.354  12.067  19.393  0.00  0.00    +0.000 C 
ATOM     10  C   UNL     1      -0.971  11.811  18.839  0.00  0.00    +0.000 C 
ATOM     11  C   UNL     1      -0.302  10.723  19.627  0.00  0.00    +0.000 A 
ATOM     12  C   UNL     1       0.611   9.863  18.992  0.00  0.00    +0.000 A 
ATOM     13  C   UNL     1       1.303   8.897  19.718  0.00  0.00    +0.000 A 
ATOM     14  C   UNL     1       1.063   8.793  21.092  0.00  0.00    +0.000 A 
ATOM     15  C   UNL     1       0.176   9.669  21.735  0.00  0.00    +0.000 A 
ATOM     16  C   UNL     1      -0.521  10.639  21.010  0.00  0.00    +0.000 A 
ENDBRANCH   1  13
BRANCH   2  17
ATOM     17  C   UNL     1       3.539   6.050  18.753  0.00  0.00    +0.000 A 
ATOM     18  C   UNL     1       3.579   5.501  17.484  0.00  0.00    +0.000 A 
ATOM     19  C   UNL     1       4.910   5.079  17.218  0.00  0.00    +0.000 A 
ATOM     20  C   UNL     1       5.552   4.507  16.106  0.00  0.00    +0.000 A 
ATOM     21  F   UNL     1       4.861   4.239  14.989  0.00  0.00    +0.000 F 
ATOM     22  C   UNL     1       6.916   4.228  16.151  0.00  0.00    +0.000 A 
ATOM     23  C   UNL     1       7.648   4.502  17.305  0.00  0.00    +0.000 A 
ATOM     24  C   UNL     1       7.034   5.061  18.435  0.00  0.00    +0.000 A 
ATOM     25  C   UNL     1       5.663   5.346  18.357  0.00  0.00    +0.000 A 
ATOM     26  N   UNL     1       4.810   5.912  19.276  0.00  0.00    +0.000 N 
ATOM     27  H   UNL     1       5.067   6.224  20.205  0.00  0.00    +0.000 HD
ENDBRANCH   2  17
TORSDOF 2
ENDMDL
MODEL 9
REMARK VINA RESULT:      -7.7      3.070      3.937
REMARK  Name = 
REMARK  3 active torsions:
REMARK  status: ('A' for Active; 'I' for Inactive)
REMARK    1  A    between atoms: C_1  and  N_2
REMARK    2  A    between atoms: C_9  and  N_10
REMARK    3  A    between atoms: C_11  and  C_13
REMARK                            x       y       z     vdW  Elec       q    Type
REMARK                         _______ _______ _______ _____ _____    ______ ____
ROOT
ATOM      1  N   UNL     1       2.033   8.964  19.198  0.00  0.00    +0.000 N 
ATOM      2  C   UNL     1       1.169   9.678  18.388  0.00  0.00    +0.000 C 
ATOM      3  O   UNL     1       0.356   9.191  17.612  0.00  0.00    +0.000 OA
ATOM      4  H   UNL     1       2.552   9.496  19.881  0.00  0.00    +0.000 HD
ENDROOT
BRANCH   1  13
ATOM      5  C   UNL     1       1.766   2.589  20.538  0.00  0.00    +0.000 C 
ATOM      6  N   UNL     1       2.545   3.329  19.558  0.00  0.00    +0.000 N 
ATOM      7  C   UNL     1       3.365   2.611  18.688  0.00  0.00    +0.000 C 
ATOM      8  O   UNL     1       3.466   1.382  18.706  0.00  0.00    +0.000 OA
ATOM      9  C   UNL     1       4.246   3.425  17.769  0.00  0.00    +0.000 C 
ATOM     10  C   UNL     1       3.508   4.628  17.228  0.00  0.00    +0.000 C 
ATOM     11  C   UNL     1       2.930   5.422  18.363  0.00  0.00    +0.000 A 
ATOM     12  C   UNL     1       2.804   6.817  18.245  0.00  0.00    +0.000 A 
ATOM     13  C   UNL     1       2.200   7.566  19.252  0.00  0.00    +0.000 A 
ATOM     14  C   UNL     1       1.728   6.901  20.389  0.00  0.00    +0.000 A 
ATOM     15  C   UNL     1       1.823   5.506  20.497  0.00  0.00    +0.000 A 
ATOM     16  C   UNL     1       2.430   4.751  19.489  0.00  0.00    +0.000 A 
ENDBRANCH   1  13
BRANCH   2  17
ATOM     17  C   UNL     1       1.263  11.122  18.539  0.00  0.00    +0.000 A 
ATOM     18  C   UNL     1       0.453  12.045  19.177  0.00  0.00    +0.000 A 
ATOM     19  C   UNL     1       1.067  13.324  19.081  0.00  0.00    +0.000 A 
ATOM     20  C   UNL     1       0.744  14.602  19.565  0.00  0.00    +0.000 A 
ATOM     21  F   UNL     1      -0.373  14.793  20.283  0.00  0.00    +0.000 F 
ATOM     22  C   UNL     1       1.591  15.681  19.317  0.00  0.00    +0.000 A 
ATOM     23  C   UNL     1       2.756  15.498  18.575  0.00  0.00    +0.000 A 
ATOM     24  C   UNL     1       3.100  14.237  18.067  0.00  0.00    +0.000 A 
ATOM     25  C   UNL     1       2.237  13.166  18.345  0.00  0.00    +0.000 A 
ATOM     26  N   UNL     1       2.323  11.834  18.011  0.00  0.00    +0.000 N 
ATOM     27  H   UNL     1       3.072  11.407  17.481  0.00  0.00    +0.000 HD
ENDBRANCH   2  17
TORSDOF 2
ENDMDL
