MODEL 1
REMARK VINA RESULT:      -8.5      0.000      0.000
REMARK  Name = 
REMARK  5 active torsions:
REMARK  status: ('A' for Active; 'I' for Inactive)
REMARK    1  A    between atoms: C_2  and  C_15
REMARK    2  A    between atoms: N_3  and  C_4
REMARK    3  A    between atoms: C_20  and  S_21
REMARK    4  A    between atoms: S_21  and  C_22
REMARK    5  A    between atoms: C_22  and  C_23
REMARK                            x       y       z     vdW  Elec       q    Type
REMARK                         _______ _______ _______ _____ _____    ______ ____
ROOT
ATOM      1  O   UNL     1       0.593   5.324  20.134  0.00  0.00    +0.000 OA
ATOM      2  C   UNL     1       1.804   5.536  20.077  0.00  0.00    +0.000 C 
ATOM      3  N   UNL     1       2.395   6.787  20.120  0.00  0.00    +0.000 N 
ATOM      4  H   UNL     1       3.407   6.831  20.181  0.00  0.00    +0.000 HD
ENDROOT
BRANCH   3   5
ATOM      5  C   UNL     1       1.695   8.014  20.223  0.00  0.00    +0.000 A 
ATOM      6  C   UNL     1       1.372   8.801  19.110  0.00  0.00    +0.000 A 
ATOM      7  C   UNL     1       0.590   9.950  19.235  0.00  0.00    +0.000 A 
ATOM      8  C   UNL     1       0.119  10.344  20.479  0.00  0.00    +0.000 A 
ATOM      9  N   UNL     1      -0.733  11.463  20.551  0.00  0.00    +0.000 NA
ATOM     10  C   UNL     1      -1.190  11.780  21.712  0.00  0.00    +0.000 A 
ATOM     11  N   UNL     1      -0.877  11.125  22.864  0.00  0.00    +0.000 N 
ATOM     12  C   UNL     1      -0.022  10.049  22.904  0.00  0.00    +0.000 A 
ATOM     13  O   UNL     1       0.292   9.503  23.957  0.00  0.00    +0.000 OA
ATOM     14  C   UNL     1       0.492   9.596  21.601  0.00  0.00    +0.000 A 
ATOM     15  C   UNL     1       1.287   8.446  21.487  0.00  0.00    +0.000 A 
ATOM     16  H   UNL     1      -1.247  11.435  23.751  0.00  0.00    +0.000 HD
ENDBRANCH   3   5
BRANCH   2  17
ATOM     17  C   UNL     1       2.680   4.333  20.060  0.00  0.00    +0.000 A 
ATOM     18  C   UNL     1       2.672   3.573  21.249  0.00  0.00    +0.000 A 
ATOM     19  C   UNL     1       3.419   2.409  21.360  0.00  0.00    +0.000 A 
ATOM     20  C   UNL     1       4.162   2.028  20.265  0.00  0.00    +0.000 A 
ATOM     21  N   UNL     1       4.195   2.724  19.109  0.00  0.00    +0.000 NA
ATOM     22  C   UNL     1       3.453   3.862  18.997  0.00  0.00    +0.000 A 
BRANCH  22  23
ATOM     23  S   UNL     1       3.594   4.663  17.396  0.00  0.00    +0.000 S 
BRANCH  23  24
ATOM     24  C   UNL     1       5.327   4.247  16.998  0.00  0.00    +0.000 C 
BRANCH  24  25
ATOM     25  C   UNL     1       6.352   5.258  17.466  0.00  0.00    +0.000 A 
ATOM     26  C   UNL     1       6.420   6.516  16.838  0.00  0.00    +0.000 A 
ATOM     27  C   UNL     1       7.266   7.514  17.324  0.00  0.00    +0.000 A 
ATOM     28  C   UNL     1       8.054   7.258  18.437  0.00  0.00    +0.000 A 
ATOM     29  F   UNL     1       8.849   8.222  18.918  0.00  0.00    +0.000 F 
ATOM     30  C   UNL     1       8.017   6.018  19.069  0.00  0.00    +0.000 A 
ATOM     31  C   UNL     1       7.166   5.020  18.587  0.00  0.00    +0.000 A 
ENDBRANCH  24  25
ENDBRANCH  23  24
ENDBRANCH  22  23
ENDBRANCH   2  17
TORSDOF 5
ENDMDL
MODEL 2
REMARK VINA RESULT:      -8.3      2.115      2.597
REMARK  Name = 
REMARK  5 active torsions:
REMARK  status: ('A' for Active; 'I' for Inactive)
REMARK    1  A    between atoms: C_2  and  C_15
REMARK    2  A    between atoms: N_3  and  C_4
REMARK    3  A    between atoms: C_20  and  S_21
REMARK    4  A    between atoms: S_21  and  C_22
REMARK    5  A    between atoms: C_22  and  C_23
REMARK                            x       y       z     vdW  Elec       q    Type
REMARK                         _______ _______ _______ _____ _____    ______ ____
ROOT
ATOM      1  O   UNL     1       1.926   6.269  17.848  0.00  0.00    +0.000 OA
ATOM      2  C   UNL     1       2.338   5.910  18.950  0.00  0.00    +0.000 C 
ATOM      3  N   UNL     1       2.269   6.665  20.108  0.00  0.00    +0.000 N 
ATOM      4  H   UNL     1       2.536   6.221  20.980  0.00  0.00    +0.000 HD
ENDROOT
BRANCH   3   5
ATOM      5  C   UNL     1       1.725   7.970  20.198  0.00  0.00    +0.000 A 
ATOM      6  C   UNL     1       1.645   8.837  19.100  0.00  0.00    +0.000 A 
ATOM      7  C   UNL     1       1.008  10.075  19.196  0.00  0.00    +0.000 A 
ATOM      8  C   UNL     1       0.443  10.479  20.398  0.00  0.00    +0.000 A 
ATOM      9  N   UNL     1      -0.260  11.698  20.432  0.00  0.00    +0.000 NA
ATOM     10  C   UNL     1      -0.811  12.027  21.547  0.00  0.00    +0.000 A 
ATOM     11  N   UNL     1      -0.728  11.292  22.690  0.00  0.00    +0.000 N 
ATOM     12  C   UNL     1      -0.031  10.110  22.770  0.00  0.00    +0.000 A 
ATOM     13  O   UNL     1       0.080   9.485  23.820  0.00  0.00    +0.000 OA
ATOM     14  C   UNL     1       0.577   9.644  21.512  0.00  0.00    +0.000 A 
ATOM     15  C   UNL     1       1.225   8.402  21.428  0.00  0.00    +0.000 A 
ATOM     16  H   UNL     1      -1.161  11.613  23.545  0.00  0.00    +0.000 HD
ENDBRANCH   3   5
BRANCH   2  17
ATOM     17  C   UNL     1       2.855   4.517  19.035  0.00  0.00    +0.000 A 
ATOM     18  C   UNL     1       1.873   3.509  18.937  0.00  0.00    +0.000 A 
ATOM     19  C   UNL     1       2.219   2.166  18.970  0.00  0.00    +0.000 A 
ATOM     20  C   UNL     1       3.554   1.861  19.100  0.00  0.00    +0.000 A 
ATOM     21  N   UNL     1       4.526   2.794  19.194  0.00  0.00    +0.000 NA
ATOM     22  C   UNL     1       4.187   4.113  19.152  0.00  0.00    +0.000 A 
BRANCH  22  23
ATOM     23  S   UNL     1       5.591   5.225  19.276  0.00  0.00    +0.000 S 
BRANCH  23  24
ATOM     24  C   UNL     1       5.390   6.145  17.712  0.00  0.00    +0.000 C 
BRANCH  24  25
ATOM     25  C   UNL     1       5.789   5.384  16.466  0.00  0.00    +0.000 A 
ATOM     26  C   UNL     1       4.818   4.638  15.771  0.00  0.00    +0.000 A 
ATOM     27  C   UNL     1       5.122   4.027  14.554  0.00  0.00    +0.000 A 
ATOM     28  C   UNL     1       6.399   4.155  14.025  0.00  0.00    +0.000 A 
ATOM     29  F   UNL     1       6.684   3.589  12.845  0.00  0.00    +0.000 F 
ATOM     30  C   UNL     1       7.381   4.875  14.698  0.00  0.00    +0.000 A 
ATOM     31  C   UNL     1       7.077   5.492  15.915  0.00  0.00    +0.000 A 
ENDBRANCH  24  25
ENDBRANCH  23  24
ENDBRANCH  22  23
ENDBRANCH   2  17
TORSDOF 5
ENDMDL
MODEL 3
REMARK VINA RESULT:      -8.1      1.896      2.369
REMARK  Name = 
REMARK  5 active torsions:
REMARK  status: ('A' for Active; 'I' for Inactive)
REMARK    1  A    between atoms: C_2  and  C_15
REMARK    2  A    between atoms: N_3  and  C_4
REMARK    3  A    between atoms: C_20  and  S_21
REMARK    4  A    between atoms: S_21  and  C_22
REMARK    5  A    between atoms: C_22  and  C_23
REMARK                            x       y       z     vdW  Elec       q    Type
REMARK                         _______ _______ _______ _____ _____    ______ ____
ROOT
ATOM      1  O   UNL     1       0.721   5.302  20.212  0.00  0.00    +0.000 OA
ATOM      2  C   UNL     1       1.928   5.543  20.209  0.00  0.00    +0.000 C 
ATOM      3  N   UNL     1       2.486   6.809  20.240  0.00  0.00    +0.000 N 
ATOM      4  H   UNL     1       3.492   6.881  20.351  0.00  0.00    +0.000 HD
ENDROOT
BRANCH   3   5
ATOM      5  C   UNL     1       1.752   8.021  20.267  0.00  0.00    +0.000 A 
ATOM      6  C   UNL     1       1.442   8.747  19.110  0.00  0.00    +0.000 A 
ATOM      7  C   UNL     1       0.628   9.880  19.159  0.00  0.00    +0.000 A 
ATOM      8  C   UNL     1       0.111  10.317  20.370  0.00  0.00    +0.000 A 
ATOM      9  N   UNL     1      -0.771  11.414  20.366  0.00  0.00    +0.000 NA
ATOM     10  C   UNL     1      -1.270  11.771  21.497  0.00  0.00    +0.000 A 
ATOM     11  N   UNL     1      -0.975  11.179  22.687  0.00  0.00    +0.000 N 
ATOM     12  C   UNL     1      -0.095  10.128  22.801  0.00  0.00    +0.000 A 
ATOM     13  O   UNL     1       0.202   9.639  23.886  0.00  0.00    +0.000 OA
ATOM     14  C   UNL     1       0.469   9.631  21.535  0.00  0.00    +0.000 A 
ATOM     15  C   UNL     1       1.296   8.498  21.497  0.00  0.00    +0.000 A 
ATOM     16  H   UNL     1      -1.379  11.518  23.548  0.00  0.00    +0.000 HD
ENDBRANCH   3   5
BRANCH   2  17
ATOM     17  C   UNL     1       2.832   4.362  20.277  0.00  0.00    +0.000 A 
ATOM     18  C   UNL     1       2.504   3.415  21.270  0.00  0.00    +0.000 A 
ATOM     19  C   UNL     1       3.244   2.252  21.424  0.00  0.00    +0.000 A 
ATOM     20  C   UNL     1       4.305   2.061  20.569  0.00  0.00    +0.000 A 
ATOM     21  N   UNL     1       4.651   2.940  19.603  0.00  0.00    +0.000 NA
ATOM     22  C   UNL     1       3.918   4.077  19.446  0.00  0.00    +0.000 A 
BRANCH  22  23
ATOM     23  S   UNL     1       4.497   5.134  18.114  0.00  0.00    +0.000 S 
BRANCH  23  24
ATOM     24  C   UNL     1       4.482   3.929  16.742  0.00  0.00    +0.000 C 
BRANCH  24  25
ATOM     25  C   UNL     1       5.508   4.181  15.658  0.00  0.00    +0.000 A 
ATOM     26  C   UNL     1       5.298   3.652  14.370  0.00  0.00    +0.000 A 
ATOM     27  C   UNL     1       6.158   3.967  13.318  0.00  0.00    +0.000 A 
ATOM     28  C   UNL     1       7.237   4.810  13.547  0.00  0.00    +0.000 A 
ATOM     29  F   UNL     1       8.049   5.132  12.532  0.00  0.00    +0.000 F 
ATOM     30  C   UNL     1       7.476   5.336  14.812  0.00  0.00    +0.000 A 
ATOM     31  C   UNL     1       6.612   5.025  15.867  0.00  0.00    +0.000 A 
ENDBRANCH  24  25
ENDBRANCH  23  24
ENDBRANCH  22  23
ENDBRANCH   2  17
TORSDOF 5
ENDMDL
MODEL 4
REMARK VINA RESULT:      -8.1      2.048      2.581
REMARK  Name = 
REMARK  5 active torsions:
REMARK  status: ('A' for Active; 'I' for Inactive)
REMARK    1  A    between atoms: C_2  and  C_15
REMARK    2  A    between atoms: N_3  and  C_4
REMARK    3  A    between atoms: C_20  and  S_21
REMARK    4  A    between atoms: S_21  and  C_22
REMARK    5  A    between atoms: C_22  and  C_23
REMARK                            x       y       z     vdW  Elec       q    Type
REMARK                         _______ _______ _______ _____ _____    ______ ____
ROOT
ATOM      1  O   UNL     1       0.799   5.359  19.918  0.00  0.00    +0.000 OA
ATOM      2  C   UNL     1       1.989   5.645  20.045  0.00  0.00    +0.000 C 
ATOM      3  N   UNL     1       2.482   6.923  20.245  0.00  0.00    +0.000 N 
ATOM      4  H   UNL     1       3.471   7.023  20.451  0.00  0.00    +0.000 HD
ENDROOT
BRANCH   3   5
ATOM      5  C   UNL     1       1.692   8.097  20.322  0.00  0.00    +0.000 A 
ATOM      6  C   UNL     1       1.298   8.823  19.191  0.00  0.00    +0.000 A 
ATOM      7  C   UNL     1       0.433   9.913  19.292  0.00  0.00    +0.000 A 
ATOM      8  C   UNL     1      -0.052  10.308  20.531  0.00  0.00    +0.000 A 
ATOM      9  N   UNL     1      -0.985  11.361  20.581  0.00  0.00    +0.000 NA
ATOM     10  C   UNL     1      -1.451  11.678  21.738  0.00  0.00    +0.000 A 
ATOM     11  N   UNL     1      -1.077  11.085  22.905  0.00  0.00    +0.000 N 
ATOM     12  C   UNL     1      -0.143  10.077  22.965  0.00  0.00    +0.000 A 
ATOM     13  O   UNL     1       0.224   9.589  24.029  0.00  0.00    +0.000 OA
ATOM     14  C   UNL     1       0.389   9.625  21.669  0.00  0.00    +0.000 A 
ATOM     15  C   UNL     1       1.268   8.535  21.578  0.00  0.00    +0.000 A 
ATOM     16  H   UNL     1      -1.459  11.392  23.788  0.00  0.00    +0.000 HD
ENDBRANCH   3   5
BRANCH   2  17
ATOM     17  C   UNL     1       2.939   4.500  20.079  0.00  0.00    +0.000 A 
ATOM     18  C   UNL     1       2.526   3.406  20.868  0.00  0.00    +0.000 A 
ATOM     19  C   UNL     1       3.300   2.259  20.965  0.00  0.00    +0.000 A 
ATOM     20  C   UNL     1       4.482   2.234  20.261  0.00  0.00    +0.000 A 
ATOM     21  N   UNL     1       4.913   3.257  19.492  0.00  0.00    +0.000 NA
ATOM     22  C   UNL     1       4.147   4.379  19.389  0.00  0.00    +0.000 A 
BRANCH  22  23
ATOM     23  S   UNL     1       4.851   5.640  18.322  0.00  0.00    +0.000 S 
BRANCH  23  24
ATOM     24  C   UNL     1       6.264   4.708  17.639  0.00  0.00    +0.000 C 
BRANCH  24  25
ATOM     25  C   UNL     1       6.278   4.580  16.131  0.00  0.00    +0.000 A 
ATOM     26  C   UNL     1       7.357   5.113  15.401  0.00  0.00    +0.000 A 
ATOM     27  C   UNL     1       7.463   4.905  14.025  0.00  0.00    +0.000 A 
ATOM     28  C   UNL     1       6.489   4.166  13.369  0.00  0.00    +0.000 A 
ATOM     29  F   UNL     1       6.602   3.945  12.053  0.00  0.00    +0.000 F 
ATOM     30  C   UNL     1       5.404   3.639  14.064  0.00  0.00    +0.000 A 
ATOM     31  C   UNL     1       5.299   3.843  15.443  0.00  0.00    +0.000 A 
ENDBRANCH  24  25
ENDBRANCH  23  24
ENDBRANCH  22  23
ENDBRANCH   2  17
TORSDOF 5
ENDMDL
MODEL 5
REMARK VINA RESULT:      -8.1      4.483      9.137
REMARK  Name = 
REMARK  5 active torsions:
REMARK  status: ('A' for Active; 'I' for Inactive)
REMARK    1  A    between atoms: C_2  and  C_15
REMARK    2  A    between atoms: N_3  and  C_4
REMARK    3  A    between atoms: C_20  and  S_21
REMARK    4  A    between atoms: S_21  and  C_22
REMARK    5  A    between atoms: C_22  and  C_23
REMARK                            x       y       z     vdW  Elec       q    Type
REMARK                         _______ _______ _______ _____ _____    ______ ____
ROOT
ATOM      1  O   UNL     1       2.450   8.740  18.025  0.00  0.00    +0.000 OA
ATOM      2  C   UNL     1       2.123   8.094  19.019  0.00  0.00    +0.000 C 
ATOM      3  N   UNL     1       2.503   6.788  19.279  0.00  0.00    +0.000 N 
ATOM      4  H   UNL     1       2.267   6.398  20.186  0.00  0.00    +0.000 HD
ENDROOT
BRANCH   3   5
ATOM      5  C   UNL     1       3.316   5.994  18.434  0.00  0.00    +0.000 A 
ATOM      6  C   UNL     1       2.915   4.742  17.951  0.00  0.00    +0.000 A 
ATOM      7  C   UNL     1       3.694   4.033  17.036  0.00  0.00    +0.000 A 
ATOM      8  C   UNL     1       4.898   4.557  16.588  0.00  0.00    +0.000 A 
ATOM      9  N   UNL     1       5.614   3.848  15.606  0.00  0.00    +0.000 NA
ATOM     10  C   UNL     1       6.706   4.378  15.177  0.00  0.00    +0.000 A 
ATOM     11  N   UNL     1       7.220   5.552  15.636  0.00  0.00    +0.000 N 
ATOM     12  C   UNL     1       6.618   6.297  16.623  0.00  0.00    +0.000 A 
ATOM     13  O   UNL     1       7.120   7.326  17.063  0.00  0.00    +0.000 OA
ATOM     14  C   UNL     1       5.332   5.777  17.117  0.00  0.00    +0.000 A 
ATOM     15  C   UNL     1       4.562   6.492  18.046  0.00  0.00    +0.000 A 
ATOM     16  H   UNL     1       8.096   5.908  15.280  0.00  0.00    +0.000 HD
ENDBRANCH   3   5
BRANCH   2  17
ATOM     17  C   UNL     1       1.340   8.829  20.050  0.00  0.00    +0.000 A 
ATOM     18  C   UNL     1       1.405   8.283  21.349  0.00  0.00    +0.000 A 
ATOM     19  C   UNL     1       0.748   8.884  22.413  0.00  0.00    +0.000 A 
ATOM     20  C   UNL     1       0.035  10.032  22.148  0.00  0.00    +0.000 A 
ATOM     21  N   UNL     1      -0.050  10.588  20.920  0.00  0.00    +0.000 NA
ATOM     22  C   UNL     1       0.604  10.003  19.878  0.00  0.00    +0.000 A 
BRANCH  22  23
ATOM     23  S   UNL     1       0.402  10.870  18.318  0.00  0.00    +0.000 S 
BRANCH  23  24
ATOM     24  C   UNL     1      -0.918   9.854  17.573  0.00  0.00    +0.000 C 
BRANCH  24  25
ATOM     25  C   UNL     1      -2.238  10.567  17.370  0.00  0.00    +0.000 A 
ATOM     26  C   UNL     1      -2.882  10.488  16.120  0.00  0.00    +0.000 A 
ATOM     27  C   UNL     1      -4.155  11.029  15.936  0.00  0.00    +0.000 A 
ATOM     28  C   UNL     1      -4.791  11.655  16.999  0.00  0.00    +0.000 A 
ATOM     29  F   UNL     1      -6.023  12.152  16.830  0.00  0.00    +0.000 F 
ATOM     30  C   UNL     1      -4.172  11.759  18.241  0.00  0.00    +0.000 A 
ATOM     31  C   UNL     1      -2.899  11.214  18.428  0.00  0.00    +0.000 A 
ENDBRANCH  24  25
ENDBRANCH  23  24
ENDBRANCH  22  23
ENDBRANCH   2  17
TORSDOF 5
ENDMDL
MODEL 6
REMARK VINA RESULT:      -8.1      4.591      9.500
REMARK  Name = 
REMARK  5 active torsions:
REMARK  status: ('A' for Active; 'I' for Inactive)
REMARK    1  A    between atoms: C_2  and  C_15
REMARK    2  A    between atoms: N_3  and  C_4
REMARK    3  A    between atoms: C_20  and  S_21
REMARK    4  A    between atoms: S_21  and  C_22
REMARK    5  A    between atoms: C_22  and  C_23
REMARK                            x       y       z     vdW  Elec       q    Type
REMARK                         _______ _______ _______ _____ _____    ______ ____
ROOT
ATOM      1  O   UNL     1       2.064   8.637  17.890  0.00  0.00    +0.000 OA
ATOM      2  C   UNL     1       1.914   8.069  18.971  0.00  0.00    +0.000 C 
ATOM      3  N   UNL     1       2.471   6.848  19.312  0.00  0.00    +0.000 N 
ATOM      4  H   UNL     1       2.371   6.533  20.271  0.00  0.00    +0.000 HD
ENDROOT
BRANCH   3   5
ATOM      5  C   UNL     1       3.289   6.062  18.463  0.00  0.00    +0.000 A 
ATOM      6  C   UNL     1       2.889   4.815  17.965  0.00  0.00    +0.000 A 
ATOM      7  C   UNL     1       3.673   4.114  17.047  0.00  0.00    +0.000 A 
ATOM      8  C   UNL     1       4.881   4.642  16.612  0.00  0.00    +0.000 A 
ATOM      9  N   UNL     1       5.602   3.942  15.626  0.00  0.00    +0.000 NA
ATOM     10  C   UNL     1       6.697   4.476  15.210  0.00  0.00    +0.000 A 
ATOM     11  N   UNL     1       7.208   5.646  15.683  0.00  0.00    +0.000 N 
ATOM     12  C   UNL     1       6.601   6.381  16.674  0.00  0.00    +0.000 A 
ATOM     13  O   UNL     1       7.101   7.405  17.128  0.00  0.00    +0.000 OA
ATOM     14  C   UNL     1       5.312   5.856  17.156  0.00  0.00    +0.000 A 
ATOM     15  C   UNL     1       4.536   6.563  18.088  0.00  0.00    +0.000 A 
ATOM     16  H   UNL     1       8.086   6.005  15.336  0.00  0.00    +0.000 HD
ENDBRANCH   3   5
BRANCH   2  17
ATOM     17  C   UNL     1       1.151   8.819  20.005  0.00  0.00    +0.000 A 
ATOM     18  C   UNL     1       1.513   8.532  21.338  0.00  0.00    +0.000 A 
ATOM     19  C   UNL     1       0.904   9.182  22.402  0.00  0.00    +0.000 A 
ATOM     20  C   UNL     1      -0.062  10.116  22.102  0.00  0.00    +0.000 A 
ATOM     21  N   UNL     1      -0.435  10.423  20.842  0.00  0.00    +0.000 NA
ATOM     22  C   UNL     1       0.170   9.791  19.797  0.00  0.00    +0.000 A 
BRANCH  22  23
ATOM     23  S   UNL     1      -0.428  10.318  18.188  0.00  0.00    +0.000 S 
BRANCH  23  24
ATOM     24  C   UNL     1      -1.413  11.771  18.689  0.00  0.00    +0.000 C 
BRANCH  24  25
ATOM     25  C   UNL     1      -2.889  11.688  18.365  0.00  0.00    +0.000 A 
ATOM     26  C   UNL     1      -3.831  12.138  19.310  0.00  0.00    +0.000 A 
ATOM     27  C   UNL     1      -5.190  12.190  18.996  0.00  0.00    +0.000 A 
ATOM     28  C   UNL     1      -5.616  11.790  17.737  0.00  0.00    +0.000 A 
ATOM     29  F   UNL     1      -6.917  11.863  17.427  0.00  0.00    +0.000 F 
ATOM     30  C   UNL     1      -4.707  11.329  16.789  0.00  0.00    +0.000 A 
ATOM     31  C   UNL     1      -3.345  11.280  17.100  0.00  0.00    +0.000 A 
ENDBRANCH  24  25
ENDBRANCH  23  24
ENDBRANCH  22  23
ENDBRANCH   2  17
TORSDOF 5
ENDMDL
MODEL 7
REMARK VINA RESULT:      -8.0      2.323      2.934
REMARK  Name = 
REMARK  5 active torsions:
REMARK  status: ('A' for Active; 'I' for Inactive)
REMARK    1  A    between atoms: C_2  and  C_15
REMARK    2  A    between atoms: N_3  and  C_4
REMARK    3  A    between atoms: C_20  and  S_21
REMARK    4  A    between atoms: S_21  and  C_22
REMARK    5  A    between atoms: C_22  and  C_23
REMARK                            x       y       z     vdW  Elec       q    Type
REMARK                         _______ _______ _______ _____ _____    ______ ____
ROOT
ATOM      1  O   UNL     1       3.372   7.559  17.907  0.00  0.00    +0.000 OA
ATOM      2  C   UNL     1       2.835   6.745  18.658  0.00  0.00    +0.000 C 
ATOM      3  N   UNL     1       1.899   7.058  19.629  0.00  0.00    +0.000 N 
ATOM      4  H   UNL     1       1.442   6.290  20.110  0.00  0.00    +0.000 HD
ENDROOT
BRANCH   3   5
ATOM      5  C   UNL     1       1.427   8.362  19.914  0.00  0.00    +0.000 A 
ATOM      6  C   UNL     1       1.357   9.373  18.947  0.00  0.00    +0.000 A 
ATOM      7  C   UNL     1       0.789  10.615  19.234  0.00  0.00    +0.000 A 
ATOM      8  C   UNL     1       0.283  10.877  20.499  0.00  0.00    +0.000 A 
ATOM      9  N   UNL     1      -0.355  12.112  20.724  0.00  0.00    +0.000 NA
ATOM     10  C   UNL     1      -0.853  12.312  21.894  0.00  0.00    +0.000 A 
ATOM     11  N   UNL     1      -0.773  11.424  22.923  0.00  0.00    +0.000 N 
ATOM     12  C   UNL     1      -0.135  10.210  22.816  0.00  0.00    +0.000 A 
ATOM     13  O   UNL     1      -0.024   9.444  23.767  0.00  0.00    +0.000 OA
ATOM     14  C   UNL     1       0.408   9.893  21.485  0.00  0.00    +0.000 A 
ATOM     15  C   UNL     1       0.988   8.645  21.209  0.00  0.00    +0.000 A 
ATOM     16  H   UNL     1      -1.161  11.645  23.829  0.00  0.00    +0.000 HD
ENDBRANCH   3   5
BRANCH   2  17
ATOM     17  C   UNL     1       3.163   5.314  18.416  0.00  0.00    +0.000 A 
ATOM     18  C   UNL     1       2.120   4.550  17.851  0.00  0.00    +0.000 A 
ATOM     19  C   UNL     1       2.298   3.210  17.544  0.00  0.00    +0.000 A 
ATOM     20  C   UNL     1       3.531   2.659  17.812  0.00  0.00    +0.000 A 
ATOM     21  N   UNL     1       4.556   3.354  18.348  0.00  0.00    +0.000 NA
ATOM     22  C   UNL     1       4.384   4.674  18.641  0.00  0.00    +0.000 A 
BRANCH  22  23
ATOM     23  S   UNL     1       5.842   5.458  19.335  0.00  0.00    +0.000 S 
BRANCH  23  24
ATOM     24  C   UNL     1       6.388   6.424  17.886  0.00  0.00    +0.000 C 
BRANCH  24  25
ATOM     25  C   UNL     1       6.282   5.703  16.559  0.00  0.00    +0.000 A 
ATOM     26  C   UNL     1       7.072   4.561  16.327  0.00  0.00    +0.000 A 
ATOM     27  C   UNL     1       6.911   3.803  15.167  0.00  0.00    +0.000 A 
ATOM     28  C   UNL     1       5.961   4.184  14.229  0.00  0.00    +0.000 A 
ATOM     29  F   UNL     1       5.788   3.443  13.127  0.00  0.00    +0.000 F 
ATOM     30  C   UNL     1       5.177   5.316  14.427  0.00  0.00    +0.000 A 
ATOM     31  C   UNL     1       5.334   6.074  15.591  0.00  0.00    +0.000 A 
ENDBRANCH  24  25
ENDBRANCH  23  24
ENDBRANCH  22  23
ENDBRANCH   2  17
TORSDOF 5
ENDMDL
MODEL 8
REMARK VINA RESULT:      -8.0      1.105      1.469
REMARK  Name = 
REMARK  5 active torsions:
REMARK  status: ('A' for Active; 'I' for Inactive)
REMARK    1  A    between atoms: C_2  and  C_15
REMARK    2  A    between atoms: N_3  and  C_4
REMARK    3  A    between atoms: C_20  and  S_21
REMARK    4  A    between atoms: S_21  and  C_22
REMARK    5  A    between atoms: C_22  and  C_23
REMARK                            x       y       z     vdW  Elec       q    Type
REMARK                         _______ _______ _______ _____ _____    ______ ____
ROOT
ATOM      1  O   UNL     1       2.573   6.586  18.439  0.00  0.00    +0.000 OA
ATOM      2  C   UNL     1       2.252   6.238  19.575  0.00  0.00    +0.000 C 
ATOM      3  N   UNL     1       1.658   7.057  20.520  0.00  0.00    +0.000 N 
ATOM      4  H   UNL     1       1.334   6.630  21.381  0.00  0.00    +0.000 HD
ENDROOT
BRANCH   3   5
ATOM      5  C   UNL     1       1.341   8.425  20.327  0.00  0.00    +0.000 A 
ATOM      6  C   UNL     1       1.547   9.088  19.110  0.00  0.00    +0.000 A 
ATOM      7  C   UNL     1       1.127  10.405  18.921  0.00  0.00    +0.000 A 
ATOM      8  C   UNL     1       0.497  11.093  19.948  0.00  0.00    +0.000 A 
ATOM      9  N   UNL     1       0.017  12.391  19.690  0.00  0.00    +0.000 NA
ATOM     10  C   UNL     1      -0.602  12.989  20.648  0.00  0.00    +0.000 A 
ATOM     11  N   UNL     1      -0.788  12.460  21.889  0.00  0.00    +0.000 N 
ATOM     12  C   UNL     1      -0.321  11.219  22.251  0.00  0.00    +0.000 A 
ATOM     13  O   UNL     1      -0.450  10.778  23.388  0.00  0.00    +0.000 OA
ATOM     14  C   UNL     1       0.347  10.455  21.184  0.00  0.00    +0.000 A 
ATOM     15  C   UNL     1       0.776   9.135  21.388  0.00  0.00    +0.000 A 
ATOM     16  H   UNL     1      -1.261  12.987  22.610  0.00  0.00    +0.000 HD
ENDBRANCH   3   5
BRANCH   2  17
ATOM     17  C   UNL     1       2.438   4.797  19.896  0.00  0.00    +0.000 A 
ATOM     18  C   UNL     1       2.220   4.453  21.247  0.00  0.00    +0.000 A 
ATOM     19  C   UNL     1       2.330   3.140  21.679  0.00  0.00    +0.000 A 
ATOM     20  C   UNL     1       2.656   2.190  20.738  0.00  0.00    +0.000 A 
ATOM     21  N   UNL     1       2.870   2.475  19.436  0.00  0.00    +0.000 NA
ATOM     22  C   UNL     1       2.753   3.764  19.009  0.00  0.00    +0.000 A 
BRANCH  22  23
ATOM     23  S   UNL     1       3.054   3.976  17.252  0.00  0.00    +0.000 S 
BRANCH  23  24
ATOM     24  C   UNL     1       4.852   3.663  17.211  0.00  0.00    +0.000 C 
BRANCH  24  25
ATOM     25  C   UNL     1       5.718   4.861  17.536  0.00  0.00    +0.000 A 
ATOM     26  C   UNL     1       6.788   4.717  18.441  0.00  0.00    +0.000 A 
ATOM     27  C   UNL     1       7.679   5.767  18.669  0.00  0.00    +0.000 A 
ATOM     28  C   UNL     1       7.505   6.968  17.996  0.00  0.00    +0.000 A 
ATOM     29  F   UNL     1       8.374   7.968  18.195  0.00  0.00    +0.000 F 
ATOM     30  C   UNL     1       6.449   7.142  17.106  0.00  0.00    +0.000 A 
ATOM     31  C   UNL     1       5.558   6.090  16.874  0.00  0.00    +0.000 A 
ENDBRANCH  24  25
ENDBRANCH  23  24
ENDBRANCH  22  23
ENDBRANCH   2  17
TORSDOF 5
ENDMDL
MODEL 9
REMARK VINA RESULT:      -8.0      2.116      2.603
REMARK  Name = 
REMARK  5 active torsions:
REMARK  status: ('A' for Active; 'I' for Inactive)
REMARK    1  A    between atoms: C_2  and  C_15
REMARK    2  A    between atoms: N_3  and  C_4
REMARK    3  A    between atoms: C_20  and  S_21
REMARK    4  A    between atoms: S_21  and  C_22
REMARK    5  A    between atoms: C_22  and  C_23
REMARK                            x       y       z     vdW  Elec       q    Type
REMARK                         _______ _______ _______ _____ _____    ______ ____
ROOT
ATOM      1  O   UNL     1       1.989   5.884  18.280  0.00  0.00    +0.000 OA
ATOM      2  C   UNL     1       2.271   5.898  19.477  0.00  0.00    +0.000 C 
ATOM      3  N   UNL     1       2.174   7.005  20.303  0.00  0.00    +0.000 N 
ATOM      4  H   UNL     1       2.324   6.868  21.298  0.00  0.00    +0.000 HD
ENDROOT
BRANCH   3   5
ATOM      5  C   UNL     1       1.747   8.292  19.893  0.00  0.00    +0.000 A 
ATOM      6  C   UNL     1       2.066   8.835  18.642  0.00  0.00    +0.000 A 
ATOM      7  C   UNL     1       1.543  10.060  18.226  0.00  0.00    +0.000 A 
ATOM      8  C   UNL     1       0.692  10.775  19.057  0.00  0.00    +0.000 A 
ATOM      9  N   UNL     1       0.122  11.966  18.569  0.00  0.00    +0.000 NA
ATOM     10  C   UNL     1      -0.696  12.586  19.345  0.00  0.00    +0.000 A 
ATOM     11  N   UNL     1      -1.015  12.181  20.605  0.00  0.00    +0.000 N 
ATOM     12  C   UNL     1      -0.479  11.056  21.187  0.00  0.00    +0.000 A 
ATOM     13  O   UNL     1      -0.734  10.733  22.342  0.00  0.00    +0.000 OA
ATOM     14  C   UNL     1       0.422  10.266  20.332  0.00  0.00    +0.000 A 
ATOM     15  C   UNL     1       0.953   9.041  20.763  0.00  0.00    +0.000 A 
ATOM     16  H   UNL     1      -1.646  12.723  21.178  0.00  0.00    +0.000 HD
ENDBRANCH   3   5
BRANCH   2  17
ATOM     17  C   UNL     1       2.648   4.590  20.078  0.00  0.00    +0.000 A 
ATOM     18  C   UNL     1       1.663   4.004  20.900  0.00  0.00    +0.000 A 
ATOM     19  C   UNL     1       1.870   2.770  21.499  0.00  0.00    +0.000 A 
ATOM     20  C   UNL     1       3.071   2.143  21.256  0.00  0.00    +0.000 A 
ATOM     21  N   UNL     1       4.039   2.667  20.474  0.00  0.00    +0.000 NA
ATOM     22  C   UNL     1       3.832   3.875  19.878  0.00  0.00    +0.000 A 
BRANCH  22  23
ATOM     23  S   UNL     1       5.206   4.426  18.862  0.00  0.00    +0.000 S 
BRANCH  23  24
ATOM     24  C   UNL     1       4.699   3.722  17.256  0.00  0.00    +0.000 C 
BRANCH  24  25
ATOM     25  C   UNL     1       5.616   4.047  16.097  0.00  0.00    +0.000 A 
ATOM     26  C   UNL     1       5.226   3.703  14.788  0.00  0.00    +0.000 A 
ATOM     27  C   UNL     1       5.987   4.097  13.687  0.00  0.00    +0.000 A 
ATOM     28  C   UNL     1       7.145   4.835  13.887  0.00  0.00    +0.000 A 
ATOM     29  F   UNL     1       7.864   5.234  12.829  0.00  0.00    +0.000 F 
ATOM     30  C   UNL     1       7.561   5.177  15.170  0.00  0.00    +0.000 A 
ATOM     31  C   UNL     1       6.797   4.787  16.273  0.00  0.00    +0.000 A 
ENDBRANCH  24  25
ENDBRANCH  23  24
ENDBRANCH  22  23
ENDBRANCH   2  17
TORSDOF 5
ENDMDL
