MODEL 1
REMARK VINA RESULT:      -8.0      0.000      0.000
REMARK  Name = 
REMARK  5 active torsions:
REMARK  status: ('A' for Active; 'I' for Inactive)
REMARK    1  A    between atoms: C_2  and  C_18
REMARK    2  A    between atoms: N_3  and  C_4
REMARK    3  A    between atoms: C_4  and  C_5
REMARK    4  A    between atoms: C_9  and  O_10
REMARK    5  A    between atoms: O_10  and  C_11
REMARK                            x       y       z     vdW  Elec       q    Type
REMARK                         _______ _______ _______ _____ _____    ______ ____
ROOT
ATOM      1  O   UNL     1      -0.385   7.696  21.458  0.00  0.00    +0.000 OA
ATOM      2  C   UNL     1       0.620   8.211  20.977  0.00  0.00    +0.000 C 
ATOM      3  N   UNL     1       1.747   7.489  20.678  0.00  0.00    +0.000 N 
ATOM      4  H   UNL     1       2.519   7.935  20.185  0.00  0.00    +0.000 HD
ENDROOT
BRANCH   2   5
ATOM      5  C   UNL     1       0.699   9.673  20.716  0.00  0.00    +0.000 A 
ATOM      6  C   UNL     1       0.372  10.513  21.716  0.00  0.00    +0.000 A 
ATOM      7  N   UNL     1       0.441  11.884  21.674  0.00  0.00    +0.000 NA
ATOM      8  C   UNL     1       0.856  12.376  20.557  0.00  0.00    +0.000 A 
ATOM      9  S   UNL     1       1.066  14.087  20.232  0.00  0.00    +0.000 S 
ATOM     10  C   UNL     1       1.601  13.741  18.610  0.00  0.00    +0.000 A 
ATOM     11  C   UNL     1       1.610  12.425  18.368  0.00  0.00    +0.000 A 
ATOM     12  N   UNL     1       1.206  11.655  19.437  0.00  0.00    +0.000 N 
ATOM     13  C   UNL     1       1.154  10.278  19.437  0.00  0.00    +0.000 A 
ATOM     14  O   UNL     1       1.459   9.575  18.474  0.00  0.00    +0.000 OA
ENDBRANCH   2   5
BRANCH   3  15
ATOM     15  C   UNL     1       1.804   6.073  20.933  0.00  0.00    +0.000 C 
BRANCH  15  16
ATOM     16  C   UNL     1       2.101   5.287  19.685  0.00  0.00    +0.000 A 
ATOM     17  C   UNL     1       1.354   4.140  19.388  0.00  0.00    +0.000 A 
ATOM     18  C   UNL     1       1.673   3.357  18.279  0.00  0.00    +0.000 A 
ATOM     19  C   UNL     1       2.724   3.726  17.443  0.00  0.00    +0.000 A 
ATOM     20  C   UNL     1       3.405   4.928  17.660  0.00  0.00    +0.000 A 
ATOM     21  C   UNL     1       3.116   5.687  18.800  0.00  0.00    +0.000 A 
BRANCH  20  22
ATOM     22  O   UNL     1       4.413   5.405  16.849  0.00  0.00    +0.000 OA
BRANCH  22  23
ATOM     23  C   UNL     1       5.613   5.799  17.403  0.00  0.00    +0.000 A 
ATOM     24  C   UNL     1       6.399   4.994  18.233  0.00  0.00    +0.000 A 
ATOM     25  C   UNL     1       7.578   5.496  18.788  0.00  0.00    +0.000 A 
ATOM     26  C   UNL     1       8.008   6.782  18.466  0.00  0.00    +0.000 A 
ATOM     27  C   UNL     1       7.265   7.562  17.580  0.00  0.00    +0.000 A 
ATOM     28  C   UNL     1       6.069   7.071  17.050  0.00  0.00    +0.000 A 
ENDBRANCH  22  23
ENDBRANCH  20  22
ENDBRANCH  15  16
ENDBRANCH   3  15
TORSDOF 5
ENDMDL
MODEL 2
REMARK VINA RESULT:      -7.8      4.205      6.077
REMARK  Name = 
REMARK  5 active torsions:
REMARK  status: ('A' for Active; 'I' for Inactive)
REMARK    1  A    between atoms: C_2  and  C_18
REMARK    2  A    between atoms: N_3  and  C_4
REMARK    3  A    between atoms: C_4  and  C_5
REMARK    4  A    between atoms: C_9  and  O_10
REMARK    5  A    between atoms: O_10  and  C_11
REMARK                            x       y       z     vdW  Elec       q    Type
REMARK                         _______ _______ _______ _____ _____    ______ ____
ROOT
ATOM      1  O   UNL     1      -1.691   9.727  16.959  0.00  0.00    +0.000 OA
ATOM      2  C   UNL     1      -1.836  10.729  17.652  0.00  0.00    +0.000 C 
ATOM      3  N   UNL     1      -0.794  11.323  18.316  0.00  0.00    +0.000 N 
ATOM      4  H   UNL     1      -0.937  12.211  18.795  0.00  0.00    +0.000 HD
ENDROOT
BRANCH   2   5
ATOM      5  C   UNL     1      -3.171  11.355  17.849  0.00  0.00    +0.000 A 
ATOM      6  C   UNL     1      -4.068  11.259  16.850  0.00  0.00    +0.000 A 
ATOM      7  N   UNL     1      -5.361  11.723  16.879  0.00  0.00    +0.000 NA
ATOM      8  C   UNL     1      -5.709  12.303  17.976  0.00  0.00    +0.000 A 
ATOM      9  S   UNL     1      -7.301  12.965  18.300  0.00  0.00    +0.000 S 
ATOM     10  C   UNL     1      -6.795  13.479  19.887  0.00  0.00    +0.000 A 
ATOM     11  C   UNL     1      -5.518  13.157  20.122  0.00  0.00    +0.000 A 
ATOM     12  N   UNL     1      -4.903  12.500  19.077  0.00  0.00    +0.000 N 
ATOM     13  C   UNL     1      -3.602  12.048  19.091  0.00  0.00    +0.000 A 
ATOM     14  O   UNL     1      -2.833  12.185  20.043  0.00  0.00    +0.000 OA
ENDBRANCH   2   5
BRANCH   3  15
ATOM     15  C   UNL     1       0.536  10.776  18.239  0.00  0.00    +0.000 C 
BRANCH  15  16
ATOM     16  C   UNL     1       0.795   9.767  19.324  0.00  0.00    +0.000 A 
ATOM     17  C   UNL     1       0.196   9.923  20.581  0.00  0.00    +0.000 A 
ATOM     18  C   UNL     1       0.493   9.041  21.619  0.00  0.00    +0.000 A 
ATOM     19  C   UNL     1       1.369   7.980  21.404  0.00  0.00    +0.000 A 
ATOM     20  C   UNL     1       1.885   7.742  20.127  0.00  0.00    +0.000 A 
ATOM     21  C   UNL     1       1.625   8.656  19.099  0.00  0.00    +0.000 A 
BRANCH  20  22
ATOM     22  O   UNL     1       2.707   6.682  19.807  0.00  0.00    +0.000 OA
BRANCH  22  23
ATOM     23  C   UNL     1       2.159   5.451  19.514  0.00  0.00    +0.000 A 
ATOM     24  C   UNL     1       2.060   4.921  18.224  0.00  0.00    +0.000 A 
ATOM     25  C   UNL     1       1.445   3.684  18.019  0.00  0.00    +0.000 A 
ATOM     26  C   UNL     1       0.982   2.946  19.106  0.00  0.00    +0.000 A 
ATOM     27  C   UNL     1       1.146   3.437  20.400  0.00  0.00    +0.000 A 
ATOM     28  C   UNL     1       1.733   4.689  20.604  0.00  0.00    +0.000 A 
ENDBRANCH  22  23
ENDBRANCH  20  22
ENDBRANCH  15  16
ENDBRANCH   3  15
TORSDOF 5
ENDMDL
MODEL 3
REMARK VINA RESULT:      -7.7      0.954      1.549
REMARK  Name = 
REMARK  5 active torsions:
REMARK  status: ('A' for Active; 'I' for Inactive)
REMARK    1  A    between atoms: C_2  and  C_18
REMARK    2  A    between atoms: N_3  and  C_4
REMARK    3  A    between atoms: C_4  and  C_5
REMARK    4  A    between atoms: C_9  and  O_10
REMARK    5  A    between atoms: O_10  and  C_11
REMARK                            x       y       z     vdW  Elec       q    Type
REMARK                         _______ _______ _______ _____ _____    ______ ____
ROOT
ATOM      1  O   UNL     1      -0.202   7.901  21.416  0.00  0.00    +0.000 OA
ATOM      2  C   UNL     1       0.770   8.355  20.819  0.00  0.00    +0.000 C 
ATOM      3  N   UNL     1       1.857   7.589  20.488  0.00  0.00    +0.000 N 
ATOM      4  H   UNL     1       2.594   7.979  19.903  0.00  0.00    +0.000 HD
ENDROOT
BRANCH   2   5
ATOM      5  C   UNL     1       0.850   9.792  20.441  0.00  0.00    +0.000 A 
ATOM      6  C   UNL     1       1.158  10.094  19.166  0.00  0.00    +0.000 A 
ATOM      7  N   UNL     1       1.220  11.357  18.628  0.00  0.00    +0.000 NA
ATOM      8  C   UNL     1       0.959  12.314  19.450  0.00  0.00    +0.000 A 
ATOM      9  S   UNL     1       0.938  14.018  19.031  0.00  0.00    +0.000 S 
ATOM     10  C   UNL     1       0.529  14.444  20.671  0.00  0.00    +0.000 A 
ATOM     11  C   UNL     1       0.422  13.359  21.447  0.00  0.00    +0.000 A 
ATOM     12  N   UNL     1       0.651  12.171  20.785  0.00  0.00    +0.000 N 
ATOM     13  C   UNL     1       0.576  10.923  21.365  0.00  0.00    +0.000 A 
ATOM     14  O   UNL     1       0.299  10.726  22.548  0.00  0.00    +0.000 OA
ENDBRANCH   2   5
BRANCH   3  15
ATOM     15  C   UNL     1       1.912   6.195  20.846  0.00  0.00    +0.000 C 
BRANCH  15  16
ATOM     16  C   UNL     1       2.143   5.314  19.649  0.00  0.00    +0.000 A 
ATOM     17  C   UNL     1       1.307   4.213  19.420  0.00  0.00    +0.000 A 
ATOM     18  C   UNL     1       1.560   3.342  18.362  0.00  0.00    +0.000 A 
ATOM     19  C   UNL     1       2.634   3.576  17.507  0.00  0.00    +0.000 A 
ATOM     20  C   UNL     1       3.408   4.732  17.651  0.00  0.00    +0.000 A 
ATOM     21  C   UNL     1       3.183   5.579  18.743  0.00  0.00    +0.000 A 
BRANCH  20  22
ATOM     22  O   UNL     1       4.449   5.078  16.815  0.00  0.00    +0.000 OA
BRANCH  22  23
ATOM     23  C   UNL     1       5.616   5.586  17.344  0.00  0.00    +0.000 A 
ATOM     24  C   UNL     1       6.472   4.874  18.191  0.00  0.00    +0.000 A 
ATOM     25  C   UNL     1       7.610   5.489  18.717  0.00  0.00    +0.000 A 
ATOM     26  C   UNL     1       7.931   6.794  18.350  0.00  0.00    +0.000 A 
ATOM     27  C   UNL     1       7.121   7.481  17.447  0.00  0.00    +0.000 A 
ATOM     28  C   UNL     1       5.965   6.878  16.945  0.00  0.00    +0.000 A 
ENDBRANCH  22  23
ENDBRANCH  20  22
ENDBRANCH  15  16
ENDBRANCH   3  15
TORSDOF 5
ENDMDL
MODEL 4
REMARK VINA RESULT:      -7.6      3.705      7.989
REMARK  Name = 
REMARK  5 active torsions:
REMARK  status: ('A' for Active; 'I' for Inactive)
REMARK    1  A    between atoms: C_2  and  C_18
REMARK    2  A    between atoms: N_3  and  C_4
REMARK    3  A    between atoms: C_4  and  C_5
REMARK    4  A    between atoms: C_9  and  O_10
REMARK    5  A    between atoms: O_10  and  C_11
REMARK                            x       y       z     vdW  Elec       q    Type
REMARK                         _______ _______ _______ _____ _____    ______ ____
ROOT
ATOM      1  O   UNL     1       1.312   4.872  20.807  0.00  0.00    +0.000 OA
ATOM      2  C   UNL     1       2.010   5.755  20.317  0.00  0.00    +0.000 C 
ATOM      3  N   UNL     1       1.871   7.076  20.652  0.00  0.00    +0.000 N 
ATOM      4  H   UNL     1       2.538   7.762  20.302  0.00  0.00    +0.000 HD
ENDROOT
BRANCH   2   5
ATOM      5  C   UNL     1       3.042   5.452  19.288  0.00  0.00    +0.000 A 
ATOM      6  C   UNL     1       3.626   4.240  19.317  0.00  0.00    +0.000 A 
ATOM      7  N   UNL     1       4.551   3.769  18.416  0.00  0.00    +0.000 NA
ATOM      8  C   UNL     1       4.868   4.593  17.477  0.00  0.00    +0.000 A 
ATOM      9  S   UNL     1       6.000   4.249  16.182  0.00  0.00    +0.000 S 
ATOM     10  C   UNL     1       5.762   5.842  15.515  0.00  0.00    +0.000 A 
ATOM     11  C   UNL     1       4.888   6.550  16.238  0.00  0.00    +0.000 A 
ATOM     12  N   UNL     1       4.379   5.872  17.325  0.00  0.00    +0.000 N 
ATOM     13  C   UNL     1       3.447   6.383  18.203  0.00  0.00    +0.000 A 
ATOM     14  O   UNL     1       2.966   7.512  18.119  0.00  0.00    +0.000 OA
ENDBRANCH   2   5
BRANCH   3  15
ATOM     15  C   UNL     1       0.871   7.495  21.601  0.00  0.00    +0.000 C 
BRANCH  15  16
ATOM     16  C   UNL     1       0.413   8.906  21.352  0.00  0.00    +0.000 A 
ATOM     17  C   UNL     1       0.201   9.772  22.433  0.00  0.00    +0.000 A 
ATOM     18  C   UNL     1      -0.302  11.055  22.221  0.00  0.00    +0.000 A 
ATOM     19  C   UNL     1      -0.574  11.494  20.927  0.00  0.00    +0.000 A 
ATOM     20  C   UNL     1      -0.260  10.684  19.831  0.00  0.00    +0.000 A 
ATOM     21  C   UNL     1       0.199   9.380  20.047  0.00  0.00    +0.000 A 
BRANCH  20  22
ATOM     22  O   UNL     1      -0.434  11.060  18.515  0.00  0.00    +0.000 OA
BRANCH  22  23
ATOM     23  C   UNL     1      -1.677  10.952  17.928  0.00  0.00    +0.000 A 
ATOM     24  C   UNL     1      -2.784  11.730  18.279  0.00  0.00    +0.000 A 
ATOM     25  C   UNL     1      -4.017  11.517  17.661  0.00  0.00    +0.000 A 
ATOM     26  C   UNL     1      -4.134  10.568  16.647  0.00  0.00    +0.000 A 
ATOM     27  C   UNL     1      -3.016   9.841  16.242  0.00  0.00    +0.000 A 
ATOM     28  C   UNL     1      -1.788  10.032  16.882  0.00  0.00    +0.000 A 
ENDBRANCH  22  23
ENDBRANCH  20  22
ENDBRANCH  15  16
ENDBRANCH   3  15
TORSDOF 5
ENDMDL
MODEL 5
REMARK VINA RESULT:      -7.6      3.791      5.564
REMARK  Name = 
REMARK  5 active torsions:
REMARK  status: ('A' for Active; 'I' for Inactive)
REMARK    1  A    between atoms: C_2  and  C_18
REMARK    2  A    between atoms: N_3  and  C_4
REMARK    3  A    between atoms: C_4  and  C_5
REMARK    4  A    between atoms: C_9  and  O_10
REMARK    5  A    between atoms: O_10  and  C_11
REMARK                            x       y       z     vdW  Elec       q    Type
REMARK                         _______ _______ _______ _____ _____    ______ ____
ROOT
ATOM      1  O   UNL     1      -0.378  12.368  23.118  0.00  0.00    +0.000 OA
ATOM      2  C   UNL     1      -1.160  11.722  22.427  0.00  0.00    +0.000 C 
ATOM      3  N   UNL     1      -0.785  10.588  21.753  0.00  0.00    +0.000 N 
ATOM      4  H   UNL     1      -1.488  10.025  21.276  0.00  0.00    +0.000 HD
ENDROOT
BRANCH   2   5
ATOM      5  C   UNL     1      -2.573  12.149  22.241  0.00  0.00    +0.000 A 
ATOM      6  C   UNL     1      -3.344  12.274  23.337  0.00  0.00    +0.000 A 
ATOM      7  N   UNL     1      -4.647  12.710  23.361  0.00  0.00    +0.000 NA
ATOM      8  C   UNL     1      -5.144  13.012  22.211  0.00  0.00    +0.000 A 
ATOM      9  S   UNL     1      -6.768  13.619  21.948  0.00  0.00    +0.000 S 
ATOM     10  C   UNL     1      -6.490  13.699  20.229  0.00  0.00    +0.000 A 
ATOM     11  C   UNL     1      -5.254  13.295  19.914  0.00  0.00    +0.000 A 
ATOM     12  N   UNL     1      -4.493  12.916  21.000  0.00  0.00    +0.000 N 
ATOM     13  C   UNL     1      -3.186  12.487  20.930  0.00  0.00    +0.000 A 
ATOM     14  O   UNL     1      -2.546  12.386  19.883  0.00  0.00    +0.000 OA
ENDBRANCH   2   5
BRANCH   3  15
ATOM     15  C   UNL     1       0.571  10.106  21.819  0.00  0.00    +0.000 C 
BRANCH  15  16
ATOM     16  C   UNL     1       1.017   9.501  20.515  0.00  0.00    +0.000 A 
ATOM     17  C   UNL     1       0.700  10.134  19.307  0.00  0.00    +0.000 A 
ATOM     18  C   UNL     1       1.035   9.541  18.090  0.00  0.00    +0.000 A 
ATOM     19  C   UNL     1       1.713   8.324  18.070  0.00  0.00    +0.000 A 
ATOM     20  C   UNL     1       2.139   7.737  19.265  0.00  0.00    +0.000 A 
ATOM     21  C   UNL     1       1.759   8.308  20.486  0.00  0.00    +0.000 A 
BRANCH  20  22
ATOM     22  O   UNL     1       2.869   6.570  19.339  0.00  0.00    +0.000 OA
BRANCH  22  23
ATOM     23  C   UNL     1       2.226   5.352  19.295  0.00  0.00    +0.000 A 
ATOM     24  C   UNL     1       1.475   4.819  20.347  0.00  0.00    +0.000 A 
ATOM     25  C   UNL     1       0.898   3.553  20.228  0.00  0.00    +0.000 A 
ATOM     26  C   UNL     1       1.016   2.842  19.036  0.00  0.00    +0.000 A 
ATOM     27  C   UNL     1       1.700   3.401  17.958  0.00  0.00    +0.000 A 
ATOM     28  C   UNL     1       2.305   4.654  18.087  0.00  0.00    +0.000 A 
ENDBRANCH  22  23
ENDBRANCH  20  22
ENDBRANCH  15  16
ENDBRANCH   3  15
TORSDOF 5
ENDMDL
MODEL 6
REMARK VINA RESULT:      -7.5      4.398      7.644
REMARK  Name = 
REMARK  5 active torsions:
REMARK  status: ('A' for Active; 'I' for Inactive)
REMARK    1  A    between atoms: C_2  and  C_18
REMARK    2  A    between atoms: N_3  and  C_4
REMARK    3  A    between atoms: C_4  and  C_5
REMARK    4  A    between atoms: C_9  and  O_10
REMARK    5  A    between atoms: O_10  and  C_11
REMARK                            x       y       z     vdW  Elec       q    Type
REMARK                         _______ _______ _______ _____ _____    ______ ____
ROOT
ATOM      1  O   UNL     1       5.896   5.329  19.022  0.00  0.00    +0.000 OA
ATOM      2  C   UNL     1       5.704   4.462  18.176  0.00  0.00    +0.000 C 
ATOM      3  N   UNL     1       5.091   3.271  18.467  0.00  0.00    +0.000 N 
ATOM      4  H   UNL     1       4.857   2.623  17.716  0.00  0.00    +0.000 HD
ENDROOT
BRANCH   2   5
ATOM      5  C   UNL     1       6.159   4.629  16.769  0.00  0.00    +0.000 A 
ATOM      6  C   UNL     1       7.146   5.511  16.525  0.00  0.00    +0.000 A 
ATOM      7  N   UNL     1       7.729   5.752  15.304  0.00  0.00    +0.000 NA
ATOM      8  C   UNL     1       7.258   5.057  14.327  0.00  0.00    +0.000 A 
ATOM      9  S   UNL     1       7.829   5.140  12.670  0.00  0.00    +0.000 S 
ATOM     10  C   UNL     1       6.661   3.943  12.179  0.00  0.00    +0.000 A 
ATOM     11  C   UNL     1       5.916   3.533  13.211  0.00  0.00    +0.000 A 
ATOM     12  N   UNL     1       6.237   4.135  14.409  0.00  0.00    +0.000 N 
ATOM     13  C   UNL     1       5.627   3.860  15.614  0.00  0.00    +0.000 A 
ATOM     14  O   UNL     1       4.716   3.045  15.757  0.00  0.00    +0.000 OA
ENDBRANCH   2   5
BRANCH   3  15
ATOM     15  C   UNL     1       4.651   2.976  19.806  0.00  0.00    +0.000 C 
BRANCH  15  16
ATOM     16  C   UNL     1       3.269   3.509  20.076  0.00  0.00    +0.000 A 
ATOM     17  C   UNL     1       2.167   2.646  20.028  0.00  0.00    +0.000 A 
ATOM     18  C   UNL     1       0.874   3.142  20.193  0.00  0.00    +0.000 A 
ATOM     19  C   UNL     1       0.673   4.499  20.434  0.00  0.00    +0.000 A 
ATOM     20  C   UNL     1       1.768   5.353  20.599  0.00  0.00    +0.000 A 
ATOM     21  C   UNL     1       3.061   4.863  20.384  0.00  0.00    +0.000 A 
BRANCH  20  22
ATOM     22  O   UNL     1       1.666   6.694  20.903  0.00  0.00    +0.000 OA
BRANCH  22  23
ATOM     23  C   UNL     1       1.743   7.635  19.897  0.00  0.00    +0.000 A 
ATOM     24  C   UNL     1       2.378   7.424  18.669  0.00  0.00    +0.000 A 
ATOM     25  C   UNL     1       2.447   8.454  17.729  0.00  0.00    +0.000 A 
ATOM     26  C   UNL     1       1.829   9.676  17.986  0.00  0.00    +0.000 A 
ATOM     27  C   UNL     1       1.131   9.865  19.178  0.00  0.00    +0.000 A 
ATOM     28  C   UNL     1       1.089   8.846  20.132  0.00  0.00    +0.000 A 
ENDBRANCH  22  23
ENDBRANCH  20  22
ENDBRANCH  15  16
ENDBRANCH   3  15
TORSDOF 5
ENDMDL
MODEL 7
REMARK VINA RESULT:      -7.5      3.979      5.575
REMARK  Name = 
REMARK  5 active torsions:
REMARK  status: ('A' for Active; 'I' for Inactive)
REMARK    1  A    between atoms: C_2  and  C_18
REMARK    2  A    between atoms: N_3  and  C_4
REMARK    3  A    between atoms: C_4  and  C_5
REMARK    4  A    between atoms: C_9  and  O_10
REMARK    5  A    between atoms: O_10  and  C_11
REMARK                            x       y       z     vdW  Elec       q    Type
REMARK                         _______ _______ _______ _____ _____    ______ ____
ROOT
ATOM      1  O   UNL     1      -0.647  13.021  20.862  0.00  0.00    +0.000 OA
ATOM      2  C   UNL     1      -1.330  12.065  20.506  0.00  0.00    +0.000 C 
ATOM      3  N   UNL     1      -0.845  10.783  20.475  0.00  0.00    +0.000 N 
ATOM      4  H   UNL     1      -1.474  10.007  20.274  0.00  0.00    +0.000 HD
ENDROOT
BRANCH   2   5
ATOM      5  C   UNL     1      -2.734  12.238  20.045  0.00  0.00    +0.000 A 
ATOM      6  C   UNL     1      -3.590  12.885  20.857  0.00  0.00    +0.000 A 
ATOM      7  N   UNL     1      -4.901  13.186  20.572  0.00  0.00    +0.000 NA
ATOM      8  C   UNL     1      -5.313  12.791  19.417  0.00  0.00    +0.000 A 
ATOM      9  S   UNL     1      -6.926  13.061  18.783  0.00  0.00    +0.000 S 
ATOM     10  C   UNL     1      -6.517  12.223  17.310  0.00  0.00    +0.000 A 
ATOM     11  C   UNL     1      -5.252  11.789  17.330  0.00  0.00    +0.000 A 
ATOM     12  N   UNL     1      -4.569  12.100  18.486  0.00  0.00    +0.000 N 
ATOM     13  C   UNL     1      -3.251  11.781  18.729  0.00  0.00    +0.000 A 
ATOM     14  O   UNL     1      -2.530  11.172  17.938  0.00  0.00    +0.000 OA
ENDBRANCH   2   5
BRANCH   3  15
ATOM     15  C   UNL     1       0.516  10.500  20.853  0.00  0.00    +0.000 C 
BRANCH  15  16
ATOM     16  C   UNL     1       1.192   9.577  19.876  0.00  0.00    +0.000 A 
ATOM     17  C   UNL     1       1.305   9.946  18.530  0.00  0.00    +0.000 A 
ATOM     18  C   UNL     1       1.854   9.065  17.599  0.00  0.00    +0.000 A 
ATOM     19  C   UNL     1       2.319   7.818  18.010  0.00  0.00    +0.000 A 
ATOM     20  C   UNL     1       2.319   7.480  19.367  0.00  0.00    +0.000 A 
ATOM     21  C   UNL     1       1.723   8.345  20.292  0.00  0.00    +0.000 A 
BRANCH  20  22
ATOM     22  O   UNL     1       2.817   6.297  19.871  0.00  0.00    +0.000 OA
BRANCH  22  23
ATOM     23  C   UNL     1       2.152   5.113  19.631  0.00  0.00    +0.000 A 
ATOM     24  C   UNL     1       1.323   4.473  20.558  0.00  0.00    +0.000 A 
ATOM     25  C   UNL     1       0.729   3.250  20.242  0.00  0.00    +0.000 A 
ATOM     26  C   UNL     1       0.910   2.692  18.978  0.00  0.00    +0.000 A 
ATOM     27  C   UNL     1       1.675   3.363  18.025  0.00  0.00    +0.000 A 
ATOM     28  C   UNL     1       2.296   4.571  18.351  0.00  0.00    +0.000 A 
ENDBRANCH  22  23
ENDBRANCH  20  22
ENDBRANCH  15  16
ENDBRANCH   3  15
TORSDOF 5
ENDMDL
MODEL 8
REMARK VINA RESULT:      -7.4      3.858      5.810
REMARK  Name = 
REMARK  5 active torsions:
REMARK  status: ('A' for Active; 'I' for Inactive)
REMARK    1  A    between atoms: C_2  and  C_18
REMARK    2  A    between atoms: N_3  and  C_4
REMARK    3  A    between atoms: C_4  and  C_5
REMARK    4  A    between atoms: C_9  and  O_10
REMARK    5  A    between atoms: O_10  and  C_11
REMARK                            x       y       z     vdW  Elec       q    Type
REMARK                         _______ _______ _______ _____ _____    ______ ____
ROOT
ATOM      1  O   UNL     1      -0.312  12.560  22.487  0.00  0.00    +0.000 OA
ATOM      2  C   UNL     1      -1.089  11.850  21.856  0.00  0.00    +0.000 C 
ATOM      3  N   UNL     1      -0.729  10.625  21.356  0.00  0.00    +0.000 N 
ATOM      4  H   UNL     1      -1.432  10.024  20.930  0.00  0.00    +0.000 HD
ENDROOT
BRANCH   2   5
ATOM      5  C   UNL     1      -2.479  12.288  21.558  0.00  0.00    +0.000 A 
ATOM      6  C   UNL     1      -2.816  12.491  20.271  0.00  0.00    +0.000 A 
ATOM      7  N   UNL     1      -4.062  12.839  19.808  0.00  0.00    +0.000 NA
ATOM      8  C   UNL     1      -4.963  12.981  20.718  0.00  0.00    +0.000 A 
ATOM      9  S   UNL     1      -6.640  13.394  20.413  0.00  0.00    +0.000 S 
ATOM     10  C   UNL     1      -6.989  13.355  22.121  0.00  0.00    +0.000 A 
ATOM     11  C   UNL     1      -5.901  13.048  22.836  0.00  0.00    +0.000 A 
ATOM     12  N   UNL     1      -4.772  12.832  22.075  0.00  0.00    +0.000 N 
ATOM     13  C   UNL     1      -3.540  12.480  22.582  0.00  0.00    +0.000 A 
ATOM     14  O   UNL     1      -3.304  12.325  23.780  0.00  0.00    +0.000 OA
ENDBRANCH   2   5
BRANCH   3  15
ATOM     15  C   UNL     1       0.607  10.118  21.540  0.00  0.00    +0.000 C 
BRANCH  15  16
ATOM     16  C   UNL     1       1.114   9.409  20.314  0.00  0.00    +0.000 A 
ATOM     17  C   UNL     1       0.895   9.962  19.046  0.00  0.00    +0.000 A 
ATOM     18  C   UNL     1       1.286   9.274  17.898  0.00  0.00    +0.000 A 
ATOM     19  C   UNL     1       1.924   8.041  18.007  0.00  0.00    +0.000 A 
ATOM     20  C   UNL     1       2.254   7.530  19.266  0.00  0.00    +0.000 A 
ATOM     21  C   UNL     1       1.817   8.197  20.416  0.00  0.00    +0.000 A 
BRANCH  20  22
ATOM     22  O   UNL     1       2.941   6.351  19.468  0.00  0.00    +0.000 OA
BRANCH  22  23
ATOM     23  C   UNL     1       2.303   5.143  19.283  0.00  0.00    +0.000 A 
ATOM     24  C   UNL     1       2.343   4.405  18.095  0.00  0.00    +0.000 A 
ATOM     25  C   UNL     1       1.625   3.213  17.985  0.00  0.00    +0.000 A 
ATOM     26  C   UNL     1       0.914   2.722  19.078  0.00  0.00    +0.000 A 
ATOM     27  C   UNL     1       0.932   3.417  20.287  0.00  0.00    +0.000 A 
ATOM     28  C   UNL     1       1.624   4.626  20.389  0.00  0.00    +0.000 A 
ENDBRANCH  22  23
ENDBRANCH  20  22
ENDBRANCH  15  16
ENDBRANCH   3  15
TORSDOF 5
ENDMDL
MODEL 9
REMARK VINA RESULT:      -7.4      5.242      9.478
REMARK  Name = 
REMARK  5 active torsions:
REMARK  status: ('A' for Active; 'I' for Inactive)
REMARK    1  A    between atoms: C_2  and  C_18
REMARK    2  A    between atoms: N_3  and  C_4
REMARK    3  A    between atoms: C_4  and  C_5
REMARK    4  A    between atoms: C_9  and  O_10
REMARK    5  A    between atoms: O_10  and  C_11
REMARK                            x       y       z     vdW  Elec       q    Type
REMARK                         _______ _______ _______ _____ _____    ______ ____
ROOT
ATOM      1  O   UNL     1       1.383  11.109  19.077  0.00  0.00    +0.000 OA
ATOM      2  C   UNL     1       0.774  10.053  19.219  0.00  0.00    +0.000 C 
ATOM      3  N   UNL     1      -0.593   9.996  19.310  0.00  0.00    +0.000 N 
ATOM      4  H   UNL     1      -1.064   9.093  19.322  0.00  0.00    +0.000 HD
ENDROOT
BRANCH   2   5
ATOM      5  C   UNL     1       1.485   8.752  19.339  0.00  0.00    +0.000 A 
ATOM      6  C   UNL     1       1.332   8.050  20.477  0.00  0.00    +0.000 A 
ATOM      7  N   UNL     1       1.864   6.810  20.738  0.00  0.00    +0.000 NA
ATOM      8  C   UNL     1       2.573   6.308  19.786  0.00  0.00    +0.000 A 
ATOM      9  S   UNL     1       3.347   4.734  19.834  0.00  0.00    +0.000 S 
ATOM     10  C   UNL     1       3.997   4.974  18.235  0.00  0.00    +0.000 A 
ATOM     11  C   UNL     1       3.635   6.160  17.732  0.00  0.00    +0.000 A 
ATOM     12  N   UNL     1       2.842   6.909  18.575  0.00  0.00    +0.000 N 
ATOM     13  C   UNL     1       2.326   8.150  18.271  0.00  0.00    +0.000 A 
ATOM     14  O   UNL     1       2.522   8.738  17.207  0.00  0.00    +0.000 OA
ENDBRANCH   2   5
BRANCH   3  15
ATOM     15  C   UNL     1      -1.385  11.198  19.256  0.00  0.00    +0.000 C 
BRANCH  15  16
ATOM     16  C   UNL     1      -2.421  11.141  18.167  0.00  0.00    +0.000 A 
ATOM     17  C   UNL     1      -2.073  10.664  16.896  0.00  0.00    +0.000 A 
ATOM     18  C   UNL     1      -3.001  10.685  15.856  0.00  0.00    +0.000 A 
ATOM     19  C   UNL     1      -4.292  11.156  16.081  0.00  0.00    +0.000 A 
ATOM     20  C   UNL     1      -4.690  11.527  17.369  0.00  0.00    +0.000 A 
ATOM     21  C   UNL     1      -3.744  11.553  18.401  0.00  0.00    +0.000 A 
BRANCH  20  22
ATOM     22  O   UNL     1      -5.962  11.944  17.698  0.00  0.00    +0.000 OA
BRANCH  22  23
ATOM     23  C   UNL     1      -6.589  11.428  18.812  0.00  0.00    +0.000 A 
ATOM     24  C   UNL     1      -7.080  12.202  19.868  0.00  0.00    +0.000 A 
ATOM     25  C   UNL     1      -7.658  11.586  20.980  0.00  0.00    +0.000 A 
ATOM     26  C   UNL     1      -7.804  10.201  21.014  0.00  0.00    +0.000 A 
ATOM     27  C   UNL     1      -7.383   9.431  19.930  0.00  0.00    +0.000 A 
ATOM     28  C   UNL     1      -6.776  10.044  18.831  0.00  0.00    +0.000 A 
ENDBRANCH  22  23
ENDBRANCH  20  22
ENDBRANCH  15  16
ENDBRANCH   3  15
TORSDOF 5
ENDMDL
