MODEL 1
REMARK VINA RESULT:      -8.8      0.000      0.000
REMARK  Name = 
REMARK  5 active torsions:
REMARK  status: ('A' for Active; 'I' for Inactive)
REMARK    1  A    between atoms: C_1  and  N_2
REMARK    2  A    between atoms: N_7  and  C_8
REMARK    3  A    between atoms: C_8  and  C_9
REMARK    4  A    between atoms: C_13  and  N_14
REMARK    5  A    between atoms: C_22  and  C_23
REMARK                            x       y       z     vdW  Elec       q    Type
REMARK                         _______ _______ _______ _____ _____    ______ ____
ROOT
ATOM      1  C   UNL     1       2.548   6.199  18.814  0.00  0.00    +0.000 A 
ATOM      2  C   UNL     1       2.477   7.057  17.693  0.00  0.00    +0.000 A 
ATOM      3  C   UNL     1       2.257   8.424  17.827  0.00  0.00    +0.000 A 
ATOM      4  C   UNL     1       1.986   8.955  19.074  0.00  0.00    +0.000 A 
ATOM      5  C   UNL     1       1.801   8.093  20.167  0.00  0.00    +0.000 A 
ATOM      6  C   UNL     1       2.191   6.763  20.054  0.00  0.00    +0.000 A 
ENDROOT
BRANCH   5   7
ATOM      7  N   UNL     1       0.739   8.366  21.107  0.00  0.00    +0.000 N 
ATOM      8  C   UNL     1      -0.532   8.571  20.362  0.00  0.00    +0.000 C 
ATOM      9  C   UNL     1      -0.625  10.054  20.287  0.00  0.00    +0.000 A 
ATOM     10  C   UNL     1       0.105  10.581  21.360  0.00  0.00    +0.000 A 
ATOM     11  C   UNL     1       0.367  11.924  21.518  0.00  0.00    +0.000 A 
ATOM     12  C   UNL     1      -0.097  12.766  20.505  0.00  0.00    +0.000 A 
ATOM     13  F   UNL     1       0.214  14.061  20.536  0.00  0.00    +0.000 F 
ATOM     14  C   UNL     1      -0.800  12.260  19.391  0.00  0.00    +0.000 A 
ATOM     15  C   UNL     1      -1.089  10.884  19.273  0.00  0.00    +0.000 A 
ATOM     16  C   UNL     1       0.909   9.488  21.938  0.00  0.00    +0.000 C 
ATOM     17  O   UNL     1       1.697   9.644  22.852  0.00  0.00    +0.000 OA
BRANCH  15  18
ATOM     18  C   UNL     1      -1.661  10.338  17.993  0.00  0.00    +0.000 C 
ATOM     19  F   UNL     1      -0.766   9.585  17.297  0.00  0.00    +0.000 F 
ATOM     20  F   UNL     1      -2.742   9.535  18.197  0.00  0.00    +0.000 F 
ENDBRANCH  15  18
ENDBRANCH   5   7
BRANCH   1  21
ATOM     21  C   UNL     1       2.992   4.678  18.686  0.00  0.00    +0.000 C 
ATOM     22  C   UNL     1       3.049   3.870  20.018  0.00  0.00    +0.000 C 
ATOM     23  O   UNL     1       2.150   2.856  19.519  0.00  0.00    +0.000 OA
ATOM     24  C   UNL     1       1.910   3.626  18.315  0.00  0.00    +0.000 C 
BRANCH  21  31
ATOM     25  C   UNL     1       6.758   4.345  16.308  0.00  0.00    +0.000 C 
ATOM     26  N   UNL     1       6.611   4.769  17.673  0.00  0.00    +0.000 N 
ATOM     27  C   UNL     1       7.635   5.133  18.495  0.00  0.00    +0.000 A 
ATOM     28  N   UNL     1       7.160   5.439  19.678  0.00  0.00    +0.000 NA
ATOM     29  N   UNL     1       5.797   5.271  19.623  0.00  0.00    +0.000 NA
ATOM     30  C   UNL     1       5.463   4.853  18.420  0.00  0.00    +0.000 A 
ATOM     31  N   UNL     1       4.238   4.532  17.929  0.00  0.00    +0.000 N 
ATOM     32  H   UNL     1       4.100   4.601  16.925  0.00  0.00    +0.000 HD
ENDBRANCH  21  31
ENDBRANCH   1  21
TORSDOF 4
ENDMDL
MODEL 2
REMARK VINA RESULT:      -8.7      2.048      3.100
REMARK  Name = 
REMARK  5 active torsions:
REMARK  status: ('A' for Active; 'I' for Inactive)
REMARK    1  A    between atoms: C_1  and  N_2
REMARK    2  A    between atoms: N_7  and  C_8
REMARK    3  A    between atoms: C_8  and  C_9
REMARK    4  A    between atoms: C_13  and  N_14
REMARK    5  A    between atoms: C_22  and  C_23
REMARK                            x       y       z     vdW  Elec       q    Type
REMARK                         _______ _______ _______ _____ _____    ______ ____
ROOT
ATOM      1  C   UNL     1       2.999   4.298  19.288  0.00  0.00    +0.000 A 
ATOM      2  C   UNL     1       2.421   4.074  20.559  0.00  0.00    +0.000 A 
ATOM      3  C   UNL     1       1.549   4.988  21.141  0.00  0.00    +0.000 A 
ATOM      4  C   UNL     1       1.320   6.203  20.523  0.00  0.00    +0.000 A 
ATOM      5  C   UNL     1       2.071   6.557  19.392  0.00  0.00    +0.000 A 
ATOM      6  C   UNL     1       2.801   5.576  18.730  0.00  0.00    +0.000 A 
ENDROOT
BRANCH   5   7
ATOM      7  N   UNL     1       2.566   7.908  19.268  0.00  0.00    +0.000 N 
ATOM      8  C   UNL     1       2.184   8.680  20.481  0.00  0.00    +0.000 C 
ATOM      9  C   UNL     1       0.966   9.406  20.030  0.00  0.00    +0.000 A 
ATOM     10  C   UNL     1       1.036   9.531  18.636  0.00  0.00    +0.000 A 
ATOM     11  C   UNL     1       0.006  10.013  17.861  0.00  0.00    +0.000 A 
ATOM     12  C   UNL     1      -1.174  10.336  18.535  0.00  0.00    +0.000 A 
ATOM     13  F   UNL     1      -2.248  10.704  17.837  0.00  0.00    +0.000 F 
ATOM     14  C   UNL     1      -1.290  10.182  19.932  0.00  0.00    +0.000 A 
ATOM     15  C   UNL     1      -0.205   9.723  20.709  0.00  0.00    +0.000 A 
ATOM     16  C   UNL     1       2.112   8.644  18.158  0.00  0.00    +0.000 C 
ATOM     17  O   UNL     1       2.381   8.485  16.982  0.00  0.00    +0.000 OA
BRANCH  15  18
ATOM     18  C   UNL     1      -0.405   9.378  22.160  0.00  0.00    +0.000 C 
ATOM     19  F   UNL     1      -1.219  10.260  22.802  0.00  0.00    +0.000 F 
ATOM     20  F   UNL     1      -0.972   8.153  22.338  0.00  0.00    +0.000 F 
ENDBRANCH  15  18
ENDBRANCH   5   7
BRANCH   1  21
ATOM     21  C   UNL     1       3.836   3.177  18.532  0.00  0.00    +0.000 C 
ATOM     22  C   UNL     1       4.270   1.952  19.392  0.00  0.00    +0.000 C 
ATOM     23  O   UNL     1       3.642   1.014  18.491  0.00  0.00    +0.000 OA
ATOM     24  C   UNL     1       3.059   2.098  17.728  0.00  0.00    +0.000 C 
BRANCH  21  31
ATOM     25  C   UNL     1       7.236   4.995  16.276  0.00  0.00    +0.000 C 
ATOM     26  N   UNL     1       6.994   5.035  17.692  0.00  0.00    +0.000 N 
ATOM     27  C   UNL     1       7.803   5.639  18.608  0.00  0.00    +0.000 A 
ATOM     28  N   UNL     1       7.308   5.468  19.810  0.00  0.00    +0.000 NA
ATOM     29  N   UNL     1       6.153   4.737  19.672  0.00  0.00    +0.000 NA
ATOM     30  C   UNL     1       5.967   4.460  18.398  0.00  0.00    +0.000 A 
ATOM     31  N   UNL     1       4.978   3.742  17.807  0.00  0.00    +0.000 N 
ATOM     32  H   UNL     1       4.768   3.940  16.833  0.00  0.00    +0.000 HD
ENDBRANCH  21  31
ENDBRANCH   1  21
TORSDOF 4
ENDMDL
MODEL 3
REMARK VINA RESULT:      -8.4      3.737      8.323
REMARK  Name = 
REMARK  5 active torsions:
REMARK  status: ('A' for Active; 'I' for Inactive)
REMARK    1  A    between atoms: C_1  and  N_2
REMARK    2  A    between atoms: N_7  and  C_8
REMARK    3  A    between atoms: C_8  and  C_9
REMARK    4  A    between atoms: C_13  and  N_14
REMARK    5  A    between atoms: C_22  and  C_23
REMARK                            x       y       z     vdW  Elec       q    Type
REMARK                         _______ _______ _______ _____ _____    ______ ____
ROOT
ATOM      1  C   UNL     1       1.269   9.317  19.219  0.00  0.00    +0.000 A 
ATOM      2  C   UNL     1       0.837   8.684  20.406  0.00  0.00    +0.000 A 
ATOM      3  C   UNL     1       1.406   7.497  20.856  0.00  0.00    +0.000 A 
ATOM      4  C   UNL     1       2.343   6.849  20.073  0.00  0.00    +0.000 A 
ATOM      5  C   UNL     1       2.607   7.319  18.777  0.00  0.00    +0.000 A 
ATOM      6  C   UNL     1       2.167   8.588  18.415  0.00  0.00    +0.000 A 
ENDROOT
BRANCH   5   7
ATOM      7  N   UNL     1       2.763   6.369  17.700  0.00  0.00    +0.000 N 
ATOM      8  C   UNL     1       1.740   5.299  17.842  0.00  0.00    +0.000 C 
ATOM      9  C   UNL     1       2.503   4.211  18.510  0.00  0.00    +0.000 A 
ATOM     10  C   UNL     1       3.858   4.388  18.200  0.00  0.00    +0.000 A 
ATOM     11  C   UNL     1       4.874   3.657  18.773  0.00  0.00    +0.000 A 
ATOM     12  C   UNL     1       4.494   2.731  19.748  0.00  0.00    +0.000 A 
ATOM     13  F   UNL     1       5.431   2.066  20.421  0.00  0.00    +0.000 F 
ATOM     14  C   UNL     1       3.141   2.559  20.111  0.00  0.00    +0.000 A 
ATOM     15  C   UNL     1       2.115   3.294  19.481  0.00  0.00    +0.000 A 
ATOM     16  C   UNL     1       4.012   5.728  17.605  0.00  0.00    +0.000 C 
ATOM     17  O   UNL     1       5.086   6.202  17.283  0.00  0.00    +0.000 OA
BRANCH  15  18
ATOM     18  C   UNL     1       0.709   3.243  20.014  0.00  0.00    +0.000 C 
ATOM     19  F   UNL     1      -0.092   2.403  19.303  0.00  0.00    +0.000 F 
ATOM     20  F   UNL     1       0.649   2.809  21.304  0.00  0.00    +0.000 F 
ENDBRANCH  15  18
ENDBRANCH   5   7
BRANCH   1  21
ATOM     21  C   UNL     1       0.765  10.766  18.802  0.00  0.00    +0.000 C 
ATOM     22  C   UNL     1       0.412  11.729  19.975  0.00  0.00    +0.000 C 
ATOM     23  O   UNL     1       1.326  12.745  19.504  0.00  0.00    +0.000 OA
ATOM     24  C   UNL     1       1.831  11.850  18.482  0.00  0.00    +0.000 C 
BRANCH  21  31
ATOM     25  C   UNL     1      -2.563  10.452  15.839  0.00  0.00    +0.000 C 
ATOM     26  N   UNL     1      -2.623  10.955  17.183  0.00  0.00    +0.000 N 
ATOM     27  C   UNL     1      -3.740  11.451  17.785  0.00  0.00    +0.000 A 
ATOM     28  N   UNL     1      -3.446  11.847  18.999  0.00  0.00    +0.000 NA
ATOM     29  N   UNL     1      -2.107  11.602  19.191  0.00  0.00    +0.000 NA
ATOM     30  C   UNL     1      -1.603  11.078  18.093  0.00  0.00    +0.000 A 
ATOM     31  N   UNL     1      -0.325  10.707  17.824  0.00  0.00    +0.000 N 
ATOM     32  H   UNL     1      -0.181   9.994  17.114  0.00  0.00    +0.000 HD
ENDBRANCH  21  31
ENDBRANCH   1  21
TORSDOF 4
ENDMDL
MODEL 4
REMARK VINA RESULT:      -8.4      3.759      7.790
REMARK  Name = 
REMARK  5 active torsions:
REMARK  status: ('A' for Active; 'I' for Inactive)
REMARK    1  A    between atoms: C_1  and  N_2
REMARK    2  A    between atoms: N_7  and  C_8
REMARK    3  A    between atoms: C_8  and  C_9
REMARK    4  A    between atoms: C_13  and  N_14
REMARK    5  A    between atoms: C_22  and  C_23
REMARK                            x       y       z     vdW  Elec       q    Type
REMARK                         _______ _______ _______ _____ _____    ______ ____
ROOT
ATOM      1  C   UNL     1       0.920   9.297  19.371  0.00  0.00    +0.000 A 
ATOM      2  C   UNL     1       0.714   8.618  20.593  0.00  0.00    +0.000 A 
ATOM      3  C   UNL     1       1.499   7.535  20.974  0.00  0.00    +0.000 A 
ATOM      4  C   UNL     1       2.437   7.028  20.094  0.00  0.00    +0.000 A 
ATOM      5  C   UNL     1       2.492   7.520  18.781  0.00  0.00    +0.000 A 
ATOM      6  C   UNL     1       1.829   8.704  18.474  0.00  0.00    +0.000 A 
ENDROOT
BRANCH   5   7
ATOM      7  N   UNL     1       2.677   6.594  17.688  0.00  0.00    +0.000 N 
ATOM      8  C   UNL     1       1.691   5.487  17.814  0.00  0.00    +0.000 C 
ATOM      9  C   UNL     1       2.493   4.415  18.462  0.00  0.00    +0.000 A 
ATOM     10  C   UNL     1       3.840   4.643  18.152  0.00  0.00    +0.000 A 
ATOM     11  C   UNL     1       4.882   3.937  18.711  0.00  0.00    +0.000 A 
ATOM     12  C   UNL     1       4.535   2.983  19.671  0.00  0.00    +0.000 A 
ATOM     13  F   UNL     1       5.496   2.340  20.332  0.00  0.00    +0.000 F 
ATOM     14  C   UNL     1       3.191   2.759  20.035  0.00  0.00    +0.000 A 
ATOM     15  C   UNL     1       2.139   3.469  19.418  0.00  0.00    +0.000 A 
ATOM     16  C   UNL     1       3.946   5.998  17.580  0.00  0.00    +0.000 C 
ATOM     17  O   UNL     1       5.003   6.513  17.263  0.00  0.00    +0.000 OA
BRANCH  15  18
ATOM     18  C   UNL     1       0.737   3.361  19.954  0.00  0.00    +0.000 C 
ATOM     19  F   UNL     1      -0.035   2.500  19.235  0.00  0.00    +0.000 F 
ATOM     20  F   UNL     1       0.695   2.913  21.239  0.00  0.00    +0.000 F 
ENDBRANCH  15  18
ENDBRANCH   5   7
BRANCH   1  21
ATOM     21  C   UNL     1       0.162  10.650  19.017  0.00  0.00    +0.000 C 
ATOM     22  C   UNL     1      -0.967  10.539  17.949  0.00  0.00    +0.000 C 
ATOM     23  O   UNL     1      -1.954  11.111  18.836  0.00  0.00    +0.000 OA
ATOM     24  C   UNL     1      -1.010  11.095  19.935  0.00  0.00    +0.000 C 
BRANCH  21  31
ATOM     25  C   UNL     1       2.901  14.021  17.977  0.00  0.00    +0.000 C 
ATOM     26  N   UNL     1       2.537  13.552  19.285  0.00  0.00    +0.000 N 
ATOM     27  C   UNL     1       3.000  14.065  20.459  0.00  0.00    +0.000 A 
ATOM     28  N   UNL     1       2.492  13.393  21.463  0.00  0.00    +0.000 NA
ATOM     29  N   UNL     1       1.680  12.421  20.930  0.00  0.00    +0.000 NA
ATOM     30  C   UNL     1       1.716  12.503  19.616  0.00  0.00    +0.000 A 
ATOM     31  N   UNL     1       1.095  11.731  18.687  0.00  0.00    +0.000 N 
ATOM     32  H   UNL     1       0.917  12.142  17.776  0.00  0.00    +0.000 HD
ENDBRANCH  21  31
ENDBRANCH   1  21
TORSDOF 4
ENDMDL
MODEL 5
REMARK VINA RESULT:      -8.4      5.629      9.093
REMARK  Name = 
REMARK  5 active torsions:
REMARK  status: ('A' for Active; 'I' for Inactive)
REMARK    1  A    between atoms: C_1  and  N_2
REMARK    2  A    between atoms: N_7  and  C_8
REMARK    3  A    between atoms: C_8  and  C_9
REMARK    4  A    between atoms: C_13  and  N_14
REMARK    5  A    between atoms: C_22  and  C_23
REMARK                            x       y       z     vdW  Elec       q    Type
REMARK                         _______ _______ _______ _____ _____    ______ ____
ROOT
ATOM      1  C   UNL     1      -3.902  11.313  17.791  0.00  0.00    +0.000 A 
ATOM      2  C   UNL     1      -3.834  10.725  16.508  0.00  0.00    +0.000 A 
ATOM      3  C   UNL     1      -2.763   9.926  16.122  0.00  0.00    +0.000 A 
ATOM      4  C   UNL     1      -1.675   9.787  16.964  0.00  0.00    +0.000 A 
ATOM      5  C   UNL     1      -1.602  10.559  18.133  0.00  0.00    +0.000 A 
ATOM      6  C   UNL     1      -2.744  11.212  18.586  0.00  0.00    +0.000 A 
ENDROOT
BRANCH   5   7
ATOM      7  N   UNL     1      -0.341  11.155  18.508  0.00  0.00    +0.000 N 
ATOM      8  C   UNL     1       0.344  10.270  19.488  0.00  0.00    +0.000 C 
ATOM      9  C   UNL     1       0.002  10.905  20.788  0.00  0.00    +0.000 A 
ATOM     10  C   UNL     1      -0.266  12.259  20.545  0.00  0.00    +0.000 A 
ATOM     11  C   UNL     1      -0.767  13.121  21.494  0.00  0.00    +0.000 A 
ATOM     12  C   UNL     1      -1.056  12.563  22.742  0.00  0.00    +0.000 A 
ATOM     13  F   UNL     1      -1.645  13.311  23.673  0.00  0.00    +0.000 F 
ATOM     14  C   UNL     1      -0.837  11.195  23.005  0.00  0.00    +0.000 A 
ATOM     15  C   UNL     1      -0.285  10.341  22.026  0.00  0.00    +0.000 A 
ATOM     16  C   UNL     1      -0.399  12.435  19.087  0.00  0.00    +0.000 C 
ATOM     17  O   UNL     1      -0.691  13.494  18.561  0.00  0.00    +0.000 OA
BRANCH  15  18
ATOM     18  C   UNL     1      -0.242   8.854  22.255  0.00  0.00    +0.000 C 
ATOM     19  F   UNL     1      -1.057   8.169  21.408  0.00  0.00    +0.000 F 
ATOM     20  F   UNL     1       1.001   8.329  22.081  0.00  0.00    +0.000 F 
ENDBRANCH  15  18
ENDBRANCH   5   7
BRANCH   1  21
ATOM     21  C   UNL     1      -5.207  12.061  18.309  0.00  0.00    +0.000 C 
ATOM     22  C   UNL     1      -6.081  12.745  17.215  0.00  0.00    +0.000 C 
ATOM     23  O   UNL     1      -7.265  12.019  17.614  0.00  0.00    +0.000 OA
ATOM     24  C   UNL     1      -6.491  11.219  18.542  0.00  0.00    +0.000 C 
BRANCH  21  31
ATOM     25  C   UNL     1      -4.383  14.984  21.585  0.00  0.00    +0.000 C 
ATOM     26  N   UNL     1      -5.128  13.759  21.663  0.00  0.00    +0.000 N 
ATOM     27  C   UNL     1      -5.708  13.265  22.793  0.00  0.00    +0.000 A 
ATOM     28  N   UNL     1      -6.287  12.120  22.525  0.00  0.00    +0.000 NA
ATOM     29  N   UNL     1      -6.079  11.863  21.191  0.00  0.00    +0.000 NA
ATOM     30  C   UNL     1      -5.367  12.842  20.670  0.00  0.00    +0.000 A 
ATOM     31  N   UNL     1      -4.907  12.992  19.401  0.00  0.00    +0.000 N 
ATOM     32  H   UNL     1      -4.722  13.936  19.075  0.00  0.00    +0.000 HD
ENDBRANCH  21  31
ENDBRANCH   1  21
TORSDOF 4
ENDMDL
MODEL 6
REMARK VINA RESULT:      -8.2      3.514      8.266
REMARK  Name = 
REMARK  5 active torsions:
REMARK  status: ('A' for Active; 'I' for Inactive)
REMARK    1  A    between atoms: C_1  and  N_2
REMARK    2  A    between atoms: N_7  and  C_8
REMARK    3  A    between atoms: C_8  and  C_9
REMARK    4  A    between atoms: C_13  and  N_14
REMARK    5  A    between atoms: C_22  and  C_23
REMARK                            x       y       z     vdW  Elec       q    Type
REMARK                         _______ _______ _______ _____ _____    ______ ____
ROOT
ATOM      1  C   UNL     1       1.771   8.420  19.620  0.00  0.00    +0.000 A 
ATOM      2  C   UNL     1       2.401   9.002  18.497  0.00  0.00    +0.000 A 
ATOM      3  C   UNL     1       2.929   8.230  17.468  0.00  0.00    +0.000 A 
ATOM      4  C   UNL     1       2.946   6.852  17.587  0.00  0.00    +0.000 A 
ATOM      5  C   UNL     1       2.559   6.257  18.797  0.00  0.00    +0.000 A 
ATOM      6  C   UNL     1       1.878   7.021  19.740  0.00  0.00    +0.000 A 
ENDROOT
BRANCH   5   7
ATOM      7  N   UNL     1       3.324   5.146  19.314  0.00  0.00    +0.000 N 
ATOM      8  C   UNL     1       4.730   5.580  19.529  0.00  0.00    +0.000 C 
ATOM      9  C   UNL     1       5.410   5.087  18.301  0.00  0.00    +0.000 A 
ATOM     10  C   UNL     1       4.667   4.007  17.806  0.00  0.00    +0.000 A 
ATOM     11  C   UNL     1       4.914   3.403  16.594  0.00  0.00    +0.000 A 
ATOM     12  C   UNL     1       5.940   3.958  15.825  0.00  0.00    +0.000 A 
ATOM     13  F   UNL     1       6.163   3.494  14.597  0.00  0.00    +0.000 F 
ATOM     14  C   UNL     1       6.678   5.072  16.278  0.00  0.00    +0.000 A 
ATOM     15  C   UNL     1       6.431   5.649  17.542  0.00  0.00    +0.000 A 
ATOM     16  C   UNL     1       3.372   3.992  18.511  0.00  0.00    +0.000 C 
ATOM     17  O   UNL     1       2.479   3.203  18.261  0.00  0.00    +0.000 OA
BRANCH  15  18
ATOM     18  C   UNL     1       7.087   6.948  17.923  0.00  0.00    +0.000 C 
ATOM     19  F   UNL     1       8.038   6.793  18.884  0.00  0.00    +0.000 F 
ATOM     20  F   UNL     1       7.714   7.551  16.875  0.00  0.00    +0.000 F 
ENDBRANCH  15  18
ENDBRANCH   5   7
BRANCH   1  21
ATOM     21  C   UNL     1       0.994   9.292  20.700  0.00  0.00    +0.000 C 
ATOM     22  C   UNL     1      -0.256   8.623  21.346  0.00  0.00    +0.000 C 
ATOM     23  O   UNL     1       0.255   8.806  22.684  0.00  0.00    +0.000 OA
ATOM     24  C   UNL     1       1.518   9.287  22.162  0.00  0.00    +0.000 C 
BRANCH  21  31
ATOM     25  C   UNL     1       0.121  13.362  19.079  0.00  0.00    +0.000 C 
ATOM     26  N   UNL     1      -0.586  12.139  18.820  0.00  0.00    +0.000 N 
ATOM     27  C   UNL     1      -1.688  12.023  18.026  0.00  0.00    +0.000 A 
ATOM     28  N   UNL     1      -2.100  10.779  18.025  0.00  0.00    +0.000 NA
ATOM     29  N   UNL     1      -1.247  10.070  18.837  0.00  0.00    +0.000 NA
ATOM     30  C   UNL     1      -0.342  10.889  19.331  0.00  0.00    +0.000 A 
ATOM     31  N   UNL     1       0.673  10.630  20.195  0.00  0.00    +0.000 N 
ATOM     32  H   UNL     1       1.479  11.248  20.173  0.00  0.00    +0.000 HD
ENDBRANCH  21  31
ENDBRANCH   1  21
TORSDOF 4
ENDMDL
MODEL 7
REMARK VINA RESULT:      -8.2      3.700      8.198
REMARK  Name = 
REMARK  5 active torsions:
REMARK  status: ('A' for Active; 'I' for Inactive)
REMARK    1  A    between atoms: C_1  and  N_2
REMARK    2  A    between atoms: N_7  and  C_8
REMARK    3  A    between atoms: C_8  and  C_9
REMARK    4  A    between atoms: C_13  and  N_14
REMARK    5  A    between atoms: C_22  and  C_23
REMARK                            x       y       z     vdW  Elec       q    Type
REMARK                         _______ _______ _______ _____ _____    ______ ____
ROOT
ATOM      1  C   UNL     1       1.005   9.708  19.835  0.00  0.00    +0.000 A 
ATOM      2  C   UNL     1       0.465   8.942  20.892  0.00  0.00    +0.000 A 
ATOM      3  C   UNL     1       0.940   7.671  21.198  0.00  0.00    +0.000 A 
ATOM      4  C   UNL     1       1.890   7.082  20.383  0.00  0.00    +0.000 A 
ATOM      5  C   UNL     1       2.261   7.713  19.185  0.00  0.00    +0.000 A 
ATOM      6  C   UNL     1       1.912   9.045  18.985  0.00  0.00    +0.000 A 
ENDROOT
BRANCH   5   7
ATOM      7  N   UNL     1       2.435   6.917  17.993  0.00  0.00    +0.000 N 
ATOM      8  C   UNL     1       1.504   5.757  18.041  0.00  0.00    +0.000 C 
ATOM      9  C   UNL     1       2.381   4.662  18.537  0.00  0.00    +0.000 A 
ATOM     10  C   UNL     1       3.701   4.986  18.197  0.00  0.00    +0.000 A 
ATOM     11  C   UNL     1       4.797   4.276  18.633  0.00  0.00    +0.000 A 
ATOM     12  C   UNL     1       4.538   3.212  19.500  0.00  0.00    +0.000 A 
ATOM     13  F   UNL     1       5.556   2.549  20.047  0.00  0.00    +0.000 F 
ATOM     14  C   UNL     1       3.223   2.886  19.893  0.00  0.00    +0.000 A 
ATOM     15  C   UNL     1       2.113   3.606  19.401  0.00  0.00    +0.000 A 
ATOM     16  C   UNL     1       3.722   6.396  17.768  0.00  0.00    +0.000 C 
ATOM     17  O   UNL     1       4.739   6.992  17.465  0.00  0.00    +0.000 OA
BRANCH  15  18
ATOM     18  C   UNL     1       0.744   3.376  19.980  0.00  0.00    +0.000 C 
ATOM     19  F   UNL     1       0.018   2.471  19.268  0.00  0.00    +0.000 F 
ATOM     20  F   UNL     1       0.783   2.899  21.255  0.00  0.00    +0.000 F 
ENDBRANCH  15  18
ENDBRANCH   5   7
BRANCH   1  21
ATOM     21  C   UNL     1       0.606  11.229  19.604  0.00  0.00    +0.000 C 
ATOM     22  C   UNL     1       1.181  12.249  20.632  0.00  0.00    +0.000 C 
ATOM     23  O   UNL     1       1.796  13.047  19.597  0.00  0.00    +0.000 OA
ATOM     24  C   UNL     1       1.443  12.062  18.595  0.00  0.00    +0.000 C 
BRANCH  21  31
ATOM     25  C   UNL     1      -3.785  11.870  19.087  0.00  0.00    +0.000 C 
ATOM     26  N   UNL     1      -2.903  11.092  18.261  0.00  0.00    +0.000 N 
ATOM     27  C   UNL     1      -3.282  10.384  17.159  0.00  0.00    +0.000 A 
ATOM     28  N   UNL     1      -2.241   9.769  16.654  0.00  0.00    +0.000 NA
ATOM     29  N   UNL     1      -1.161  10.083  17.444  0.00  0.00    +0.000 NA
ATOM     30  C   UNL     1      -1.559  10.869  18.424  0.00  0.00    +0.000 A 
ATOM     31  N   UNL     1      -0.842  11.399  19.448  0.00  0.00    +0.000 N 
ATOM     32  H   UNL     1      -1.187  12.255  19.872  0.00  0.00    +0.000 HD
ENDBRANCH  21  31
ENDBRANCH   1  21
TORSDOF 4
ENDMDL
MODEL 8
REMARK VINA RESULT:      -8.2      0.695      1.325
REMARK  Name = 
REMARK  5 active torsions:
REMARK  status: ('A' for Active; 'I' for Inactive)
REMARK    1  A    between atoms: C_1  and  N_2
REMARK    2  A    between atoms: N_7  and  C_8
REMARK    3  A    between atoms: C_8  and  C_9
REMARK    4  A    between atoms: C_13  and  N_14
REMARK    5  A    between atoms: C_22  and  C_23
REMARK                            x       y       z     vdW  Elec       q    Type
REMARK                         _______ _______ _______ _____ _____    ______ ____
ROOT
ATOM      1  C   UNL     1       2.695   6.262  18.944  0.00  0.00    +0.000 A 
ATOM      2  C   UNL     1       2.517   7.012  17.760  0.00  0.00    +0.000 A 
ATOM      3  C   UNL     1       2.152   8.354  17.787  0.00  0.00    +0.000 A 
ATOM      4  C   UNL     1       1.842   8.954  18.993  0.00  0.00    +0.000 A 
ATOM      5  C   UNL     1       1.765   8.171  20.156  0.00  0.00    +0.000 A 
ATOM      6  C   UNL     1       2.296   6.885  20.143  0.00  0.00    +0.000 A 
ENDROOT
BRANCH   5   7
ATOM      7  N   UNL     1       0.692   8.405  21.094  0.00  0.00    +0.000 N 
ATOM      8  C   UNL     1      -0.578   8.599  20.344  0.00  0.00    +0.000 C 
ATOM      9  C   UNL     1      -0.700  10.081  20.297  0.00  0.00    +0.000 A 
ATOM     10  C   UNL     1       0.014  10.603  21.383  0.00  0.00    +0.000 A 
ATOM     11  C   UNL     1       0.249  11.947  21.568  0.00  0.00    +0.000 A 
ATOM     12  C   UNL     1      -0.226  12.799  20.567  0.00  0.00    +0.000 A 
ATOM     13  F   UNL     1       0.059  14.099  20.624  0.00  0.00    +0.000 F 
ATOM     14  C   UNL     1      -0.912  12.300  19.440  0.00  0.00    +0.000 A 
ATOM     15  C   UNL     1      -1.174  10.921  19.294  0.00  0.00    +0.000 A 
ATOM     16  C   UNL     1       0.835   9.515  21.946  0.00  0.00    +0.000 C 
ATOM     17  O   UNL     1       1.615   9.669  22.868  0.00  0.00    +0.000 OA
BRANCH  15  18
ATOM     18  C   UNL     1      -1.727  10.387  18.001  0.00  0.00    +0.000 C 
ATOM     19  F   UNL     1      -0.807   9.682  17.288  0.00  0.00    +0.000 F 
ATOM     20  F   UNL     1      -2.780   9.544  18.184  0.00  0.00    +0.000 F 
ENDBRANCH  15  18
ENDBRANCH   5   7
BRANCH   1  21
ATOM     21  C   UNL     1       3.299   4.791  18.930  0.00  0.00    +0.000 C 
ATOM     22  C   UNL     1       3.015   3.925  20.195  0.00  0.00    +0.000 C 
ATOM     23  O   UNL     1       2.417   2.866  19.416  0.00  0.00    +0.000 OA
ATOM     24  C   UNL     1       2.492   3.673  18.215  0.00  0.00    +0.000 C 
BRANCH  21  31
ATOM     25  C   UNL     1       7.661   4.660  17.978  0.00  0.00    +0.000 C 
ATOM     26  N   UNL     1       6.555   4.537  17.069  0.00  0.00    +0.000 N 
ATOM     27  C   UNL     1       6.664   4.375  15.720  0.00  0.00    +0.000 A 
ATOM     28  N   UNL     1       5.468   4.324  15.187  0.00  0.00    +0.000 NA
ATOM     29  N   UNL     1       4.561   4.455  16.211  0.00  0.00    +0.000 NA
ATOM     30  C   UNL     1       5.213   4.600  17.347  0.00  0.00    +0.000 A 
ATOM     31  N   UNL     1       4.727   4.788  18.600  0.00  0.00    +0.000 N 
ATOM     32  H   UNL     1       5.312   4.503  19.380  0.00  0.00    +0.000 HD
ENDBRANCH  21  31
ENDBRANCH   1  21
TORSDOF 4
ENDMDL
MODEL 9
REMARK VINA RESULT:      -8.2      1.979      2.946
REMARK  Name = 
REMARK  5 active torsions:
REMARK  status: ('A' for Active; 'I' for Inactive)
REMARK    1  A    between atoms: C_1  and  N_2
REMARK    2  A    between atoms: N_7  and  C_8
REMARK    3  A    between atoms: C_8  and  C_9
REMARK    4  A    between atoms: C_13  and  N_14
REMARK    5  A    between atoms: C_22  and  C_23
REMARK                            x       y       z     vdW  Elec       q    Type
REMARK                         _______ _______ _______ _____ _____    ______ ____
ROOT
ATOM      1  C   UNL     1       2.590   7.222  18.757  0.00  0.00    +0.000 A 
ATOM      2  C   UNL     1       2.373   8.071  17.648  0.00  0.00    +0.000 A 
ATOM      3  C   UNL     1       1.866   9.357  17.795  0.00  0.00    +0.000 A 
ATOM      4  C   UNL     1       1.453   9.792  19.041  0.00  0.00    +0.000 A 
ATOM      5  C   UNL     1       1.421   8.887  20.113  0.00  0.00    +0.000 A 
ATOM      6  C   UNL     1       2.086   7.671  19.993  0.00  0.00    +0.000 A 
ENDROOT
BRANCH   5   7
ATOM      7  N   UNL     1       0.298   8.909  21.021  0.00  0.00    +0.000 N 
ATOM      8  C   UNL     1      -0.941   9.217  20.257  0.00  0.00    +0.000 C 
ATOM      9  C   UNL     1      -1.109  10.676  20.491  0.00  0.00    +0.000 A 
ATOM     10  C   UNL     1      -0.464  10.992  21.695  0.00  0.00    +0.000 A 
ATOM     11  C   UNL     1      -0.282  12.279  22.148  0.00  0.00    +0.000 A 
ATOM     12  C   UNL     1      -0.737  13.299  21.308  0.00  0.00    +0.000 A 
ATOM     13  F   UNL     1      -0.497  14.569  21.629  0.00  0.00    +0.000 F 
ATOM     14  C   UNL     1      -1.352  13.014  20.070  0.00  0.00    +0.000 A 
ATOM     15  C   UNL     1      -1.562  11.684  19.647  0.00  0.00    +0.000 A 
ATOM     16  C   UNL     1       0.365   9.835  22.078  0.00  0.00    +0.000 C 
ATOM     17  O   UNL     1       1.095   9.824  23.052  0.00  0.00    +0.000 OA
BRANCH  15  18
ATOM     18  C   UNL     1      -2.036  11.401  18.248  0.00  0.00    +0.000 C 
ATOM     19  F   UNL     1      -1.110  10.736  17.504  0.00  0.00    +0.000 F 
ATOM     20  F   UNL     1      -3.159  10.631  18.216  0.00  0.00    +0.000 F 
ENDBRANCH  15  18
ENDBRANCH   5   7
BRANCH   1  21
ATOM     21  C   UNL     1       3.348   5.831  18.621  0.00  0.00    +0.000 C 
ATOM     22  C   UNL     1       4.270   5.676  17.374  0.00  0.00    +0.000 C 
ATOM     23  O   UNL     1       5.423   5.357  18.184  0.00  0.00    +0.000 OA
ATOM     24  C   UNL     1       4.682   5.644  19.395  0.00  0.00    +0.000 C 
BRANCH  21  31
ATOM     25  C   UNL     1       0.650   2.286  18.937  0.00  0.00    +0.000 C 
ATOM     26  N   UNL     1       1.379   2.936  19.991  0.00  0.00    +0.000 N 
ATOM     27  C   UNL     1       1.348   2.575  21.304  0.00  0.00    +0.000 A 
ATOM     28  N   UNL     1       2.103   3.389  22.001  0.00  0.00    +0.000 NA
ATOM     29  N   UNL     1       2.637   4.299  21.121  0.00  0.00    +0.000 NA
ATOM     30  C   UNL     1       2.191   4.040  19.909  0.00  0.00    +0.000 A 
ATOM     31  N   UNL     1       2.433   4.693  18.744  0.00  0.00    +0.000 N 
ATOM     32  H   UNL     1       2.339   4.167  17.880  0.00  0.00    +0.000 HD
ENDBRANCH  21  31
ENDBRANCH   1  21
TORSDOF 4
ENDMDL
