MODEL 1
REMARK VINA RESULT:      -8.1      0.000      0.000
REMARK  Name = 
REMARK  3 active torsions:
REMARK  status: ('A' for Active; 'I' for Inactive)
REMARK    1  A    between atoms: C_2  and  C_14
REMARK    2  A    between atoms: N_3  and  C_4
REMARK    3  A    between atoms: C_12  and  O_13
REMARK                            x       y       z     vdW  Elec       q    Type
REMARK                         _______ _______ _______ _____ _____    ______ ____
ROOT
ATOM      1  O   UNL     1       2.246   8.969  17.411  0.00  0.00    +0.000 OA
ATOM      2  C   UNL     1       1.929   8.527  18.513  0.00  0.00    +0.000 C 
ATOM      3  N   UNL     1       1.111   9.167  19.420  0.00  0.00    +0.000 N 
ATOM      4  H   UNL     1       0.925   8.725  20.317  0.00  0.00    +0.000 HD
ENDROOT
BRANCH   2   5
ATOM      5  C   UNL     1       2.463   7.154  18.893  0.00  0.00    +0.000 A 
ATOM      6  N   UNL     1       1.977   6.468  19.880  0.00  0.00    +0.000 NA
ATOM      7  C   UNL     1       2.542   5.189  20.091  0.00  0.00    +0.000 A 
ATOM      8  C   UNL     1       2.027   4.382  21.108  0.00  0.00    +0.000 A 
ATOM      9  C   UNL     1       2.525   3.092  21.320  0.00  0.00    +0.000 A 
ATOM     10  C   UNL     1       3.554   2.593  20.519  0.00  0.00    +0.000 A 
ATOM     11  C   UNL     1       4.092   3.385  19.510  0.00  0.00    +0.000 A 
ATOM     12  C   UNL     1       3.580   4.672  19.303  0.00  0.00    +0.000 A 
ATOM     13  C   UNL     1       4.111   5.519  18.223  0.00  0.00    +0.000 A 
ATOM     14  O   UNL     1       5.032   5.162  17.498  0.00  0.00    +0.000 OA
ATOM     15  N   UNL     1       3.494   6.732  18.089  0.00  0.00    +0.000 N 
ATOM     16  H   UNL     1       3.816   7.351  17.350  0.00  0.00    +0.000 HD
ENDBRANCH   2   5
BRANCH   3  17
ATOM     17  C   UNL     1       0.646  10.503  19.103  0.00  0.00    +0.000 C 
ATOM     18  C   UNL     1      -0.765  10.604  18.589  0.00  0.00    +0.000 A 
ATOM     19  C   UNL     1      -1.247  10.200  17.351  0.00  0.00    +0.000 A 
ATOM     20  C   UNL     1      -2.528  10.606  16.968  0.00  0.00    +0.000 A 
ATOM     21  C   UNL     1      -3.317  11.392  17.822  0.00  0.00    +0.000 A 
ATOM     22  C   UNL     1      -2.844  11.759  19.082  0.00  0.00    +0.000 A 
ATOM     23  C   UNL     1      -1.566  11.364  19.447  0.00  0.00    +0.000 A 
ATOM     24  C   UNL     1      -0.851  11.692  20.714  0.00  0.00    +0.000 C 
ATOM     25  C   UNL     1       0.624  11.484  20.324  0.00  0.00    +0.000 C 
BRANCH  25  26
ATOM     26  O   UNL     1       1.369  11.028  21.451  0.00  0.00    +0.000 OA
ATOM     27  H   UNL     1       2.085  11.669  21.598  0.00  0.00    +0.000 HD
ENDBRANCH  25  26
ENDBRANCH   3  17
TORSDOF 3
ENDMDL
MODEL 2
REMARK VINA RESULT:      -8.0      2.298      7.554
REMARK  Name = 
REMARK  3 active torsions:
REMARK  status: ('A' for Active; 'I' for Inactive)
REMARK    1  A    between atoms: C_2  and  C_14
REMARK    2  A    between atoms: N_3  and  C_4
REMARK    3  A    between atoms: C_12  and  O_13
REMARK                            x       y       z     vdW  Elec       q    Type
REMARK                         _______ _______ _______ _____ _____    ______ ____
ROOT
ATOM      1  O   UNL     1       2.521   8.653  17.135  0.00  0.00    +0.000 OA
ATOM      2  C   UNL     1       2.240   8.185  18.235  0.00  0.00    +0.000 C 
ATOM      3  N   UNL     1       2.613   6.935  18.685  0.00  0.00    +0.000 N 
ATOM      4  H   UNL     1       2.312   6.631  19.608  0.00  0.00    +0.000 HD
ENDROOT
BRANCH   2   5
ATOM      5  C   UNL     1       1.441   9.065  19.184  0.00  0.00    +0.000 A 
ATOM      6  N   UNL     1       1.029   8.647  20.340  0.00  0.00    +0.000 NA
ATOM      7  C   UNL     1       0.334   9.588  21.135  0.00  0.00    +0.000 A 
ATOM      8  C   UNL     1      -0.091   9.212  22.411  0.00  0.00    +0.000 A 
ATOM      9  C   UNL     1      -0.740  10.127  23.248  0.00  0.00    +0.000 A 
ATOM     10  C   UNL     1      -0.979  11.432  22.815  0.00  0.00    +0.000 A 
ATOM     11  C   UNL     1      -0.577  11.823  21.542  0.00  0.00    +0.000 A 
ATOM     12  C   UNL     1       0.077  10.901  20.716  0.00  0.00    +0.000 A 
ATOM     13  C   UNL     1       0.538  11.298  19.377  0.00  0.00    +0.000 A 
ATOM     14  O   UNL     1       0.340  12.417  18.916  0.00  0.00    +0.000 OA
ATOM     15  N   UNL     1       1.210  10.326  18.689  0.00  0.00    +0.000 N 
ATOM     16  H   UNL     1       1.560  10.553  17.762  0.00  0.00    +0.000 HD
ENDBRANCH   2   5
BRANCH   3  17
ATOM     17  C   UNL     1       3.319   6.058  17.772  0.00  0.00    +0.000 C 
ATOM     18  C   UNL     1       4.820   6.083  17.865  0.00  0.00    +0.000 A 
ATOM     19  C   UNL     1       5.677   7.099  17.467  0.00  0.00    +0.000 A 
ATOM     20  C   UNL     1       7.048   6.832  17.404  0.00  0.00    +0.000 A 
ATOM     21  C   UNL     1       7.549   5.568  17.751  0.00  0.00    +0.000 A 
ATOM     22  C   UNL     1       6.687   4.563  18.191  0.00  0.00    +0.000 A 
ATOM     23  C   UNL     1       5.328   4.833  18.236  0.00  0.00    +0.000 A 
ATOM     24  C   UNL     1       4.236   3.893  18.620  0.00  0.00    +0.000 C 
ATOM     25  C   UNL     1       3.000   4.537  17.965  0.00  0.00    +0.000 C 
BRANCH  25  26
ATOM     26  O   UNL     1       1.839   4.280  18.753  0.00  0.00    +0.000 OA
ATOM     27  H   UNL     1       2.141   4.120  19.662  0.00  0.00    +0.000 HD
ENDBRANCH  25  26
ENDBRANCH   3  17
TORSDOF 3
ENDMDL
MODEL 3
REMARK VINA RESULT:      -7.8      2.644      7.666
REMARK  Name = 
REMARK  3 active torsions:
REMARK  status: ('A' for Active; 'I' for Inactive)
REMARK    1  A    between atoms: C_2  and  C_14
REMARK    2  A    between atoms: N_3  and  C_4
REMARK    3  A    between atoms: C_12  and  O_13
REMARK                            x       y       z     vdW  Elec       q    Type
REMARK                         _______ _______ _______ _____ _____    ______ ____
ROOT
ATOM      1  O   UNL     1       2.370   4.905  18.430  0.00  0.00    +0.000 OA
ATOM      2  C   UNL     1       3.043   5.901  18.685  0.00  0.00    +0.000 C 
ATOM      3  N   UNL     1       4.407   6.004  18.509  0.00  0.00    +0.000 N 
ATOM      4  H   UNL     1       4.876   6.868  18.771  0.00  0.00    +0.000 HD
ENDROOT
BRANCH   2   5
ATOM      5  C   UNL     1       2.306   7.124  19.211  0.00  0.00    +0.000 A 
ATOM      6  N   UNL     1       1.834   7.186  20.417  0.00  0.00    +0.000 NA
ATOM      7  C   UNL     1       1.210   8.400  20.783  0.00  0.00    +0.000 A 
ATOM      8  C   UNL     1       0.726   8.546  22.085  0.00  0.00    +0.000 A 
ATOM      9  C   UNL     1       0.145   9.749  22.503  0.00  0.00    +0.000 A 
ATOM     10  C   UNL     1       0.034  10.823  21.618  0.00  0.00    +0.000 A 
ATOM     11  C   UNL     1       0.497  10.694  20.312  0.00  0.00    +0.000 A 
ATOM     12  C   UNL     1       1.082   9.488  19.908  0.00  0.00    +0.000 A 
ATOM     13  C   UNL     1       1.606   9.337  18.541  0.00  0.00    +0.000 A 
ATOM     14  O   UNL     1       1.520  10.224  17.700  0.00  0.00    +0.000 OA
ATOM     15  N   UNL     1       2.202   8.133  18.285  0.00  0.00    +0.000 N 
ATOM     16  H   UNL     1       2.591   7.982  17.358  0.00  0.00    +0.000 HD
ENDBRANCH   2   5
BRANCH   3  17
ATOM     17  C   UNL     1       5.135   4.830  18.071  0.00  0.00    +0.000 C 
ATOM     18  C   UNL     1       5.491   4.784  16.610  0.00  0.00    +0.000 A 
ATOM     19  C   UNL     1       4.635   4.590  15.535  0.00  0.00    +0.000 A 
ATOM     20  C   UNL     1       5.189   4.330  14.278  0.00  0.00    +0.000 A 
ATOM     21  C   UNL     1       6.581   4.282  14.103  0.00  0.00    +0.000 A 
ATOM     22  C   UNL     1       7.436   4.520  15.179  0.00  0.00    +0.000 A 
ATOM     23  C   UNL     1       6.877   4.763  16.425  0.00  0.00    +0.000 A 
ATOM     24  C   UNL     1       7.603   4.985  17.708  0.00  0.00    +0.000 C 
ATOM     25  C   UNL     1       6.530   4.644  18.758  0.00  0.00    +0.000 C 
BRANCH  25  26
ATOM     26  O   UNL     1       6.716   5.441  19.926  0.00  0.00    +0.000 OA
ATOM     27  H   UNL     1       7.086   6.291  19.635  0.00  0.00    +0.000 HD
ENDBRANCH  25  26
ENDBRANCH   3  17
TORSDOF 3
ENDMDL
MODEL 4
REMARK VINA RESULT:      -7.6      1.994      7.671
REMARK  Name = 
REMARK  3 active torsions:
REMARK  status: ('A' for Active; 'I' for Inactive)
REMARK    1  A    between atoms: C_2  and  C_14
REMARK    2  A    between atoms: N_3  and  C_4
REMARK    3  A    between atoms: C_12  and  O_13
REMARK                            x       y       z     vdW  Elec       q    Type
REMARK                         _______ _______ _______ _____ _____    ______ ____
ROOT
ATOM      1  O   UNL     1       2.261   8.720  17.296  0.00  0.00    +0.000 OA
ATOM      2  C   UNL     1       2.045   8.239  18.405  0.00  0.00    +0.000 C 
ATOM      3  N   UNL     1       2.454   6.989  18.822  0.00  0.00    +0.000 N 
ATOM      4  H   UNL     1       2.206   6.674  19.757  0.00  0.00    +0.000 HD
ENDROOT
BRANCH   2   5
ATOM      5  C   UNL     1       1.290   9.102  19.405  0.00  0.00    +0.000 A 
ATOM      6  N   UNL     1       0.403   9.974  19.040  0.00  0.00    +0.000 NA
ATOM      7  C   UNL     1      -0.251  10.675  20.079  0.00  0.00    +0.000 A 
ATOM      8  C   UNL     1      -1.252  11.592  19.751  0.00  0.00    +0.000 A 
ATOM      9  C   UNL     1      -1.957  12.272  20.751  0.00  0.00    +0.000 A 
ATOM     10  C   UNL     1      -1.663  12.047  22.097  0.00  0.00    +0.000 A 
ATOM     11  C   UNL     1      -0.660  11.148  22.446  0.00  0.00    +0.000 A 
ATOM     12  C   UNL     1       0.034  10.470  21.437  0.00  0.00    +0.000 A 
ATOM     13  C   UNL     1       1.079   9.492  21.780  0.00  0.00    +0.000 A 
ATOM     14  O   UNL     1       1.412   9.262  22.937  0.00  0.00    +0.000 OA
ATOM     15  N   UNL     1       1.645   8.857  20.710  0.00  0.00    +0.000 N 
ATOM     16  H   UNL     1       2.364   8.164  20.893  0.00  0.00    +0.000 HD
ENDBRANCH   2   5
BRANCH   3  17
ATOM     17  C   UNL     1       3.117   6.128  17.864  0.00  0.00    +0.000 C 
ATOM     18  C   UNL     1       4.621   6.142  17.898  0.00  0.00    +0.000 A 
ATOM     19  C   UNL     1       5.468   7.162  17.487  0.00  0.00    +0.000 A 
ATOM     20  C   UNL     1       6.833   6.889  17.364  0.00  0.00    +0.000 A 
ATOM     21  C   UNL     1       7.340   5.615  17.665  0.00  0.00    +0.000 A 
ATOM     22  C   UNL     1       6.490   4.605  18.118  0.00  0.00    +0.000 A 
ATOM     23  C   UNL     1       5.135   4.882  18.222  0.00  0.00    +0.000 A 
ATOM     24  C   UNL     1       4.053   3.940  18.630  0.00  0.00    +0.000 C 
ATOM     25  C   UNL     1       2.797   4.604  18.038  0.00  0.00    +0.000 C 
BRANCH  25  26
ATOM     26  O   UNL     1       1.666   4.337  18.866  0.00  0.00    +0.000 OA
ATOM     27  H   UNL     1       0.908   4.799  18.470  0.00  0.00    +0.000 HD
ENDBRANCH  25  26
ENDBRANCH   3  17
TORSDOF 3
ENDMDL
MODEL 5
REMARK VINA RESULT:      -7.6      1.668      2.207
REMARK  Name = 
REMARK  3 active torsions:
REMARK  status: ('A' for Active; 'I' for Inactive)
REMARK    1  A    between atoms: C_2  and  C_14
REMARK    2  A    between atoms: N_3  and  C_4
REMARK    3  A    between atoms: C_12  and  O_13
REMARK                            x       y       z     vdW  Elec       q    Type
REMARK                         _______ _______ _______ _____ _____    ______ ____
ROOT
ATOM      1  O   UNL     1       2.602   8.567  18.232  0.00  0.00    +0.000 OA
ATOM      2  C   UNL     1       2.071   7.938  19.144  0.00  0.00    +0.000 C 
ATOM      3  N   UNL     1       1.252   8.481  20.111  0.00  0.00    +0.000 N 
ATOM      4  H   UNL     1       0.877   7.876  20.838  0.00  0.00    +0.000 HD
ENDROOT
BRANCH   2   5
ATOM      5  C   UNL     1       2.319   6.437  19.191  0.00  0.00    +0.000 A 
ATOM      6  N   UNL     1       2.622   5.749  18.136  0.00  0.00    +0.000 NA
ATOM      7  C   UNL     1       2.867   4.371  18.336  0.00  0.00    +0.000 A 
ATOM      8  C   UNL     1       3.247   3.586  17.246  0.00  0.00    +0.000 A 
ATOM      9  C   UNL     1       3.545   2.228  17.409  0.00  0.00    +0.000 A 
ATOM     10  C   UNL     1       3.459   1.635  18.670  0.00  0.00    +0.000 A 
ATOM     11  C   UNL     1       3.068   2.395  19.768  0.00  0.00    +0.000 A 
ATOM     12  C   UNL     1       2.779   3.754  19.592  0.00  0.00    +0.000 A 
ATOM     13  C   UNL     1       2.392   4.586  20.742  0.00  0.00    +0.000 A 
ATOM     14  O   UNL     1       2.268   4.131  21.874  0.00  0.00    +0.000 OA
ATOM     15  N   UNL     1       2.188   5.906  20.452  0.00  0.00    +0.000 N 
ATOM     16  H   UNL     1       1.930   6.527  21.214  0.00  0.00    +0.000 HD
ENDBRANCH   2   5
BRANCH   3  17
ATOM     17  C   UNL     1       1.057   9.917  20.121  0.00  0.00    +0.000 C 
ATOM     18  C   UNL     1      -0.225  10.411  19.507  0.00  0.00    +0.000 A 
ATOM     19  C   UNL     1      -0.570  10.426  18.163  0.00  0.00    +0.000 A 
ATOM     20  C   UNL     1      -1.697  11.152  17.770  0.00  0.00    +0.000 A 
ATOM     21  C   UNL     1      -2.474  11.839  18.716  0.00  0.00    +0.000 A 
ATOM     22  C   UNL     1      -2.147  11.785  20.071  0.00  0.00    +0.000 A 
ATOM     23  C   UNL     1      -1.018  11.074  20.449  0.00  0.00    +0.000 A 
ATOM     24  C   UNL     1      -0.462  10.934  21.826  0.00  0.00    +0.000 C 
ATOM     25  C   UNL     1       1.004  10.550  21.553  0.00  0.00    +0.000 C 
BRANCH  25  26
ATOM     26  O   UNL     1       1.487   9.694  22.586  0.00  0.00    +0.000 OA
ATOM     27  H   UNL     1       2.302   9.281  22.256  0.00  0.00    +0.000 HD
ENDBRANCH  25  26
ENDBRANCH   3  17
TORSDOF 3
ENDMDL
MODEL 6
REMARK VINA RESULT:      -7.6      1.277      1.395
REMARK  Name = 
REMARK  3 active torsions:
REMARK  status: ('A' for Active; 'I' for Inactive)
REMARK    1  A    between atoms: C_2  and  C_14
REMARK    2  A    between atoms: N_3  and  C_4
REMARK    3  A    between atoms: C_12  and  O_13
REMARK                            x       y       z     vdW  Elec       q    Type
REMARK                         _______ _______ _______ _____ _____    ______ ____
ROOT
ATOM      1  O   UNL     1       2.430   8.805  17.379  0.00  0.00    +0.000 OA
ATOM      2  C   UNL     1       2.101   8.204  18.398  0.00  0.00    +0.000 C 
ATOM      3  N   UNL     1       1.326   8.726  19.413  0.00  0.00    +0.000 N 
ATOM      4  H   UNL     1       1.126   8.151  20.228  0.00  0.00    +0.000 HD
ENDROOT
BRANCH   2   5
ATOM      5  C   UNL     1       2.564   6.761  18.537  0.00  0.00    +0.000 A 
ATOM      6  N   UNL     1       1.813   5.755  18.215  0.00  0.00    +0.000 NA
ATOM      7  C   UNL     1       2.390   4.473  18.356  0.00  0.00    +0.000 A 
ATOM      8  C   UNL     1       1.647   3.352  17.978  0.00  0.00    +0.000 A 
ATOM      9  C   UNL     1       2.198   2.068  18.056  0.00  0.00    +0.000 A 
ATOM     10  C   UNL     1       3.501   1.887  18.522  0.00  0.00    +0.000 A 
ATOM     11  C   UNL     1       4.254   2.988  18.917  0.00  0.00    +0.000 A 
ATOM     12  C   UNL     1       3.694   4.269  18.828  0.00  0.00    +0.000 A 
ATOM     13  C   UNL     1       4.480   5.452  19.212  0.00  0.00    +0.000 A 
ATOM     14  O   UNL     1       5.619   5.372  19.656  0.00  0.00    +0.000 OA
ATOM     15  N   UNL     1       3.842   6.648  19.029  0.00  0.00    +0.000 N 
ATOM     16  H   UNL     1       4.346   7.498  19.269  0.00  0.00    +0.000 HD
ENDBRANCH   2   5
BRANCH   3  17
ATOM     17  C   UNL     1       0.930  10.118  19.329  0.00  0.00    +0.000 C 
ATOM     18  C   UNL     1      -0.451  10.378  18.793  0.00  0.00    +0.000 A 
ATOM     19  C   UNL     1      -0.895  10.228  17.486  0.00  0.00    +0.000 A 
ATOM     20  C   UNL     1      -2.141  10.757  17.138  0.00  0.00    +0.000 A 
ATOM     21  C   UNL     1      -2.934  11.412  18.093  0.00  0.00    +0.000 A 
ATOM     22  C   UNL     1      -2.502  11.522  19.415  0.00  0.00    +0.000 A 
ATOM     23  C   UNL     1      -1.257  11.007  19.747  0.00  0.00    +0.000 A 
ATOM     24  C   UNL     1      -0.585  11.065  21.077  0.00  0.00    +0.000 C 
ATOM     25  C   UNL     1       0.895  10.861  20.707  0.00  0.00    +0.000 C 
BRANCH  25  26
ATOM     26  O   UNL     1       1.572  10.173  21.758  0.00  0.00    +0.000 OA
ATOM     27  H   UNL     1       0.984  10.186  22.531  0.00  0.00    +0.000 HD
ENDBRANCH  25  26
ENDBRANCH   3  17
TORSDOF 3
ENDMDL
MODEL 7
REMARK VINA RESULT:      -7.4      1.876      7.688
REMARK  Name = 
REMARK  3 active torsions:
REMARK  status: ('A' for Active; 'I' for Inactive)
REMARK    1  A    between atoms: C_2  and  C_14
REMARK    2  A    between atoms: N_3  and  C_4
REMARK    3  A    between atoms: C_12  and  O_13
REMARK                            x       y       z     vdW  Elec       q    Type
REMARK                         _______ _______ _______ _____ _____    ______ ____
ROOT
ATOM      1  O   UNL     1       1.774   7.053  21.595  0.00  0.00    +0.000 OA
ATOM      2  C   UNL     1       1.743   7.678  20.538  0.00  0.00    +0.000 C 
ATOM      3  N   UNL     1       2.310   7.260  19.352  0.00  0.00    +0.000 N 
ATOM      4  H   UNL     1       2.246   7.862  18.534  0.00  0.00    +0.000 HD
ENDROOT
BRANCH   2   5
ATOM      5  C   UNL     1       0.998   9.005  20.533  0.00  0.00    +0.000 A 
ATOM      6  N   UNL     1       0.740   9.654  19.442  0.00  0.00    +0.000 NA
ATOM      7  C   UNL     1       0.002  10.851  19.584  0.00  0.00    +0.000 A 
ATOM      8  C   UNL     1      -0.349  11.570  18.440  0.00  0.00    +0.000 A 
ATOM      9  C   UNL     1      -1.119  12.735  18.533  0.00  0.00    +0.000 A 
ATOM     10  C   UNL     1      -1.544  13.201  19.779  0.00  0.00    +0.000 A 
ATOM     11  C   UNL     1      -1.192  12.509  20.933  0.00  0.00    +0.000 A 
ATOM     12  C   UNL     1      -0.427  11.341  20.826  0.00  0.00    +0.000 A 
ATOM     13  C   UNL     1      -0.068  10.575  22.030  0.00  0.00    +0.000 A 
ATOM     14  O   UNL     1      -0.379  10.936  23.159  0.00  0.00    +0.000 OA
ATOM     15  N   UNL     1       0.635   9.426  21.790  0.00  0.00    +0.000 N 
ATOM     16  H   UNL     1       0.898   8.854  22.588  0.00  0.00    +0.000 HD
ENDBRANCH   2   5
BRANCH   3  17
ATOM     17  C   UNL     1       3.078   6.032  19.353  0.00  0.00    +0.000 C 
ATOM     18  C   UNL     1       2.296   4.766  19.129  0.00  0.00    +0.000 A 
ATOM     19  C   UNL     1       1.412   4.150  20.004  0.00  0.00    +0.000 A 
ATOM     20  C   UNL     1       0.978   2.854  19.714  0.00  0.00    +0.000 A 
ATOM     21  C   UNL     1       1.414   2.194  18.555  0.00  0.00    +0.000 A 
ATOM     22  C   UNL     1       2.269   2.833  17.657  0.00  0.00    +0.000 A 
ATOM     23  C   UNL     1       2.706   4.114  17.961  0.00  0.00    +0.000 A 
ATOM     24  C   UNL     1       3.658   4.950  17.175  0.00  0.00    +0.000 C 
ATOM     25  C   UNL     1       4.166   5.952  18.228  0.00  0.00    +0.000 C 
BRANCH  25  26
ATOM     26  O   UNL     1       4.459   7.204  17.612  0.00  0.00    +0.000 OA
ATOM     27  H   UNL     1       4.956   7.731  18.260  0.00  0.00    +0.000 HD
ENDBRANCH  25  26
ENDBRANCH   3  17
TORSDOF 3
ENDMDL
MODEL 8
REMARK VINA RESULT:      -7.4      1.543      2.286
REMARK  Name = 
REMARK  3 active torsions:
REMARK  status: ('A' for Active; 'I' for Inactive)
REMARK    1  A    between atoms: C_2  and  C_14
REMARK    2  A    between atoms: N_3  and  C_4
REMARK    3  A    between atoms: C_12  and  O_13
REMARK                            x       y       z     vdW  Elec       q    Type
REMARK                         _______ _______ _______ _____ _____    ______ ____
ROOT
ATOM      1  O   UNL     1       2.330  10.260  17.391  0.00  0.00    +0.000 OA
ATOM      2  C   UNL     1       1.733   9.459  18.105  0.00  0.00    +0.000 C 
ATOM      3  N   UNL     1       0.498   9.674  18.680  0.00  0.00    +0.000 N 
ATOM      4  H   UNL     1       0.096   8.953  19.274  0.00  0.00    +0.000 HD
ENDROOT
BRANCH   2   5
ATOM      5  C   UNL     1       2.400   8.114  18.352  0.00  0.00    +0.000 A 
ATOM      6  N   UNL     1       3.344   7.655  17.592  0.00  0.00    +0.000 NA
ATOM      7  C   UNL     1       3.901   6.411  17.967  0.00  0.00    +0.000 A 
ATOM      8  C   UNL     1       4.957   5.889  17.216  0.00  0.00    +0.000 A 
ATOM      9  C   UNL     1       5.568   4.684  17.580  0.00  0.00    +0.000 A 
ATOM     10  C   UNL     1       5.125   3.980  18.701  0.00  0.00    +0.000 A 
ATOM     11  C   UNL     1       4.066   4.474  19.455  0.00  0.00    +0.000 A 
ATOM     12  C   UNL     1       3.466   5.684  19.084  0.00  0.00    +0.000 A 
ATOM     13  C   UNL     1       2.364   6.243  19.882  0.00  0.00    +0.000 A 
ATOM     14  O   UNL     1       1.902   5.670  20.862  0.00  0.00    +0.000 OA
ATOM     15  N   UNL     1       1.899   7.454  19.450  0.00  0.00    +0.000 N 
ATOM     16  H   UNL     1       1.145   7.890  19.973  0.00  0.00    +0.000 HD
ENDBRANCH   2   5
BRANCH   3  17
ATOM     17  C   UNL     1      -0.123  10.972  18.509  0.00  0.00    +0.000 C 
ATOM     18  C   UNL     1      -1.579  10.961  18.127  0.00  0.00    +0.000 A 
ATOM     19  C   UNL     1      -2.132  10.595  16.908  0.00  0.00    +0.000 A 
ATOM     20  C   UNL     1      -3.477  10.890  16.669  0.00  0.00    +0.000 A 
ATOM     21  C   UNL     1      -4.257  11.528  17.647  0.00  0.00    +0.000 A 
ATOM     22  C   UNL     1      -3.706  11.856  18.886  0.00  0.00    +0.000 A 
ATOM     23  C   UNL     1      -2.367  11.572  19.108  0.00  0.00    +0.000 A 
ATOM     24  C   UNL     1      -1.572  11.885  20.331  0.00  0.00    +0.000 C 
ATOM     25  C   UNL     1      -0.127  11.859  19.800  0.00  0.00    +0.000 C 
BRANCH  25  26
ATOM     26  O   UNL     1       0.762  11.407  20.820  0.00  0.00    +0.000 OA
ATOM     27  H   UNL     1       0.388  11.693  21.670  0.00  0.00    +0.000 HD
ENDBRANCH  25  26
ENDBRANCH   3  17
TORSDOF 3
ENDMDL
MODEL 9
REMARK VINA RESULT:      -7.3      2.558      7.910
REMARK  Name = 
REMARK  3 active torsions:
REMARK  status: ('A' for Active; 'I' for Inactive)
REMARK    1  A    between atoms: C_2  and  C_14
REMARK    2  A    between atoms: N_3  and  C_4
REMARK    3  A    between atoms: C_12  and  O_13
REMARK                            x       y       z     vdW  Elec       q    Type
REMARK                         _______ _______ _______ _____ _____    ______ ____
ROOT
ATOM      1  O   UNL     1       2.363   5.003  18.766  0.00  0.00    +0.000 OA
ATOM      2  C   UNL     1       3.004   6.051  18.750  0.00  0.00    +0.000 C 
ATOM      3  N   UNL     1       4.313   6.175  18.336  0.00  0.00    +0.000 N 
ATOM      4  H   UNL     1       4.762   7.087  18.380  0.00  0.00    +0.000 HD
ENDROOT
BRANCH   2   5
ATOM      5  C   UNL     1       2.284   7.315  19.197  0.00  0.00    +0.000 A 
ATOM      6  N   UNL     1       1.938   8.249  18.368  0.00  0.00    +0.000 NA
ATOM      7  C   UNL     1       1.237   9.346  18.918  0.00  0.00    +0.000 A 
ATOM      8  C   UNL     1       0.794  10.361  18.067  0.00  0.00    +0.000 A 
ATOM      9  C   UNL     1       0.055  11.441  18.563  0.00  0.00    +0.000 A 
ATOM     10  C   UNL     1      -0.244  11.524  19.924  0.00  0.00    +0.000 A 
ATOM     11  C   UNL     1       0.201  10.532  20.793  0.00  0.00    +0.000 A 
ATOM     12  C   UNL     1       0.933   9.453  20.283  0.00  0.00    +0.000 A 
ATOM     13  C   UNL     1       1.389   8.376  21.175  0.00  0.00    +0.000 A 
ATOM     14  O   UNL     1       1.189   8.392  22.384  0.00  0.00    +0.000 OA
ATOM     15  N   UNL     1       2.046   7.353  20.550  0.00  0.00    +0.000 N 
ATOM     16  H   UNL     1       2.372   6.577  21.121  0.00  0.00    +0.000 HD
ENDBRANCH   2   5
BRANCH   3  17
ATOM     17  C   UNL     1       5.035   4.973  17.968  0.00  0.00    +0.000 C 
ATOM     18  C   UNL     1       5.446   4.868  16.524  0.00  0.00    +0.000 A 
ATOM     19  C   UNL     1       4.629   4.651  15.424  0.00  0.00    +0.000 A 
ATOM     20  C   UNL     1       5.225   4.336  14.200  0.00  0.00    +0.000 A 
ATOM     21  C   UNL     1       6.621   4.257  14.081  0.00  0.00    +0.000 A 
ATOM     22  C   UNL     1       7.439   4.518  15.180  0.00  0.00    +0.000 A 
ATOM     23  C   UNL     1       6.838   4.816  16.394  0.00  0.00    +0.000 A 
ATOM     24  C   UNL     1       7.518   5.072  17.696  0.00  0.00    +0.000 C 
ATOM     25  C   UNL     1       6.399   4.787  18.715  0.00  0.00    +0.000 C 
BRANCH  25  26
ATOM     26  O   UNL     1       6.555   5.622  19.860  0.00  0.00    +0.000 OA
ATOM     27  H   UNL     1       7.461   5.972  19.836  0.00  0.00    +0.000 HD
ENDBRANCH  25  26
ENDBRANCH   3  17
TORSDOF 3
ENDMDL
