MODEL 1
REMARK VINA RESULT:      -8.9      0.000      0.000
REMARK  Name = 
REMARK  3 active torsions:
REMARK  status: ('A' for Active; 'I' for Inactive)
REMARK    1  A    between atoms: C_4  and  N_5
REMARK    2  A    between atoms: N_5  and  C_6
REMARK    3  A    between atoms: C_8  and  C_9
REMARK                            x       y       z     vdW  Elec       q    Type
REMARK                         _______ _______ _______ _____ _____    ______ ____
ROOT
ATOM      1  C   UNL     1       4.916   5.581  17.416  0.00  0.00    +0.000 A 
ATOM      2  C   UNL     1       5.067   5.299  16.111  0.00  0.00    +0.000 A 
ATOM      3  C   UNL     1       6.402   4.797  15.666  0.00  0.00    +0.000 A 
ATOM      4  N   UNL     1       7.426   4.624  16.454  0.00  0.00    +0.000 NA
ATOM      5  C   UNL     1       7.258   4.966  17.765  0.00  0.00    +0.000 A 
ATOM      6  N   UNL     1       8.120   4.909  18.758  0.00  0.00    +0.000 NA
ATOM      7  C   UNL     1       7.412   5.370  19.824  0.00  0.00    +0.000 A 
ATOM      8  N   UNL     1       6.148   5.716  19.583  0.00  0.00    +0.000 NA
ATOM      9  N   UNL     1       6.042   5.451  18.251  0.00  0.00    +0.000 N 
ENDROOT
BRANCH   3  10
ATOM     10  C   UNL     1       6.524   4.448  14.219  0.00  0.00    +0.000 A 
ATOM     11  C   UNL     1       5.660   3.528  13.606  0.00  0.00    +0.000 A 
ATOM     12  C   UNL     1       5.796   3.234  12.247  0.00  0.00    +0.000 A 
ATOM     13  C   UNL     1       6.784   3.864  11.493  0.00  0.00    +0.000 A 
ATOM     14  C   UNL     1       7.642   4.783  12.094  0.00  0.00    +0.000 A 
ATOM     15  C   UNL     1       7.513   5.076  13.453  0.00  0.00    +0.000 A 
ENDBRANCH   3  10
BRANCH   1  16
ATOM     16  N   UNL     1       3.711   5.981  17.996  0.00  0.00    +0.000 N 
ATOM     17  H   UNL     1       3.848   6.784  18.618  0.00  0.00    +0.000 HD
BRANCH  16  21
ATOM     18  C   UNL     1       0.954   3.348  19.841  0.00  0.00    +0.000 A 
ATOM     19  C   UNL     1       1.199   3.228  18.478  0.00  0.00    +0.000 A 
ATOM     20  C   UNL     1       2.107   4.087  17.856  0.00  0.00    +0.000 A 
ATOM     21  C   UNL     1       2.786   5.079  18.584  0.00  0.00    +0.000 A 
ATOM     22  C   UNL     1       2.515   5.193  19.953  0.00  0.00    +0.000 A 
ATOM     23  C   UNL     1       1.609   4.330  20.579  0.00  0.00    +0.000 A 
ENDBRANCH  16  21
ENDBRANCH   1  16
TORSDOF 3
ENDMDL
MODEL 2
REMARK VINA RESULT:      -8.9      0.123      1.038
REMARK  Name = 
REMARK  3 active torsions:
REMARK  status: ('A' for Active; 'I' for Inactive)
REMARK    1  A    between atoms: C_4  and  N_5
REMARK    2  A    between atoms: N_5  and  C_6
REMARK    3  A    between atoms: C_8  and  C_9
REMARK                            x       y       z     vdW  Elec       q    Type
REMARK                         _______ _______ _______ _____ _____    ______ ____
ROOT
ATOM      1  C   UNL     1       4.892   5.556  17.415  0.00  0.00    +0.000 A 
ATOM      2  C   UNL     1       5.053   5.300  16.106  0.00  0.00    +0.000 A 
ATOM      3  C   UNL     1       6.397   4.829  15.657  0.00  0.00    +0.000 A 
ATOM      4  N   UNL     1       7.422   4.659  16.445  0.00  0.00    +0.000 NA
ATOM      5  C   UNL     1       7.243   4.975  17.762  0.00  0.00    +0.000 A 
ATOM      6  N   UNL     1       8.104   4.915  18.756  0.00  0.00    +0.000 NA
ATOM      7  C   UNL     1       7.384   5.345  19.828  0.00  0.00    +0.000 A 
ATOM      8  N   UNL     1       6.115   5.674  19.588  0.00  0.00    +0.000 NA
ATOM      9  N   UNL     1       6.018   5.431  18.252  0.00  0.00    +0.000 N 
ENDROOT
BRANCH   3  10
ATOM     10  C   UNL     1       6.530   4.507  14.204  0.00  0.00    +0.000 A 
ATOM     11  C   UNL     1       7.527   5.091  13.408  0.00  0.00    +0.000 A 
ATOM     12  C   UNL     1       7.630   4.756  12.055  0.00  0.00    +0.000 A 
ATOM     13  C   UNL     1       6.749   3.833  11.496  0.00  0.00    +0.000 A 
ATOM     14  C   UNL     1       5.760   3.246  12.283  0.00  0.00    +0.000 A 
ATOM     15  C   UNL     1       5.650   3.580  13.634  0.00  0.00    +0.000 A 
ENDBRANCH   3  10
BRANCH   1  16
ATOM     16  N   UNL     1       3.679   5.926  17.997  0.00  0.00    +0.000 N 
ATOM     17  H   UNL     1       3.806   6.699  18.660  0.00  0.00    +0.000 HD
BRANCH  16  21
ATOM     18  C   UNL     1       0.892   3.211  19.671  0.00  0.00    +0.000 A 
ATOM     19  C   UNL     1       1.303   3.037  18.354  0.00  0.00    +0.000 A 
ATOM     20  C   UNL     1       2.223   3.922  17.789  0.00  0.00    +0.000 A 
ATOM     21  C   UNL     1       2.749   4.995  18.529  0.00  0.00    +0.000 A 
ATOM     22  C   UNL     1       2.312   5.162  19.849  0.00  0.00    +0.000 A 
ATOM     23  C   UNL     1       1.393   4.273  20.418  0.00  0.00    +0.000 A 
ENDBRANCH  16  21
ENDBRANCH   1  16
TORSDOF 3
ENDMDL
MODEL 3
REMARK VINA RESULT:      -8.8      0.080      1.456
REMARK  Name = 
REMARK  3 active torsions:
REMARK  status: ('A' for Active; 'I' for Inactive)
REMARK    1  A    between atoms: C_4  and  N_5
REMARK    2  A    between atoms: N_5  and  C_6
REMARK    3  A    between atoms: C_8  and  C_9
REMARK                            x       y       z     vdW  Elec       q    Type
REMARK                         _______ _______ _______ _____ _____    ______ ____
ROOT
ATOM      1  C   UNL     1       4.956   5.632  17.397  0.00  0.00    +0.000 A 
ATOM      2  C   UNL     1       5.111   5.369  16.089  0.00  0.00    +0.000 A 
ATOM      3  C   UNL     1       6.439   4.851  15.644  0.00  0.00    +0.000 A 
ATOM      4  N   UNL     1       7.455   4.648  16.436  0.00  0.00    +0.000 NA
ATOM      5  C   UNL     1       7.285   4.972  17.752  0.00  0.00    +0.000 A 
ATOM      6  N   UNL     1       8.139   4.884  18.748  0.00  0.00    +0.000 NA
ATOM      7  C   UNL     1       7.432   5.341  19.817  0.00  0.00    +0.000 A 
ATOM      8  N   UNL     1       6.176   5.713  19.574  0.00  0.00    +0.000 NA
ATOM      9  N   UNL     1       6.074   5.471  18.237  0.00  0.00    +0.000 N 
ENDROOT
BRANCH   3  10
ATOM     10  C   UNL     1       6.566   4.522  14.193  0.00  0.00    +0.000 A 
ATOM     11  C   UNL     1       7.553   5.108  13.387  0.00  0.00    +0.000 A 
ATOM     12  C   UNL     1       7.650   4.767  12.036  0.00  0.00    +0.000 A 
ATOM     13  C   UNL     1       6.772   3.834  11.487  0.00  0.00    +0.000 A 
ATOM     14  C   UNL     1       5.792   3.245  12.283  0.00  0.00    +0.000 A 
ATOM     15  C   UNL     1       5.688   3.586  13.633  0.00  0.00    +0.000 A 
ENDBRANCH   3  10
BRANCH   1  16
ATOM     16  N   UNL     1       3.754   6.045  17.976  0.00  0.00    +0.000 N 
ATOM     17  H   UNL     1       3.895   6.861  18.580  0.00  0.00    +0.000 HD
BRANCH  16  21
ATOM     18  C   UNL     1       1.006   3.331  19.714  0.00  0.00    +0.000 A 
ATOM     19  C   UNL     1       1.622   4.282  20.519  0.00  0.00    +0.000 A 
ATOM     20  C   UNL     1       2.528   5.186  19.961  0.00  0.00    +0.000 A 
ATOM     21  C   UNL     1       2.833   5.154  18.589  0.00  0.00    +0.000 A 
ATOM     22  C   UNL     1       2.215   4.179  17.798  0.00  0.00    +0.000 A 
ATOM     23  C   UNL     1       1.303   3.276  18.355  0.00  0.00    +0.000 A 
ENDBRANCH  16  21
ENDBRANCH   1  16
TORSDOF 3
ENDMDL
MODEL 4
REMARK VINA RESULT:      -8.8      0.052      1.027
REMARK  Name = 
REMARK  3 active torsions:
REMARK  status: ('A' for Active; 'I' for Inactive)
REMARK    1  A    between atoms: C_4  and  N_5
REMARK    2  A    between atoms: N_5  and  C_6
REMARK    3  A    between atoms: C_8  and  C_9
REMARK                            x       y       z     vdW  Elec       q    Type
REMARK                         _______ _______ _______ _____ _____    ______ ____
ROOT
ATOM      1  C   UNL     1       4.903   5.615  17.395  0.00  0.00    +0.000 A 
ATOM      2  C   UNL     1       5.056   5.332  16.091  0.00  0.00    +0.000 A 
ATOM      3  C   UNL     1       6.385   4.810  15.650  0.00  0.00    +0.000 A 
ATOM      4  N   UNL     1       7.402   4.620  16.443  0.00  0.00    +0.000 NA
ATOM      5  C   UNL     1       7.233   4.963  17.754  0.00  0.00    +0.000 A 
ATOM      6  N   UNL     1       8.090   4.890  18.751  0.00  0.00    +0.000 NA
ATOM      7  C   UNL     1       7.384   5.361  19.814  0.00  0.00    +0.000 A 
ATOM      8  N   UNL     1       6.127   5.728  19.568  0.00  0.00    +0.000 NA
ATOM      9  N   UNL     1       6.023   5.466  18.235  0.00  0.00    +0.000 N 
ENDROOT
BRANCH   3  10
ATOM     10  C   UNL     1       6.509   4.461  14.204  0.00  0.00    +0.000 A 
ATOM     11  C   UNL     1       5.617   3.576  13.579  0.00  0.00    +0.000 A 
ATOM     12  C   UNL     1       5.755   3.282  12.220  0.00  0.00    +0.000 A 
ATOM     13  C   UNL     1       6.774   3.876  11.479  0.00  0.00    +0.000 A 
ATOM     14  C   UNL     1       7.660   4.759  12.092  0.00  0.00    +0.000 A 
ATOM     15  C   UNL     1       7.529   5.053  13.450  0.00  0.00    +0.000 A 
ENDBRANCH   3  10
BRANCH   1  16
ATOM     16  N   UNL     1       3.702   6.034  17.969  0.00  0.00    +0.000 N 
ATOM     17  H   UNL     1       3.841   6.864  18.554  0.00  0.00    +0.000 HD
BRANCH  16  21
ATOM     18  C   UNL     1       0.978   3.344  19.782  0.00  0.00    +0.000 A 
ATOM     19  C   UNL     1       1.579   4.328  20.559  0.00  0.00    +0.000 A 
ATOM     20  C   UNL     1       2.477   5.224  19.976  0.00  0.00    +0.000 A 
ATOM     21  C   UNL     1       2.789   5.152  18.607  0.00  0.00    +0.000 A 
ATOM     22  C   UNL     1       2.185   4.146  17.844  0.00  0.00    +0.000 A 
ATOM     23  C   UNL     1       1.281   3.250  18.427  0.00  0.00    +0.000 A 
ENDBRANCH  16  21
ENDBRANCH   1  16
TORSDOF 3
ENDMDL
MODEL 5
REMARK VINA RESULT:      -8.4      2.903      6.799
REMARK  Name = 
REMARK  3 active torsions:
REMARK  status: ('A' for Active; 'I' for Inactive)
REMARK    1  A    between atoms: C_4  and  N_5
REMARK    2  A    between atoms: N_5  and  C_6
REMARK    3  A    between atoms: C_8  and  C_9
REMARK                            x       y       z     vdW  Elec       q    Type
REMARK                         _______ _______ _______ _____ _____    ______ ____
ROOT
ATOM      1  C   UNL     1       4.183   4.544  19.289  0.00  0.00    +0.000 A 
ATOM      2  C   UNL     1       3.735   5.774  18.985  0.00  0.00    +0.000 A 
ATOM      3  C   UNL     1       2.519   6.261  19.702  0.00  0.00    +0.000 A 
ATOM      4  N   UNL     1       1.861   5.571  20.593  0.00  0.00    +0.000 NA
ATOM      5  C   UNL     1       2.310   4.306  20.845  0.00  0.00    +0.000 A 
ATOM      6  N   UNL     1       1.830   3.402  21.673  0.00  0.00    +0.000 NA
ATOM      7  C   UNL     1       2.668   2.343  21.510  0.00  0.00    +0.000 A 
ATOM      8  N   UNL     1       3.659   2.508  20.635  0.00  0.00    +0.000 NA
ATOM      9  N   UNL     1       3.435   3.781  20.205  0.00  0.00    +0.000 N 
ENDROOT
BRANCH   3  10
ATOM     10  C   UNL     1       2.073   7.649  19.377  0.00  0.00    +0.000 A 
ATOM     11  C   UNL     1       2.306   8.222  18.117  0.00  0.00    +0.000 A 
ATOM     12  C   UNL     1       1.864   9.518  17.844  0.00  0.00    +0.000 A 
ATOM     13  C   UNL     1       1.180  10.242  18.818  0.00  0.00    +0.000 A 
ATOM     14  C   UNL     1       0.942   9.677  20.070  0.00  0.00    +0.000 A 
ATOM     15  C   UNL     1       1.386   8.383  20.349  0.00  0.00    +0.000 A 
ENDBRANCH   3  10
BRANCH   1  16
ATOM     16  N   UNL     1       5.348   3.983  18.764  0.00  0.00    +0.000 N 
ATOM     17  H   UNL     1       6.130   4.070  19.421  0.00  0.00    +0.000 HD
BRANCH  16  21
ATOM     18  C   UNL     1       6.624   4.701  14.789  0.00  0.00    +0.000 A 
ATOM     19  C   UNL     1       7.497   4.961  15.840  0.00  0.00    +0.000 A 
ATOM     20  C   UNL     1       7.092   4.727  17.155  0.00  0.00    +0.000 A 
ATOM     21  C   UNL     1       5.810   4.229  17.443  0.00  0.00    +0.000 A 
ATOM     22  C   UNL     1       4.940   3.988  16.373  0.00  0.00    +0.000 A 
ATOM     23  C   UNL     1       5.346   4.217  15.054  0.00  0.00    +0.000 A 
ENDBRANCH  16  21
ENDBRANCH   1  16
TORSDOF 3
ENDMDL
MODEL 6
REMARK VINA RESULT:      -8.4      2.911      6.771
REMARK  Name = 
REMARK  3 active torsions:
REMARK  status: ('A' for Active; 'I' for Inactive)
REMARK    1  A    between atoms: C_4  and  N_5
REMARK    2  A    between atoms: N_5  and  C_6
REMARK    3  A    between atoms: C_8  and  C_9
REMARK                            x       y       z     vdW  Elec       q    Type
REMARK                         _______ _______ _______ _____ _____    ______ ____
ROOT
ATOM      1  C   UNL     1       4.113   4.571  19.193  0.00  0.00    +0.000 A 
ATOM      2  C   UNL     1       3.669   5.806  18.906  0.00  0.00    +0.000 A 
ATOM      3  C   UNL     1       2.495   6.313  19.678  0.00  0.00    +0.000 A 
ATOM      4  N   UNL     1       1.870   5.635  20.600  0.00  0.00    +0.000 NA
ATOM      5  C   UNL     1       2.311   4.364  20.834  0.00  0.00    +0.000 A 
ATOM      6  N   UNL     1       1.856   3.469  21.686  0.00  0.00    +0.000 NA
ATOM      7  C   UNL     1       2.670   2.397  21.488  0.00  0.00    +0.000 A 
ATOM      8  N   UNL     1       3.622   2.545  20.567  0.00  0.00    +0.000 NA
ATOM      9  N   UNL     1       3.396   3.820  20.144  0.00  0.00    +0.000 N 
ENDROOT
BRANCH   3  10
ATOM     10  C   UNL     1       2.056   7.706  19.369  0.00  0.00    +0.000 A 
ATOM     11  C   UNL     1       2.303   8.298  18.121  0.00  0.00    +0.000 A 
ATOM     12  C   UNL     1       1.866   9.600  17.863  0.00  0.00    +0.000 A 
ATOM     13  C   UNL     1       1.174  10.311  18.842  0.00  0.00    +0.000 A 
ATOM     14  C   UNL     1       0.922   9.727  20.082  0.00  0.00    +0.000 A 
ATOM     15  C   UNL     1       1.360   8.428  20.346  0.00  0.00    +0.000 A 
ENDBRANCH   3  10
BRANCH   1  16
ATOM     16  N   UNL     1       5.244   3.991  18.616  0.00  0.00    +0.000 N 
ATOM     17  H   UNL     1       6.044   4.023  19.256  0.00  0.00    +0.000 HD
BRANCH  16  21
ATOM     18  C   UNL     1       6.649   4.851  14.714  0.00  0.00    +0.000 A 
ATOM     19  C   UNL     1       5.375   4.320  14.875  0.00  0.00    +0.000 A 
ATOM     20  C   UNL     1       4.896   4.034  16.154  0.00  0.00    +0.000 A 
ATOM     21  C   UNL     1       5.681   4.273  17.294  0.00  0.00    +0.000 A 
ATOM     22  C   UNL     1       6.968   4.794  17.111  0.00  0.00    +0.000 A 
ATOM     23  C   UNL     1       7.447   5.086  15.830  0.00  0.00    +0.000 A 
ENDBRANCH  16  21
ENDBRANCH   1  16
TORSDOF 3
ENDMDL
MODEL 7
REMARK VINA RESULT:      -8.3      2.930      6.809
REMARK  Name = 
REMARK  3 active torsions:
REMARK  status: ('A' for Active; 'I' for Inactive)
REMARK    1  A    between atoms: C_4  and  N_5
REMARK    2  A    between atoms: N_5  and  C_6
REMARK    3  A    between atoms: C_8  and  C_9
REMARK                            x       y       z     vdW  Elec       q    Type
REMARK                         _______ _______ _______ _____ _____    ______ ____
ROOT
ATOM      1  C   UNL     1       4.189   4.723  19.377  0.00  0.00    +0.000 A 
ATOM      2  C   UNL     1       3.718   5.947  19.089  0.00  0.00    +0.000 A 
ATOM      3  C   UNL     1       2.448   6.371  19.751  0.00  0.00    +0.000 A 
ATOM      4  N   UNL     1       1.766   5.631  20.580  0.00  0.00    +0.000 NA
ATOM      5  C   UNL     1       2.242   4.372  20.816  0.00  0.00    +0.000 A 
ATOM      6  N   UNL     1       1.746   3.426  21.585  0.00  0.00    +0.000 NA
ATOM      7  C   UNL     1       2.627   2.400  21.436  0.00  0.00    +0.000 A 
ATOM      8  N   UNL     1       3.659   2.626  20.624  0.00  0.00    +0.000 NA
ATOM      9  N   UNL     1       3.417   3.905  20.224  0.00  0.00    +0.000 N 
ENDROOT
BRANCH   3  10
ATOM     10  C   UNL     1       1.976   7.755  19.447  0.00  0.00    +0.000 A 
ATOM     11  C   UNL     1       1.300   8.530  20.401  0.00  0.00    +0.000 A 
ATOM     12  C   UNL     1       0.885   9.826  20.085  0.00  0.00    +0.000 A 
ATOM     13  C   UNL     1       1.151  10.357  18.824  0.00  0.00    +0.000 A 
ATOM     14  C   UNL     1       1.826   9.593  17.874  0.00  0.00    +0.000 A 
ATOM     15  C   UNL     1       2.240   8.296  18.183  0.00  0.00    +0.000 A 
ENDBRANCH   3  10
BRANCH   1  16
ATOM     16  N   UNL     1       5.399   4.217  18.901  0.00  0.00    +0.000 N 
ATOM     17  H   UNL     1       6.174   4.454  19.530  0.00  0.00    +0.000 HD
BRANCH  16  21
ATOM     18  C   UNL     1       6.573   4.592  14.848  0.00  0.00    +0.000 A 
ATOM     19  C   UNL     1       7.483   4.905  15.850  0.00  0.00    +0.000 A 
ATOM     20  C   UNL     1       7.113   4.784  17.191  0.00  0.00    +0.000 A 
ATOM     21  C   UNL     1       5.827   4.348  17.553  0.00  0.00    +0.000 A 
ATOM     22  C   UNL     1       4.919   4.051  16.529  0.00  0.00    +0.000 A 
ATOM     23  C   UNL     1       5.290   4.168  15.186  0.00  0.00    +0.000 A 
ENDBRANCH  16  21
ENDBRANCH   1  16
TORSDOF 3
ENDMDL
MODEL 8
REMARK VINA RESULT:      -8.3      2.923      6.765
REMARK  Name = 
REMARK  3 active torsions:
REMARK  status: ('A' for Active; 'I' for Inactive)
REMARK    1  A    between atoms: C_4  and  N_5
REMARK    2  A    between atoms: N_5  and  C_6
REMARK    3  A    between atoms: C_8  and  C_9
REMARK                            x       y       z     vdW  Elec       q    Type
REMARK                         _______ _______ _______ _____ _____    ______ ____
ROOT
ATOM      1  C   UNL     1       4.120   4.677  19.266  0.00  0.00    +0.000 A 
ATOM      2  C   UNL     1       3.657   5.906  18.986  0.00  0.00    +0.000 A 
ATOM      3  C   UNL     1       2.421   6.355  19.694  0.00  0.00    +0.000 A 
ATOM      4  N   UNL     1       1.760   5.632  20.554  0.00  0.00    +0.000 NA
ATOM      5  C   UNL     1       2.225   4.368  20.782  0.00  0.00    +0.000 A 
ATOM      6  N   UNL     1       1.745   3.436  21.578  0.00  0.00    +0.000 NA
ATOM      7  C   UNL     1       2.603   2.394  21.403  0.00  0.00    +0.000 A 
ATOM      8  N   UNL     1       3.607   2.598  20.550  0.00  0.00    +0.000 NA
ATOM      9  N   UNL     1       3.369   3.878  20.149  0.00  0.00    +0.000 N 
ENDROOT
BRANCH   3  10
ATOM     10  C   UNL     1       1.959   7.743  19.396  0.00  0.00    +0.000 A 
ATOM     11  C   UNL     1       1.305   8.526  20.360  0.00  0.00    +0.000 A 
ATOM     12  C   UNL     1       0.898   9.826  20.050  0.00  0.00    +0.000 A 
ATOM     13  C   UNL     1       1.151  10.353  18.785  0.00  0.00    +0.000 A 
ATOM     14  C   UNL     1       1.803   9.583  17.825  0.00  0.00    +0.000 A 
ATOM     15  C   UNL     1       2.208   8.282  18.128  0.00  0.00    +0.000 A 
ENDBRANCH   3  10
BRANCH   1  16
ATOM     16  N   UNL     1       5.303   4.148  18.748  0.00  0.00    +0.000 N 
ATOM     17  H   UNL     1       6.094   4.325  19.375  0.00  0.00    +0.000 HD
BRANCH  16  21
ATOM     18  C   UNL     1       6.638   4.700  14.766  0.00  0.00    +0.000 A 
ATOM     19  C   UNL     1       5.364   4.192  14.991  0.00  0.00    +0.000 A 
ATOM     20  C   UNL     1       4.908   4.006  16.297  0.00  0.00    +0.000 A 
ATOM     21  C   UNL     1       5.717   4.327  17.401  0.00  0.00    +0.000 A 
ATOM     22  C   UNL     1       7.002   4.824  17.154  0.00  0.00    +0.000 A 
ATOM     23  C   UNL     1       7.458   5.014  15.846  0.00  0.00    +0.000 A 
ENDBRANCH  16  21
ENDBRANCH   1  16
TORSDOF 3
ENDMDL
MODEL 9
REMARK VINA RESULT:      -8.3      1.136      1.869
REMARK  Name = 
REMARK  3 active torsions:
REMARK  status: ('A' for Active; 'I' for Inactive)
REMARK    1  A    between atoms: C_4  and  N_5
REMARK    2  A    between atoms: N_5  and  C_6
REMARK    3  A    between atoms: C_8  and  C_9
REMARK                            x       y       z     vdW  Elec       q    Type
REMARK                         _______ _______ _______ _____ _____    ______ ____
ROOT
ATOM      1  C   UNL     1       5.603   3.784  17.819  0.00  0.00    +0.000 A 
ATOM      2  C   UNL     1       5.613   3.686  16.480  0.00  0.00    +0.000 A 
ATOM      3  C   UNL     1       6.555   4.571  15.731  0.00  0.00    +0.000 A 
ATOM      4  N   UNL     1       7.357   5.435  16.289  0.00  0.00    +0.000 NA
ATOM      5  C   UNL     1       7.289   5.548  17.649  0.00  0.00    +0.000 A 
ATOM      6  N   UNL     1       7.964   6.342  18.452  0.00  0.00    +0.000 NA
ATOM      7  C   UNL     1       7.489   6.026  19.688  0.00  0.00    +0.000 A 
ATOM      8  N   UNL     1       6.554   5.077  19.731  0.00  0.00    +0.000 NA
ATOM      9  N   UNL     1       6.425   4.760  18.413  0.00  0.00    +0.000 N 
ENDROOT
BRANCH   3  10
ATOM     10  C   UNL     1       6.577   4.404  14.247  0.00  0.00    +0.000 A 
ATOM     11  C   UNL     1       7.531   5.049  13.447  0.00  0.00    +0.000 A 
ATOM     12  C   UNL     1       7.530   4.860  12.062  0.00  0.00    +0.000 A 
ATOM     13  C   UNL     1       6.586   4.021  11.474  0.00  0.00    +0.000 A 
ATOM     14  C   UNL     1       5.638   3.373  12.264  0.00  0.00    +0.000 A 
ATOM     15  C   UNL     1       5.633   3.562  13.648  0.00  0.00    +0.000 A 
ENDBRANCH   3  10
BRANCH   1  16
ATOM     16  N   UNL     1       4.838   2.971  18.658  0.00  0.00    +0.000 N 
ATOM     17  H   UNL     1       4.931   1.983  18.402  0.00  0.00    +0.000 HD
BRANCH  16  21
ATOM     18  C   UNL     1       0.779   3.708  19.617  0.00  0.00    +0.000 A 
ATOM     19  C   UNL     1       1.772   4.435  20.264  0.00  0.00    +0.000 A 
ATOM     20  C   UNL     1       3.115   4.206  19.957  0.00  0.00    +0.000 A 
ATOM     21  C   UNL     1       3.488   3.248  18.999  0.00  0.00    +0.000 A 
ATOM     22  C   UNL     1       2.474   2.515  18.369  0.00  0.00    +0.000 A 
ATOM     23  C   UNL     1       1.128   2.747  18.673  0.00  0.00    +0.000 A 
ENDBRANCH  16  21
ENDBRANCH   1  16
TORSDOF 3
ENDMDL
