MODEL 1
REMARK VINA RESULT:      -8.9      0.000      0.000
REMARK  Name = 
REMARK  5 active torsions:
REMARK  status: ('A' for Active; 'I' for Inactive)
REMARK    1  A    between atoms: C_1  and  C_2
REMARK    2  A    between atoms: C_5  and  C_6
REMARK    3  A    between atoms: C_9  and  C_10
REMARK    4  A    between atoms: C_15  and  C_16
REMARK    5  A    between atoms: N_18  and  C_19
REMARK                            x       y       z     vdW  Elec       q    Type
REMARK                         _______ _______ _______ _____ _____    ______ ____
ROOT
ATOM      1  C   UNL     1       2.328   4.783  20.149  0.00  0.00    +0.000 A 
ATOM      2  C   UNL     1       1.334   4.105  20.879  0.00  0.00    +0.000 A 
ATOM      3  C   UNL     1       1.395   2.722  21.062  0.00  0.00    +0.000 A 
ATOM      4  C   UNL     1       2.444   1.989  20.515  0.00  0.00    +0.000 A 
ATOM      5  C   UNL     1       3.461   2.643  19.817  0.00  0.00    +0.000 A 
ATOM      6  C   UNL     1       3.417   4.038  19.642  0.00  0.00    +0.000 A 
ENDROOT
BRANCH   1  10
ATOM      7  C   UNL     1       1.460   8.229  20.205  0.00  0.00    +0.000 A 
ATOM      8  C   UNL     1       2.175   8.148  19.026  0.00  0.00    +0.000 A 
ATOM      9  N   UNL     1       2.566   6.860  18.786  0.00  0.00    +0.000 NA
ATOM     10  C   UNL     1       2.165   6.204  19.856  0.00  0.00    +0.000 A 
ATOM     11  O   UNL     1       1.440   6.966  20.748  0.00  0.00    +0.000 OA
BRANCH   7  16
ATOM     12  C   UNL     1      -1.326  12.409  23.086  0.00  0.00    +0.000 C 
ATOM     13  C   UNL     1      -0.566  11.351  22.345  0.00  0.00    +0.000 A 
ATOM     14  C   UNL     1      -0.345  10.101  22.926  0.00  0.00    +0.000 A 
ATOM     15  C   UNL     1       0.328   9.102  22.220  0.00  0.00    +0.000 A 
ATOM     16  C   UNL     1       0.794   9.318  20.912  0.00  0.00    +0.000 A 
ATOM     17  C   UNL     1       0.587  10.577  20.340  0.00  0.00    +0.000 A 
ATOM     18  C   UNL     1      -0.088  11.581  21.050  0.00  0.00    +0.000 A 
ENDBRANCH   7  16
ENDBRANCH   1  10
BRANCH   6  19
ATOM     19  C   UNL     1       4.618   4.718  19.075  0.00  0.00    +0.000 C 
ATOM     20  O   UNL     1       5.461   5.145  19.859  0.00  0.00    +0.000 OA
ATOM     21  N   UNL     1       4.718   4.745  17.692  0.00  0.00    +0.000 N 
ATOM     22  H   UNL     1       3.970   4.378  17.121  0.00  0.00    +0.000 HD
BRANCH  21  23
ATOM     23  C   UNL     1       5.792   5.323  17.029  0.00  0.00    +0.000 A 
ATOM     24  C   UNL     1       6.645   4.813  16.024  0.00  0.00    +0.000 A 
ATOM     25  N   UNL     1       7.579   5.694  15.647  0.00  0.00    +0.000 NA
ATOM     26  N   UNL     1       7.331   6.761  16.420  0.00  0.00    +0.000 N 
ATOM     27  C   UNL     1       6.258   6.597  17.253  0.00  0.00    +0.000 A 
ATOM     28  H   UNL     1       7.941   7.568  16.324  0.00  0.00    +0.000 HD
ENDBRANCH  21  23
ENDBRANCH   6  19
TORSDOF 4
ENDMDL
MODEL 2
REMARK VINA RESULT:      -8.9      0.174      1.192
REMARK  Name = 
REMARK  5 active torsions:
REMARK  status: ('A' for Active; 'I' for Inactive)
REMARK    1  A    between atoms: C_1  and  C_2
REMARK    2  A    between atoms: C_5  and  C_6
REMARK    3  A    between atoms: C_9  and  C_10
REMARK    4  A    between atoms: C_15  and  C_16
REMARK    5  A    between atoms: N_18  and  C_19
REMARK                            x       y       z     vdW  Elec       q    Type
REMARK                         _______ _______ _______ _____ _____    ______ ____
ROOT
ATOM      1  C   UNL     1       2.312   4.837  20.101  0.00  0.00    +0.000 A 
ATOM      2  C   UNL     1       1.293   4.128  20.764  0.00  0.00    +0.000 A 
ATOM      3  C   UNL     1       1.350   2.738  20.889  0.00  0.00    +0.000 A 
ATOM      4  C   UNL     1       2.420   2.031  20.349  0.00  0.00    +0.000 A 
ATOM      5  C   UNL     1       3.460   2.715  19.717  0.00  0.00    +0.000 A 
ATOM      6  C   UNL     1       3.420   4.116  19.602  0.00  0.00    +0.000 A 
ENDROOT
BRANCH   1  10
ATOM      7  C   UNL     1       1.416   8.273  20.263  0.00  0.00    +0.000 A 
ATOM      8  C   UNL     1       2.203   8.251  19.128  0.00  0.00    +0.000 A 
ATOM      9  N   UNL     1       2.619   6.977  18.854  0.00  0.00    +0.000 NA
ATOM     10  C   UNL     1       2.157   6.271  19.865  0.00  0.00    +0.000 A 
ATOM     11  O   UNL     1       1.371   6.986  20.744  0.00  0.00    +0.000 OA
BRANCH   7  16
ATOM     12  C   UNL     1      -1.295  12.586  23.016  0.00  0.00    +0.000 C 
ATOM     13  C   UNL     1      -0.633  11.448  22.301  0.00  0.00    +0.000 A 
ATOM     14  C   UNL     1      -0.199  11.595  20.983  0.00  0.00    +0.000 A 
ATOM     15  C   UNL     1       0.454  10.548  20.331  0.00  0.00    +0.000 A 
ATOM     16  C   UNL     1       0.698   9.324  20.977  0.00  0.00    +0.000 A 
ATOM     17  C   UNL     1       0.245   9.172  22.291  0.00  0.00    +0.000 A 
ATOM     18  C   UNL     1      -0.412  10.225  22.945  0.00  0.00    +0.000 A 
ENDBRANCH   7  16
ENDBRANCH   1  10
BRANCH   6  19
ATOM     19  C   UNL     1       4.639   4.821  19.109  0.00  0.00    +0.000 C 
ATOM     20  O   UNL     1       5.451   5.215  19.942  0.00  0.00    +0.000 OA
ATOM     21  N   UNL     1       4.790   4.906  17.733  0.00  0.00    +0.000 N 
ATOM     22  H   UNL     1       4.065   4.562  17.120  0.00  0.00    +0.000 HD
BRANCH  21  23
ATOM     23  C   UNL     1       5.886   5.513  17.136  0.00  0.00    +0.000 A 
ATOM     24  C   UNL     1       6.544   6.731  17.427  0.00  0.00    +0.000 A 
ATOM     25  N   UNL     1       7.571   6.970  16.603  0.00  0.00    +0.000 NA
ATOM     26  N   UNL     1       7.560   5.914  15.778  0.00  0.00    +0.000 N 
ATOM     27  C   UNL     1       6.581   5.002  16.066  0.00  0.00    +0.000 A 
ATOM     28  H   UNL     1       8.253   5.885  15.035  0.00  0.00    +0.000 HD
ENDBRANCH  21  23
ENDBRANCH   6  19
TORSDOF 4
ENDMDL
MODEL 3
REMARK VINA RESULT:      -8.7      1.000      1.201
REMARK  Name = 
REMARK  5 active torsions:
REMARK  status: ('A' for Active; 'I' for Inactive)
REMARK    1  A    between atoms: C_1  and  C_2
REMARK    2  A    between atoms: C_5  and  C_6
REMARK    3  A    between atoms: C_9  and  C_10
REMARK    4  A    between atoms: C_15  and  C_16
REMARK    5  A    between atoms: N_18  and  C_19
REMARK                            x       y       z     vdW  Elec       q    Type
REMARK                         _______ _______ _______ _____ _____    ______ ____
ROOT
ATOM      1  C   UNL     1       2.772   4.939  20.063  0.00  0.00    +0.000 A 
ATOM      2  C   UNL     1       1.801   4.500  20.982  0.00  0.00    +0.000 A 
ATOM      3  C   UNL     1       1.875   3.227  21.551  0.00  0.00    +0.000 A 
ATOM      4  C   UNL     1       2.914   2.366  21.209  0.00  0.00    +0.000 A 
ATOM      5  C   UNL     1       3.909   2.792  20.326  0.00  0.00    +0.000 A 
ATOM      6  C   UNL     1       3.852   4.079  19.762  0.00  0.00    +0.000 A 
ENDROOT
BRANCH   1  10
ATOM      7  C   UNL     1       1.854   8.246  19.139  0.00  0.00    +0.000 A 
ATOM      8  C   UNL     1       2.586   7.849  18.037  0.00  0.00    +0.000 A 
ATOM      9  N   UNL     1       2.999   6.553  18.173  0.00  0.00    +0.000 NA
ATOM     10  C   UNL     1       2.593   6.218  19.381  0.00  0.00    +0.000 A 
ATOM     11  O   UNL     1       1.845   7.187  20.015  0.00  0.00    +0.000 OA
BRANCH   7  16
ATOM     12  C   UNL     1      -1.054  13.017  20.659  0.00  0.00    +0.000 C 
ATOM     13  C   UNL     1      -0.263  11.805  20.274  0.00  0.00    +0.000 A 
ATOM     14  C   UNL     1      -0.261  10.672  21.090  0.00  0.00    +0.000 A 
ATOM     15  C   UNL     1       0.444   9.528  20.711  0.00  0.00    +0.000 A 
ATOM     16  C   UNL     1       1.163   9.478  19.505  0.00  0.00    +0.000 A 
ATOM     17  C   UNL     1       1.175  10.621  18.699  0.00  0.00    +0.000 A 
ATOM     18  C   UNL     1       0.467  11.770  19.080  0.00  0.00    +0.000 A 
ENDBRANCH   7  16
ENDBRANCH   1  10
BRANCH   6  19
ATOM     19  C   UNL     1       5.034   4.566  18.993  0.00  0.00    +0.000 C 
ATOM     20  O   UNL     1       6.015   4.947  19.626  0.00  0.00    +0.000 OA
ATOM     21  N   UNL     1       4.953   4.478  17.611  0.00  0.00    +0.000 N 
ATOM     22  H   UNL     1       4.100   4.161  17.171  0.00  0.00    +0.000 HD
BRANCH  21  23
ATOM     23  C   UNL     1       5.985   4.874  16.773  0.00  0.00    +0.000 A 
ATOM     24  C   UNL     1       6.642   4.190  15.723  0.00  0.00    +0.000 A 
ATOM     25  N   UNL     1       7.606   4.924  15.155  0.00  0.00    +0.000 NA
ATOM     26  N   UNL     1       7.575   6.070  15.850  0.00  0.00    +0.000 N 
ATOM     27  C   UNL     1       6.609   6.098  16.818  0.00  0.00    +0.000 A 
ATOM     28  H   UNL     1       8.249   6.790  15.607  0.00  0.00    +0.000 HD
ENDBRANCH  21  23
ENDBRANCH   6  19
TORSDOF 4
ENDMDL
MODEL 4
REMARK VINA RESULT:      -8.7      2.359      7.504
REMARK  Name = 
REMARK  5 active torsions:
REMARK  status: ('A' for Active; 'I' for Inactive)
REMARK    1  A    between atoms: C_1  and  C_2
REMARK    2  A    between atoms: C_5  and  C_6
REMARK    3  A    between atoms: C_9  and  C_10
REMARK    4  A    between atoms: C_15  and  C_16
REMARK    5  A    between atoms: N_18  and  C_19
REMARK                            x       y       z     vdW  Elec       q    Type
REMARK                         _______ _______ _______ _____ _____    ______ ____
ROOT
ATOM      1  C   UNL     1       3.724   3.786  19.897  0.00  0.00    +0.000 A 
ATOM      2  C   UNL     1       3.835   2.559  20.578  0.00  0.00    +0.000 A 
ATOM      3  C   UNL     1       2.840   2.136  21.462  0.00  0.00    +0.000 A 
ATOM      4  C   UNL     1       1.721   2.933  21.689  0.00  0.00    +0.000 A 
ATOM      5  C   UNL     1       1.572   4.137  20.999  0.00  0.00    +0.000 A 
ATOM      6  C   UNL     1       2.561   4.562  20.093  0.00  0.00    +0.000 A 
ENDROOT
BRANCH   1  10
ATOM      7  C   UNL     1       5.974   4.571  17.259  0.00  0.00    +0.000 A 
ATOM      8  C   UNL     1       6.637   5.101  18.348  0.00  0.00    +0.000 A 
ATOM      9  N   UNL     1       5.945   4.855  19.502  0.00  0.00    +0.000 NA
ATOM     10  C   UNL     1       4.842   4.265  19.087  0.00  0.00    +0.000 A 
ATOM     11  O   UNL     1       4.808   4.015  17.732  0.00  0.00    +0.000 OA
BRANCH   7  16
ATOM     12  C   UNL     1       7.060   4.125  11.589  0.00  0.00    +0.000 C 
ATOM     13  C   UNL     1       6.769   4.284  13.050  0.00  0.00    +0.000 A 
ATOM     14  C   UNL     1       5.644   3.682  13.617  0.00  0.00    +0.000 A 
ATOM     15  C   UNL     1       5.394   3.796  14.985  0.00  0.00    +0.000 A 
ATOM     16  C   UNL     1       6.261   4.510  15.830  0.00  0.00    +0.000 A 
ATOM     17  C   UNL     1       7.377   5.129  15.255  0.00  0.00    +0.000 A 
ATOM     18  C   UNL     1       7.627   5.014  13.880  0.00  0.00    +0.000 A 
ENDBRANCH   7  16
ENDBRANCH   1  10
BRANCH   6  19
ATOM     19  C   UNL     1       2.267   5.742  19.229  0.00  0.00    +0.000 C 
ATOM     20  O   UNL     1       1.952   5.535  18.060  0.00  0.00    +0.000 OA
ATOM     21  N   UNL     1       2.301   6.985  19.845  0.00  0.00    +0.000 N 
ATOM     22  H   UNL     1       2.581   7.064  20.813  0.00  0.00    +0.000 HD
BRANCH  21  23
ATOM     23  C   UNL     1       2.027   8.165  19.168  0.00  0.00    +0.000 A 
ATOM     24  C   UNL     1       2.494   8.650  17.925  0.00  0.00    +0.000 A 
ATOM     25  N   UNL     1       1.993   9.854  17.622  0.00  0.00    +0.000 NA
ATOM     26  N   UNL     1       1.219  10.143  18.677  0.00  0.00    +0.000 N 
ATOM     27  C   UNL     1       1.190   9.155  19.624  0.00  0.00    +0.000 A 
ATOM     28  H   UNL     1       0.740  11.039  18.683  0.00  0.00    +0.000 HD
ENDBRANCH  21  23
ENDBRANCH   6  19
TORSDOF 4
ENDMDL
MODEL 5
REMARK VINA RESULT:      -8.5      0.824      1.251
REMARK  Name = 
REMARK  5 active torsions:
REMARK  status: ('A' for Active; 'I' for Inactive)
REMARK    1  A    between atoms: C_1  and  C_2
REMARK    2  A    between atoms: C_5  and  C_6
REMARK    3  A    between atoms: C_9  and  C_10
REMARK    4  A    between atoms: C_15  and  C_16
REMARK    5  A    between atoms: N_18  and  C_19
REMARK                            x       y       z     vdW  Elec       q    Type
REMARK                         _______ _______ _______ _____ _____    ______ ____
ROOT
ATOM      1  C   UNL     1       2.481   4.657  20.161  0.00  0.00    +0.000 A 
ATOM      2  C   UNL     1       1.902   4.091  21.312  0.00  0.00    +0.000 A 
ATOM      3  C   UNL     1       1.949   2.713  21.536  0.00  0.00    +0.000 A 
ATOM      4  C   UNL     1       2.567   1.875  20.612  0.00  0.00    +0.000 A 
ATOM      5  C   UNL     1       3.179   2.417  19.480  0.00  0.00    +0.000 A 
ATOM      6  C   UNL     1       3.152   3.805  19.256  0.00  0.00    +0.000 A 
ENDROOT
BRANCH   1  10
ATOM      7  C   UNL     1       1.521   8.079  20.236  0.00  0.00    +0.000 A 
ATOM      8  C   UNL     1       2.294   8.038  19.092  0.00  0.00    +0.000 A 
ATOM      9  N   UNL     1       2.730   6.766  18.849  0.00  0.00    +0.000 NA
ATOM     10  C   UNL     1       2.295   6.080  19.886  0.00  0.00    +0.000 A 
ATOM     11  O   UNL     1       1.508   6.806  20.755  0.00  0.00    +0.000 OA
BRANCH   7  16
ATOM     12  C   UNL     1      -1.233  12.418  22.903  0.00  0.00    +0.000 C 
ATOM     13  C   UNL     1      -0.559  11.273  22.212  0.00  0.00    +0.000 A 
ATOM     14  C   UNL     1      -0.130  11.397  20.889  0.00  0.00    +0.000 A 
ATOM     15  C   UNL     1       0.533  10.343  20.258  0.00  0.00    +0.000 A 
ATOM     16  C   UNL     1       0.794   9.137  20.929  0.00  0.00    +0.000 A 
ATOM     17  C   UNL     1       0.346   9.008  22.248  0.00  0.00    +0.000 A 
ATOM     18  C   UNL     1      -0.321  10.067  22.881  0.00  0.00    +0.000 A 
ENDBRANCH   7  16
ENDBRANCH   1  10
BRANCH   6  19
ATOM     19  C   UNL     1       3.989   4.359  18.152  0.00  0.00    +0.000 C 
ATOM     20  O   UNL     1       3.491   4.426  17.031  0.00  0.00    +0.000 OA
ATOM     21  N   UNL     1       5.247   4.826  18.504  0.00  0.00    +0.000 N 
ATOM     22  H   UNL     1       5.581   4.721  19.452  0.00  0.00    +0.000 HD
BRANCH  21  23
ATOM     23  C   UNL     1       6.122   5.387  17.585  0.00  0.00    +0.000 A 
ATOM     24  C   UNL     1       6.758   4.829  16.451  0.00  0.00    +0.000 A 
ATOM     25  N   UNL     1       7.546   5.708  15.820  0.00  0.00    +0.000 NA
ATOM     26  N   UNL     1       7.424   6.821  16.557  0.00  0.00    +0.000 N 
ATOM     27  C   UNL     1       6.568   6.687  17.615  0.00  0.00    +0.000 A 
ATOM     28  H   UNL     1       7.961   7.636  16.276  0.00  0.00    +0.000 HD
ENDBRANCH  21  23
ENDBRANCH   6  19
TORSDOF 4
ENDMDL
MODEL 6
REMARK VINA RESULT:      -8.5      0.954      1.340
REMARK  Name = 
REMARK  5 active torsions:
REMARK  status: ('A' for Active; 'I' for Inactive)
REMARK    1  A    between atoms: C_1  and  C_2
REMARK    2  A    between atoms: C_5  and  C_6
REMARK    3  A    between atoms: C_9  and  C_10
REMARK    4  A    between atoms: C_15  and  C_16
REMARK    5  A    between atoms: N_18  and  C_19
REMARK                            x       y       z     vdW  Elec       q    Type
REMARK                         _______ _______ _______ _____ _____    ______ ____
ROOT
ATOM      1  C   UNL     1       2.306   4.352  19.228  0.00  0.00    +0.000 A 
ATOM      2  C   UNL     1       1.195   3.739  19.836  0.00  0.00    +0.000 A 
ATOM      3  C   UNL     1       1.050   2.350  19.833  0.00  0.00    +0.000 A 
ATOM      4  C   UNL     1       2.006   1.548  19.218  0.00  0.00    +0.000 A 
ATOM      5  C   UNL     1       3.135   2.130  18.639  0.00  0.00    +0.000 A 
ATOM      6  C   UNL     1       3.298   3.527  18.652  0.00  0.00    +0.000 A 
ENDROOT
BRANCH   1  10
ATOM      7  C   UNL     1       1.826   7.850  19.636  0.00  0.00    +0.000 A 
ATOM      8  C   UNL     1       2.746   7.820  18.607  0.00  0.00    +0.000 A 
ATOM      9  N   UNL     1       3.034   6.531  18.254  0.00  0.00    +0.000 NA
ATOM     10  C   UNL     1       2.360   5.808  19.125  0.00  0.00    +0.000 A 
ATOM     11  O   UNL     1       1.561   6.543  19.974  0.00  0.00    +0.000 OA
BRANCH   7  16
ATOM     12  C   UNL     1      -0.717  12.244  22.421  0.00  0.00    +0.000 C 
ATOM     13  C   UNL     1      -0.097  11.083  21.705  0.00  0.00    +0.000 A 
ATOM     14  C   UNL     1       0.149  11.146  20.333  0.00  0.00    +0.000 A 
ATOM     15  C   UNL     1       0.763  10.080  19.674  0.00  0.00    +0.000 A 
ATOM     16  C   UNL     1       1.156   8.921  20.365  0.00  0.00    +0.000 A 
ATOM     17  C   UNL     1       0.891   8.853  21.737  0.00  0.00    +0.000 A 
ATOM     18  C   UNL     1       0.273   9.924  22.399  0.00  0.00    +0.000 A 
ENDBRANCH   7  16
ENDBRANCH   1  10
BRANCH   6  19
ATOM     19  C   UNL     1       4.608   4.090  18.211  0.00  0.00    +0.000 C 
ATOM     20  O   UNL     1       5.530   4.104  19.022  0.00  0.00    +0.000 OA
ATOM     21  N   UNL     1       4.696   4.486  16.884  0.00  0.00    +0.000 N 
ATOM     22  H   UNL     1       3.881   4.448  16.288  0.00  0.00    +0.000 HD
BRANCH  21  23
ATOM     23  C   UNL     1       5.858   5.006  16.333  0.00  0.00    +0.000 A 
ATOM     24  C   UNL     1       6.568   4.652  15.162  0.00  0.00    +0.000 A 
ATOM     25  N   UNL     1       7.663   5.399  14.979  0.00  0.00    +0.000 NA
ATOM     26  N   UNL     1       7.660   6.220  16.039  0.00  0.00    +0.000 N 
ATOM     27  C   UNL     1       6.590   6.038  16.871  0.00  0.00    +0.000 A 
ATOM     28  H   UNL     1       8.427   6.880  16.130  0.00  0.00    +0.000 HD
ENDBRANCH  21  23
ENDBRANCH   6  19
TORSDOF 4
ENDMDL
MODEL 7
REMARK VINA RESULT:      -8.4      3.554      8.262
REMARK  Name = 
REMARK  5 active torsions:
REMARK  status: ('A' for Active; 'I' for Inactive)
REMARK    1  A    between atoms: C_1  and  C_2
REMARK    2  A    between atoms: C_5  and  C_6
REMARK    3  A    between atoms: C_9  and  C_10
REMARK    4  A    between atoms: C_15  and  C_16
REMARK    5  A    between atoms: N_18  and  C_19
REMARK                            x       y       z     vdW  Elec       q    Type
REMARK                         _______ _______ _______ _____ _____    ______ ____
ROOT
ATOM      1  C   UNL     1       0.252   9.851  20.853  0.00  0.00    +0.000 A 
ATOM      2  C   UNL     1       0.605   9.239  22.071  0.00  0.00    +0.000 A 
ATOM      3  C   UNL     1      -0.010   9.613  23.267  0.00  0.00    +0.000 A 
ATOM      4  C   UNL     1      -0.982  10.609  23.273  0.00  0.00    +0.000 A 
ATOM      5  C   UNL     1      -1.375  11.206  22.074  0.00  0.00    +0.000 A 
ATOM      6  C   UNL     1      -0.773  10.823  20.861  0.00  0.00    +0.000 A 
ENDROOT
BRANCH   1  10
ATOM      7  C   UNL     1       2.224   8.307  18.331  0.00  0.00    +0.000 A 
ATOM      8  C   UNL     1       1.992   9.548  17.773  0.00  0.00    +0.000 A 
ATOM      9  N   UNL     1       1.274  10.337  18.629  0.00  0.00    +0.000 NA
ATOM     10  C   UNL     1       1.008   9.539  19.643  0.00  0.00    +0.000 A 
ATOM     11  O   UNL     1       1.595   8.295  19.554  0.00  0.00    +0.000 OA
BRANCH   7  16
ATOM     12  C   UNL     1       5.025   3.488  16.763  0.00  0.00    +0.000 C 
ATOM     13  C   UNL     1       4.293   4.743  17.125  0.00  0.00    +0.000 A 
ATOM     14  C   UNL     1       3.048   4.681  17.755  0.00  0.00    +0.000 A 
ATOM     15  C   UNL     1       2.384   5.850  18.128  0.00  0.00    +0.000 A 
ATOM     16  C   UNL     1       2.943   7.116  17.890  0.00  0.00    +0.000 A 
ATOM     17  C   UNL     1       4.182   7.177  17.242  0.00  0.00    +0.000 A 
ATOM     18  C   UNL     1       4.848   6.002  16.867  0.00  0.00    +0.000 A 
ENDBRANCH   7  16
ENDBRANCH   1  10
BRANCH   6  19
ATOM     19  C   UNL     1      -1.362  11.332  19.588  0.00  0.00    +0.000 C 
ATOM     20  O   UNL     1      -1.150  12.503  19.284  0.00  0.00    +0.000 OA
ATOM     21  N   UNL     1      -2.046  10.409  18.810  0.00  0.00    +0.000 N 
ATOM     22  H   UNL     1      -2.183   9.465  19.144  0.00  0.00    +0.000 HD
BRANCH  21  23
ATOM     23  C   UNL     1      -2.625  10.739  17.593  0.00  0.00    +0.000 A 
ATOM     24  C   UNL     1      -2.258  10.401  16.269  0.00  0.00    +0.000 A 
ATOM     25  N   UNL     1      -3.081  10.930  15.356  0.00  0.00    +0.000 NA
ATOM     26  N   UNL     1      -3.965  11.615  16.095  0.00  0.00    +0.000 N 
ATOM     27  C   UNL     1      -3.747  11.518  17.442  0.00  0.00    +0.000 A 
ATOM     28  H   UNL     1      -4.691  12.131  15.607  0.00  0.00    +0.000 HD
ENDBRANCH  21  23
ENDBRANCH   6  19
TORSDOF 4
ENDMDL
MODEL 8
REMARK VINA RESULT:      -8.2      3.561      8.367
REMARK  Name = 
REMARK  5 active torsions:
REMARK  status: ('A' for Active; 'I' for Inactive)
REMARK    1  A    between atoms: C_1  and  C_2
REMARK    2  A    between atoms: C_5  and  C_6
REMARK    3  A    between atoms: C_9  and  C_10
REMARK    4  A    between atoms: C_15  and  C_16
REMARK    5  A    between atoms: N_18  and  C_19
REMARK                            x       y       z     vdW  Elec       q    Type
REMARK                         _______ _______ _______ _____ _____    ______ ____
ROOT
ATOM      1  C   UNL     1       0.265   9.809  20.869  0.00  0.00    +0.000 A 
ATOM      2  C   UNL     1       0.626   9.176  22.073  0.00  0.00    +0.000 A 
ATOM      3  C   UNL     1       0.044   9.554  23.286  0.00  0.00    +0.000 A 
ATOM      4  C   UNL     1      -0.901  10.575  23.320  0.00  0.00    +0.000 A 
ATOM      5  C   UNL     1      -1.301  11.194  22.134  0.00  0.00    +0.000 A 
ATOM      6  C   UNL     1      -0.734  10.807  20.906  0.00  0.00    +0.000 A 
ENDROOT
BRANCH   1  10
ATOM      7  C   UNL     1       2.207   8.266  18.323  0.00  0.00    +0.000 A 
ATOM      8  C   UNL     1       1.902   9.478  17.735  0.00  0.00    +0.000 A 
ATOM      9  N   UNL     1       1.183  10.263  18.593  0.00  0.00    +0.000 NA
ATOM     10  C   UNL     1       0.989   9.489  19.641  0.00  0.00    +0.000 A 
ATOM     11  O   UNL     1       1.625   8.268  19.569  0.00  0.00    +0.000 OA
BRANCH   7  16
ATOM     12  C   UNL     1       5.240   3.710  16.432  0.00  0.00    +0.000 C 
ATOM     13  C   UNL     1       4.466   4.878  16.964  0.00  0.00    +0.000 A 
ATOM     14  C   UNL     1       4.931   6.180  16.777  0.00  0.00    +0.000 A 
ATOM     15  C   UNL     1       4.190   7.270  17.237  0.00  0.00    +0.000 A 
ATOM     16  C   UNL     1       2.960   7.093  17.893  0.00  0.00    +0.000 A 
ATOM     17  C   UNL     1       2.506   5.785  18.096  0.00  0.00    +0.000 A 
ATOM     18  C   UNL     1       3.251   4.691  17.634  0.00  0.00    +0.000 A 
ENDBRANCH   7  16
ENDBRANCH   1  10
BRANCH   6  19
ATOM     19  C   UNL     1      -1.334  11.344  19.650  0.00  0.00    +0.000 C 
ATOM     20  O   UNL     1      -1.034  12.486  19.312  0.00  0.00    +0.000 OA
ATOM     21  N   UNL     1      -2.132  10.472  18.923  0.00  0.00    +0.000 N 
ATOM     22  H   UNL     1      -2.335   9.550  19.283  0.00  0.00    +0.000 HD
BRANCH  21  23
ATOM     23  C   UNL     1      -2.735  10.830  17.726  0.00  0.00    +0.000 A 
ATOM     24  C   UNL     1      -4.036  11.311  17.451  0.00  0.00    +0.000 A 
ATOM     25  N   UNL     1      -4.237  11.535  16.147  0.00  0.00    +0.000 NA
ATOM     26  N   UNL     1      -3.070  11.184  15.589  0.00  0.00    +0.000 N 
ATOM     27  C   UNL     1      -2.130  10.772  16.493  0.00  0.00    +0.000 A 
ATOM     28  H   UNL     1      -2.989  11.250  14.578  0.00  0.00    +0.000 HD
ENDBRANCH  21  23
ENDBRANCH   6  19
TORSDOF 4
ENDMDL
MODEL 9
REMARK VINA RESULT:      -8.2      1.232      1.674
REMARK  Name = 
REMARK  5 active torsions:
REMARK  status: ('A' for Active; 'I' for Inactive)
REMARK    1  A    between atoms: C_1  and  C_2
REMARK    2  A    between atoms: C_5  and  C_6
REMARK    3  A    between atoms: C_9  and  C_10
REMARK    4  A    between atoms: C_15  and  C_16
REMARK    5  A    between atoms: N_18  and  C_19
REMARK                            x       y       z     vdW  Elec       q    Type
REMARK                         _______ _______ _______ _____ _____    ______ ____
ROOT
ATOM      1  C   UNL     1       2.635   4.988  19.933  0.00  0.00    +0.000 A 
ATOM      2  C   UNL     1       2.042   4.729  21.183  0.00  0.00    +0.000 A 
ATOM      3  C   UNL     1       2.046   3.443  21.727  0.00  0.00    +0.000 A 
ATOM      4  C   UNL     1       2.634   2.391  21.032  0.00  0.00    +0.000 A 
ATOM      5  C   UNL     1       3.259   2.629  19.807  0.00  0.00    +0.000 A 
ATOM      6  C   UNL     1       3.276   3.925  19.259  0.00  0.00    +0.000 A 
ENDROOT
BRANCH   1  10
ATOM      7  C   UNL     1       1.792   8.361  19.193  0.00  0.00    +0.000 A 
ATOM      8  C   UNL     1       2.551   8.022  18.090  0.00  0.00    +0.000 A 
ATOM      9  N   UNL     1       2.941   6.713  18.156  0.00  0.00    +0.000 NA
ATOM     10  C   UNL     1       2.495   6.310  19.328  0.00  0.00    +0.000 A 
ATOM     11  O   UNL     1       1.741   7.249  20.000  0.00  0.00    +0.000 OA
BRANCH   7  16
ATOM     12  C   UNL     1      -0.779  13.304  20.767  0.00  0.00    +0.000 C 
ATOM     13  C   UNL     1      -0.154  12.005  20.361  0.00  0.00    +0.000 A 
ATOM     14  C   UNL     1       0.333  11.827  19.065  0.00  0.00    +0.000 A 
ATOM     15  C   UNL     1       0.952  10.631  18.699  0.00  0.00    +0.000 A 
ATOM     16  C   UNL     1       1.107   9.578  19.616  0.00  0.00    +0.000 A 
ATOM     17  C   UNL     1       0.600   9.751  20.908  0.00  0.00    +0.000 A 
ATOM     18  C   UNL     1      -0.021  10.953  21.275  0.00  0.00    +0.000 A 
ENDBRANCH   7  16
ENDBRANCH   1  10
BRANCH   6  19
ATOM     19  C   UNL     1       4.127   4.174  18.060  0.00  0.00    +0.000 C 
ATOM     20  O   UNL     1       3.656   3.913  16.956  0.00  0.00    +0.000 OA
ATOM     21  N   UNL     1       5.366   4.756  18.289  0.00  0.00    +0.000 N 
ATOM     22  H   UNL     1       5.679   4.928  19.235  0.00  0.00    +0.000 HD
BRANCH  21  23
ATOM     23  C   UNL     1       6.250   5.064  17.266  0.00  0.00    +0.000 A 
ATOM     24  C   UNL     1       6.801   4.258  16.242  0.00  0.00    +0.000 A 
ATOM     25  N   UNL     1       7.634   4.937  15.445  0.00  0.00    +0.000 NA
ATOM     26  N   UNL     1       7.625   6.172  15.966  0.00  0.00    +0.000 N 
ATOM     27  C   UNL     1       6.798   6.306  17.047  0.00  0.00    +0.000 A 
ATOM     28  H   UNL     1       8.215   6.875  15.530  0.00  0.00    +0.000 HD
ENDBRANCH  21  23
ENDBRANCH   6  19
TORSDOF 4
ENDMDL
