MODEL 1
REMARK VINA RESULT:      -9.0      0.000      0.000
REMARK  Name = 
REMARK  5 active torsions:
REMARK  status: ('A' for Active; 'I' for Inactive)
REMARK    1  A    between atoms: C_1  and  C_2
REMARK    2  A    between atoms: C_5  and  C_6
REMARK    3  A    between atoms: C_6  and  N_7
REMARK    4  A    between atoms: C_8  and  C_10
REMARK    5  A    between atoms: C_13  and  N_14
REMARK                            x       y       z     vdW  Elec       q    Type
REMARK                         _______ _______ _______ _____ _____    ______ ____
ROOT
ATOM      1  C   UNL     1       6.388   6.428  17.866  0.00  0.00    +0.000 A 
ATOM      2  C   UNL     1       5.277   6.122  17.074  0.00  0.00    +0.000 A 
ATOM      3  C   UNL     1       4.498   5.007  17.368  0.00  0.00    +0.000 A 
ATOM      4  C   UNL     1       4.863   4.164  18.425  0.00  0.00    +0.000 A 
ATOM      5  C   UNL     1       5.833   4.602  19.348  0.00  0.00    +0.000 A 
ATOM      6  C   UNL     1       6.618   5.720  19.050  0.00  0.00    +0.000 A 
ENDROOT
BRANCH   4   7
ATOM      7  N   UNL     1       4.582   2.745  18.261  0.00  0.00    +0.000 N 
ATOM      8  C   UNL     1       3.635   2.402  17.321  0.00  0.00    +0.000 A 
ATOM      9  N   UNL     1       2.379   2.201  17.578  0.00  0.00    +0.000 NA
ATOM     10  C   UNL     1       1.990   2.448  18.913  0.00  0.00    +0.000 A 
ATOM     11  C   UNL     1       0.712   2.916  19.189  0.00  0.00    +0.000 A 
ATOM     12  C   UNL     1       0.392   3.350  20.481  0.00  0.00    +0.000 A 
ATOM     13  C   UNL     1       1.337   3.273  21.511  0.00  0.00    +0.000 A 
ATOM     14  C   UNL     1       2.612   2.772  21.256  0.00  0.00    +0.000 A 
ATOM     15  C   UNL     1       2.925   2.386  19.952  0.00  0.00    +0.000 A 
ATOM     16  C   UNL     1       4.322   2.171  19.515  0.00  0.00    +0.000 A 
ATOM     17  O   UNL     1       5.144   1.617  20.233  0.00  0.00    +0.000 OA
ENDBRANCH   4   7
BRANCH   1  19
ATOM     18  N   UNL     1       7.616   8.541  17.940  0.00  0.00    +0.000 N 
ATOM     19  C   UNL     1       7.401   7.351  17.289  0.00  0.00    +0.000 C 
ATOM     20  O   UNL     1       8.015   7.013  16.284  0.00  0.00    +0.000 OA
ATOM     21  H   UNL     1       6.940   8.875  18.613  0.00  0.00    +0.000 HD
BRANCH  18  22
ATOM     22  C   UNL     1       8.563   9.489  17.395  0.00  0.00    +0.000 C 
BRANCH  22  27
ATOM     23  C   UNL     1       9.822  13.577  21.338  0.00  0.00    +0.000 C 
ATOM     24  C   UNL     1       9.543  12.513  20.319  0.00  0.00    +0.000 A 
ATOM     25  C   UNL     1       9.575  11.157  20.664  0.00  0.00    +0.000 A 
ATOM     26  C   UNL     1       9.269  10.180  19.715  0.00  0.00    +0.000 A 
ATOM     27  C   UNL     1       8.924  10.542  18.405  0.00  0.00    +0.000 A 
ATOM     28  C   UNL     1       8.926  11.897  18.053  0.00  0.00    +0.000 A 
ATOM     29  C   UNL     1       9.234  12.873  19.002  0.00  0.00    +0.000 A 
ENDBRANCH  22  27
ENDBRANCH  18  22
ENDBRANCH   1  19
TORSDOF 4
ENDMDL
MODEL 2
REMARK VINA RESULT:      -8.7      0.924      1.403
REMARK  Name = 
REMARK  5 active torsions:
REMARK  status: ('A' for Active; 'I' for Inactive)
REMARK    1  A    between atoms: C_1  and  C_2
REMARK    2  A    between atoms: C_5  and  C_6
REMARK    3  A    between atoms: C_6  and  N_7
REMARK    4  A    between atoms: C_8  and  C_10
REMARK    5  A    between atoms: C_13  and  N_14
REMARK                            x       y       z     vdW  Elec       q    Type
REMARK                         _______ _______ _______ _____ _____    ______ ____
ROOT
ATOM      1  C   UNL     1       6.278   6.530  17.790  0.00  0.00    +0.000 A 
ATOM      2  C   UNL     1       4.973   6.889  17.439  0.00  0.00    +0.000 A 
ATOM      3  C   UNL     1       3.940   5.965  17.559  0.00  0.00    +0.000 A 
ATOM      4  C   UNL     1       4.221   4.659  17.981  0.00  0.00    +0.000 A 
ATOM      5  C   UNL     1       5.479   4.377  18.548  0.00  0.00    +0.000 A 
ATOM      6  C   UNL     1       6.518   5.305  18.423  0.00  0.00    +0.000 A 
ENDROOT
BRANCH   4   7
ATOM      7  N   UNL     1       3.411   3.595  17.407  0.00  0.00    +0.000 N 
ATOM      8  C   UNL     1       2.092   3.891  17.139  0.00  0.00    +0.000 A 
ATOM      9  N   UNL     1       1.103   3.651  17.944  0.00  0.00    +0.000 NA
ATOM     10  C   UNL     1       1.466   3.127  19.205  0.00  0.00    +0.000 A 
ATOM     11  C   UNL     1       0.706   3.430  20.327  0.00  0.00    +0.000 A 
ATOM     12  C   UNL     1       1.172   3.082  21.600  0.00  0.00    +0.000 A 
ATOM     13  C   UNL     1       2.379   2.389  21.750  0.00  0.00    +0.000 A 
ATOM     14  C   UNL     1       3.135   2.047  20.630  0.00  0.00    +0.000 A 
ATOM     15  C   UNL     1       2.674   2.442  19.373  0.00  0.00    +0.000 A 
ATOM     16  C   UNL     1       3.550   2.431  18.181  0.00  0.00    +0.000 A 
ATOM     17  O   UNL     1       4.347   1.526  17.974  0.00  0.00    +0.000 OA
ENDBRANCH   4   7
BRANCH   1  19
ATOM     18  N   UNL     1       7.596   8.586  17.888  0.00  0.00    +0.000 N 
ATOM     19  C   UNL     1       7.381   7.379  17.269  0.00  0.00    +0.000 C 
ATOM     20  O   UNL     1       8.064   6.968  16.338  0.00  0.00    +0.000 OA
ATOM     21  H   UNL     1       6.881   8.981  18.483  0.00  0.00    +0.000 HD
BRANCH  18  22
ATOM     22  C   UNL     1       8.633   9.465  17.391  0.00  0.00    +0.000 C 
BRANCH  22  27
ATOM     23  C   UNL     1      10.035  13.619  21.216  0.00  0.00    +0.000 C 
ATOM     24  C   UNL     1       9.628  12.561  20.233  0.00  0.00    +0.000 A 
ATOM     25  C   UNL     1       9.283  12.891  18.918  0.00  0.00    +0.000 A 
ATOM     26  C   UNL     1       8.950  11.890  18.003  0.00  0.00    +0.000 A 
ATOM     27  C   UNL     1       8.958  10.542  18.387  0.00  0.00    +0.000 A 
ATOM     28  C   UNL     1       9.272  10.217  19.712  0.00  0.00    +0.000 A 
ATOM     29  C   UNL     1       9.602  11.218  20.627  0.00  0.00    +0.000 A 
ENDBRANCH  22  27
ENDBRANCH  18  22
ENDBRANCH   1  19
TORSDOF 4
ENDMDL
MODEL 3
REMARK VINA RESULT:      -8.6      5.175      6.996
REMARK  Name = 
REMARK  5 active torsions:
REMARK  status: ('A' for Active; 'I' for Inactive)
REMARK    1  A    between atoms: C_1  and  C_2
REMARK    2  A    between atoms: C_5  and  C_6
REMARK    3  A    between atoms: C_6  and  N_7
REMARK    4  A    between atoms: C_8  and  C_10
REMARK    5  A    between atoms: C_13  and  N_14
REMARK                            x       y       z     vdW  Elec       q    Type
REMARK                         _______ _______ _______ _____ _____    ______ ____
ROOT
ATOM      1  C   UNL     1       2.358   7.419  17.992  0.00  0.00    +0.000 A 
ATOM      2  C   UNL     1       3.713   7.534  17.664  0.00  0.00    +0.000 A 
ATOM      3  C   UNL     1       4.446   6.400  17.326  0.00  0.00    +0.000 A 
ATOM      4  C   UNL     1       3.835   5.140  17.369  0.00  0.00    +0.000 A 
ATOM      5  C   UNL     1       2.433   5.060  17.471  0.00  0.00    +0.000 A 
ATOM      6  C   UNL     1       1.698   6.199  17.815  0.00  0.00    +0.000 A 
ENDROOT
BRANCH   4   7
ATOM      7  N   UNL     1       4.673   4.018  17.766  0.00  0.00    +0.000 N 
ATOM      8  C   UNL     1       4.307   2.772  17.304  0.00  0.00    +0.000 A 
ATOM      9  N   UNL     1       3.574   1.927  17.962  0.00  0.00    +0.000 NA
ATOM     10  C   UNL     1       3.072   2.398  19.195  0.00  0.00    +0.000 A 
ATOM     11  C   UNL     1       1.840   1.954  19.658  0.00  0.00    +0.000 A 
ATOM     12  C   UNL     1       1.251   2.566  20.771  0.00  0.00    +0.000 A 
ATOM     13  C   UNL     1       1.915   3.593  21.452  0.00  0.00    +0.000 A 
ATOM     14  C   UNL     1       3.168   4.024  21.019  0.00  0.00    +0.000 A 
ATOM     15  C   UNL     1       3.717   3.432  19.882  0.00  0.00    +0.000 A 
ATOM     16  C   UNL     1       4.856   4.039  19.157  0.00  0.00    +0.000 A 
ATOM     17  O   UNL     1       5.793   4.559  19.748  0.00  0.00    +0.000 OA
ENDBRANCH   4   7
BRANCH   1  19
ATOM     18  N   UNL     1       1.163   9.552  17.981  0.00  0.00    +0.000 N 
ATOM     19  C   UNL     1       1.739   8.553  18.728  0.00  0.00    +0.000 C 
ATOM     20  O   UNL     1       1.740   8.543  19.953  0.00  0.00    +0.000 OA
ATOM     21  H   UNL     1       1.385   9.637  16.999  0.00  0.00    +0.000 HD
BRANCH  18  22
ATOM     22  C   UNL     1       0.583  10.696  18.652  0.00  0.00    +0.000 C 
BRANCH  22  27
ATOM     23  C   UNL     1      -5.081  11.237  17.438  0.00  0.00    +0.000 C 
ATOM     24  C   UNL     1      -3.630  11.058  17.774  0.00  0.00    +0.000 A 
ATOM     25  C   UNL     1      -2.849  10.103  17.115  0.00  0.00    +0.000 A 
ATOM     26  C   UNL     1      -1.489   9.979  17.407  0.00  0.00    +0.000 A 
ATOM     27  C   UNL     1      -0.888  10.809  18.363  0.00  0.00    +0.000 A 
ATOM     28  C   UNL     1      -1.678  11.741  19.046  0.00  0.00    +0.000 A 
ATOM     29  C   UNL     1      -3.038  11.863  18.754  0.00  0.00    +0.000 A 
ENDBRANCH  22  27
ENDBRANCH  18  22
ENDBRANCH   1  19
TORSDOF 4
ENDMDL
MODEL 4
REMARK VINA RESULT:      -8.4      5.533      8.064
REMARK  Name = 
REMARK  5 active torsions:
REMARK  status: ('A' for Active; 'I' for Inactive)
REMARK    1  A    between atoms: C_1  and  C_2
REMARK    2  A    between atoms: C_5  and  C_6
REMARK    3  A    between atoms: C_6  and  N_7
REMARK    4  A    between atoms: C_8  and  C_10
REMARK    5  A    between atoms: C_13  and  N_14
REMARK                            x       y       z     vdW  Elec       q    Type
REMARK                         _______ _______ _______ _____ _____    ______ ____
ROOT
ATOM      1  C   UNL     1       2.147   7.803  18.180  0.00  0.00    +0.000 A 
ATOM      2  C   UNL     1       3.456   7.986  17.724  0.00  0.00    +0.000 A 
ATOM      3  C   UNL     1       4.273   6.885  17.491  0.00  0.00    +0.000 A 
ATOM      4  C   UNL     1       3.798   5.596  17.766  0.00  0.00    +0.000 A 
ATOM      5  C   UNL     1       2.422   5.408  17.999  0.00  0.00    +0.000 A 
ATOM      6  C   UNL     1       1.602   6.515  18.238  0.00  0.00    +0.000 A 
ENDROOT
BRANCH   4   7
ATOM      7  N   UNL     1       4.771   4.627  18.246  0.00  0.00    +0.000 N 
ATOM      8  C   UNL     1       6.028   5.103  18.551  0.00  0.00    +0.000 A 
ATOM      9  N   UNL     1       7.037   5.099  17.736  0.00  0.00    +0.000 NA
ATOM     10  C   UNL     1       6.754   4.642  16.429  0.00  0.00    +0.000 A 
ATOM     11  C   UNL     1       7.448   5.164  15.346  0.00  0.00    +0.000 A 
ATOM     12  C   UNL     1       7.035   4.865  14.042  0.00  0.00    +0.000 A 
ATOM     13  C   UNL     1       5.953   4.005  13.820  0.00  0.00    +0.000 A 
ATOM     14  C   UNL     1       5.269   3.445  14.898  0.00  0.00    +0.000 A 
ATOM     15  C   UNL     1       5.670   3.791  16.189  0.00  0.00    +0.000 A 
ATOM     16  C   UNL     1       4.814   3.532  17.368  0.00  0.00    +0.000 A 
ATOM     17  O   UNL     1       4.173   2.496  17.484  0.00  0.00    +0.000 OA
ENDBRANCH   4   7
BRANCH   1  19
ATOM     18  N   UNL     1       0.975   9.936  17.950  0.00  0.00    +0.000 N 
ATOM     19  C   UNL     1       1.470   8.974  18.796  0.00  0.00    +0.000 C 
ATOM     20  O   UNL     1       1.357   9.027  20.016  0.00  0.00    +0.000 OA
ATOM     21  H   UNL     1       1.288   9.970  16.989  0.00  0.00    +0.000 HD
BRANCH  18  22
ATOM     22  C   UNL     1       0.344  11.114  18.504  0.00  0.00    +0.000 C 
BRANCH  22  27
ATOM     23  C   UNL     1      -5.426  11.008  17.768  0.00  0.00    +0.000 C 
ATOM     24  C   UNL     1      -3.942  10.996  17.984  0.00  0.00    +0.000 A 
ATOM     25  C   UNL     1      -3.121  10.090  17.305  0.00  0.00    +0.000 A 
ATOM     26  C   UNL     1      -1.736  10.121  17.482  0.00  0.00    +0.000 A 
ATOM     27  C   UNL     1      -1.149  11.061  18.341  0.00  0.00    +0.000 A 
ATOM     28  C   UNL     1      -1.975  11.945  19.045  0.00  0.00    +0.000 A 
ATOM     29  C   UNL     1      -3.359  11.912  18.868  0.00  0.00    +0.000 A 
ENDBRANCH  22  27
ENDBRANCH  18  22
ENDBRANCH   1  19
TORSDOF 4
ENDMDL
MODEL 5
REMARK VINA RESULT:      -8.3      6.276      8.764
REMARK  Name = 
REMARK  5 active torsions:
REMARK  status: ('A' for Active; 'I' for Inactive)
REMARK    1  A    between atoms: C_1  and  C_2
REMARK    2  A    between atoms: C_5  and  C_6
REMARK    3  A    between atoms: C_6  and  N_7
REMARK    4  A    between atoms: C_8  and  C_10
REMARK    5  A    between atoms: C_13  and  N_14
REMARK                            x       y       z     vdW  Elec       q    Type
REMARK                         _______ _______ _______ _____ _____    ______ ____
ROOT
ATOM      1  C   UNL     1       2.209   7.422  19.506  0.00  0.00    +0.000 A 
ATOM      2  C   UNL     1       1.972   8.327  18.466  0.00  0.00    +0.000 A 
ATOM      3  C   UNL     1       1.174   9.446  18.684  0.00  0.00    +0.000 A 
ATOM      4  C   UNL     1       0.566   9.633  19.932  0.00  0.00    +0.000 A 
ATOM      5  C   UNL     1       0.991   8.854  21.026  0.00  0.00    +0.000 A 
ATOM      6  C   UNL     1       1.790   7.727  20.805  0.00  0.00    +0.000 A 
ENDROOT
BRANCH   4   7
ATOM      7  N   UNL     1      -0.746  10.262  19.934  0.00  0.00    +0.000 N 
ATOM      8  C   UNL     1      -1.237  10.685  18.718  0.00  0.00    +0.000 A 
ATOM      9  N   UNL     1      -1.114  11.890  18.251  0.00  0.00    +0.000 NA
ATOM     10  C   UNL     1      -0.341  12.767  19.045  0.00  0.00    +0.000 A 
ATOM     11  C   UNL     1       0.406  13.771  18.442  0.00  0.00    +0.000 A 
ATOM     12  C   UNL     1       1.324  14.508  19.200  0.00  0.00    +0.000 A 
ATOM     13  C   UNL     1       1.462  14.273  20.574  0.00  0.00    +0.000 A 
ATOM     14  C   UNL     1       0.693  13.293  21.198  0.00  0.00    +0.000 A 
ATOM     15  C   UNL     1      -0.184  12.540  20.416  0.00  0.00    +0.000 A 
ATOM     16  C   UNL     1      -0.778  11.276  20.905  0.00  0.00    +0.000 A 
ATOM     17  O   UNL     1      -1.168  11.150  22.058  0.00  0.00    +0.000 OA
ENDBRANCH   4   7
BRANCH   1  19
ATOM     18  N   UNL     1       3.924   5.684  19.627  0.00  0.00    +0.000 N 
ATOM     19  C   UNL     1       2.702   6.070  19.133  0.00  0.00    +0.000 C 
ATOM     20  O   UNL     1       2.002   5.351  18.429  0.00  0.00    +0.000 OA
ATOM     21  H   UNL     1       4.558   6.377  20.000  0.00  0.00    +0.000 HD
BRANCH  18  22
ATOM     22  C   UNL     1       4.463   4.393  19.259  0.00  0.00    +0.000 C 
BRANCH  22  27
ATOM     23  C   UNL     1       7.123   4.756  14.098  0.00  0.00    +0.000 C 
ATOM     24  C   UNL     1       6.468   4.628  15.440  0.00  0.00    +0.000 A 
ATOM     25  C   UNL     1       7.080   5.131  16.593  0.00  0.00    +0.000 A 
ATOM     26  C   UNL     1       6.436   5.044  17.830  0.00  0.00    +0.000 A 
ATOM     27  C   UNL     1       5.168   4.455  17.933  0.00  0.00    +0.000 A 
ATOM     28  C   UNL     1       4.572   3.922  16.783  0.00  0.00    +0.000 A 
ATOM     29  C   UNL     1       5.217   4.008  15.549  0.00  0.00    +0.000 A 
ENDBRANCH  22  27
ENDBRANCH  18  22
ENDBRANCH   1  19
TORSDOF 4
ENDMDL
MODEL 6
REMARK VINA RESULT:      -8.2      5.534      7.377
REMARK  Name = 
REMARK  5 active torsions:
REMARK  status: ('A' for Active; 'I' for Inactive)
REMARK    1  A    between atoms: C_1  and  C_2
REMARK    2  A    between atoms: C_5  and  C_6
REMARK    3  A    between atoms: C_6  and  N_7
REMARK    4  A    between atoms: C_8  and  C_10
REMARK    5  A    between atoms: C_13  and  N_14
REMARK                            x       y       z     vdW  Elec       q    Type
REMARK                         _______ _______ _______ _____ _____    ______ ____
ROOT
ATOM      1  C   UNL     1       2.135   8.323  19.033  0.00  0.00    +0.000 A 
ATOM      2  C   UNL     1       1.993   7.205  19.861  0.00  0.00    +0.000 A 
ATOM      3  C   UNL     1       2.433   5.958  19.429  0.00  0.00    +0.000 A 
ATOM      4  C   UNL     1       2.968   5.818  18.142  0.00  0.00    +0.000 A 
ATOM      5  C   UNL     1       3.318   6.973  17.415  0.00  0.00    +0.000 A 
ATOM      6  C   UNL     1       2.871   8.225  17.848  0.00  0.00    +0.000 A 
ENDROOT
BRANCH   4   7
ATOM      7  N   UNL     1       2.711   4.560  17.457  0.00  0.00    +0.000 N 
ATOM      8  C   UNL     1       1.391   4.191  17.307  0.00  0.00    +0.000 A 
ATOM      9  N   UNL     1       0.747   3.408  18.117  0.00  0.00    +0.000 NA
ATOM     10  C   UNL     1       1.467   3.003  19.263  0.00  0.00    +0.000 A 
ATOM     11  C   UNL     1       0.796   2.770  20.457  0.00  0.00    +0.000 A 
ATOM     12  C   UNL     1       1.523   2.566  21.637  0.00  0.00    +0.000 A 
ATOM     13  C   UNL     1       2.922   2.550  21.616  0.00  0.00    +0.000 A 
ATOM     14  C   UNL     1       3.607   2.748  20.418  0.00  0.00    +0.000 A 
ATOM     15  C   UNL     1       2.865   2.992  19.262  0.00  0.00    +0.000 A 
ATOM     16  C   UNL     1       3.487   3.544  18.037  0.00  0.00    +0.000 A 
ATOM     17  O   UNL     1       4.591   3.180  17.654  0.00  0.00    +0.000 OA
ENDBRANCH   4   7
BRANCH   1  19
ATOM     18  N   UNL     1       0.990  10.360  18.314  0.00  0.00    +0.000 N 
ATOM     19  C   UNL     1       1.302   9.514  19.349  0.00  0.00    +0.000 C 
ATOM     20  O   UNL     1       0.908   9.681  20.498  0.00  0.00    +0.000 OA
ATOM     21  H   UNL     1       1.515  10.315  17.452  0.00  0.00    +0.000 HD
BRANCH  18  22
ATOM     22  C   UNL     1       0.215  11.552  18.579  0.00  0.00    +0.000 C 
BRANCH  22  27
ATOM     23  C   UNL     1      -5.482  10.664  17.801  0.00  0.00    +0.000 C 
ATOM     24  C   UNL     1      -4.012  10.854  18.028  0.00  0.00    +0.000 A 
ATOM     25  C   UNL     1      -3.070  10.059  17.365  0.00  0.00    +0.000 A 
ATOM     26  C   UNL     1      -1.704  10.278  17.553  0.00  0.00    +0.000 A 
ATOM     27  C   UNL     1      -1.256  11.297  18.405  0.00  0.00    +0.000 A 
ATOM     28  C   UNL     1      -2.200  12.070  19.093  0.00  0.00    +0.000 A 
ATOM     29  C   UNL     1      -3.565  11.849  18.906  0.00  0.00    +0.000 A 
ENDBRANCH  22  27
ENDBRANCH  18  22
ENDBRANCH   1  19
TORSDOF 4
ENDMDL
MODEL 7
REMARK VINA RESULT:      -8.2      4.700      5.956
REMARK  Name = 
REMARK  5 active torsions:
REMARK  status: ('A' for Active; 'I' for Inactive)
REMARK    1  A    between atoms: C_1  and  C_2
REMARK    2  A    between atoms: C_5  and  C_6
REMARK    3  A    between atoms: C_6  and  N_7
REMARK    4  A    between atoms: C_8  and  C_10
REMARK    5  A    between atoms: C_13  and  N_14
REMARK                            x       y       z     vdW  Elec       q    Type
REMARK                         _______ _______ _______ _____ _____    ______ ____
ROOT
ATOM      1  C   UNL     1       3.246   7.406  18.388  0.00  0.00    +0.000 A 
ATOM      2  C   UNL     1       2.893   6.538  19.427  0.00  0.00    +0.000 A 
ATOM      3  C   UNL     1       3.520   5.302  19.546  0.00  0.00    +0.000 A 
ATOM      4  C   UNL     1       4.466   4.908  18.591  0.00  0.00    +0.000 A 
ATOM      5  C   UNL     1       4.978   5.868  17.696  0.00  0.00    +0.000 A 
ATOM      6  C   UNL     1       4.344   7.108  17.574  0.00  0.00    +0.000 A 
ENDROOT
BRANCH   4   7
ATOM      7  N   UNL     1       4.523   3.490  18.271  0.00  0.00    +0.000 N 
ATOM      8  C   UNL     1       3.718   3.049  17.243  0.00  0.00    +0.000 A 
ATOM      9  N   UNL     1       2.531   2.546  17.398  0.00  0.00    +0.000 NA
ATOM     10  C   UNL     1       2.044   2.552  18.724  0.00  0.00    +0.000 A 
ATOM     11  C   UNL     1       0.683   2.690  18.962  0.00  0.00    +0.000 A 
ATOM     12  C   UNL     1       0.220   2.897  20.268  0.00  0.00    +0.000 A 
ATOM     13  C   UNL     1       1.116   2.920  21.343  0.00  0.00    +0.000 A 
ATOM     14  C   UNL     1       2.481   2.747  21.123  0.00  0.00    +0.000 A 
ATOM     15  C   UNL     1       2.925   2.586  19.810  0.00  0.00    +0.000 A 
ATOM     16  C   UNL     1       4.351   2.737  19.444  0.00  0.00    +0.000 A 
ATOM     17  O   UNL     1       5.249   2.305  20.155  0.00  0.00    +0.000 OA
ENDBRANCH   4   7
BRANCH   1  19
ATOM     18  N   UNL     1       1.325   8.793  18.988  0.00  0.00    +0.000 N 
ATOM     19  C   UNL     1       2.293   8.498  18.060  0.00  0.00    +0.000 C 
ATOM     20  O   UNL     1       2.418   9.104  17.001  0.00  0.00    +0.000 OA
ATOM     21  H   UNL     1       1.115   8.132  19.724  0.00  0.00    +0.000 HD
BRANCH  18  22
ATOM     22  C   UNL     1       0.350   9.821  18.696  0.00  0.00    +0.000 C 
BRANCH  22  27
ATOM     23  C   UNL     1      -1.972  12.006  23.563  0.00  0.00    +0.000 C 
ATOM     24  C   UNL     1      -1.333  11.462  22.320  0.00  0.00    +0.000 A 
ATOM     25  C   UNL     1      -0.463  10.368  22.375  0.00  0.00    +0.000 A 
ATOM     26  C   UNL     1       0.090   9.845  21.204  0.00  0.00    +0.000 A 
ATOM     27  C   UNL     1      -0.219  10.407  19.958  0.00  0.00    +0.000 A 
ATOM     28  C   UNL     1      -1.064  11.523  19.908  0.00  0.00    +0.000 A 
ATOM     29  C   UNL     1      -1.614  12.046  21.079  0.00  0.00    +0.000 A 
ENDBRANCH  22  27
ENDBRANCH  18  22
ENDBRANCH   1  19
TORSDOF 4
ENDMDL
MODEL 8
REMARK VINA RESULT:      -8.2      5.481      8.020
REMARK  Name = 
REMARK  5 active torsions:
REMARK  status: ('A' for Active; 'I' for Inactive)
REMARK    1  A    between atoms: C_1  and  C_2
REMARK    2  A    between atoms: C_5  and  C_6
REMARK    3  A    between atoms: C_6  and  N_7
REMARK    4  A    between atoms: C_8  and  C_10
REMARK    5  A    between atoms: C_13  and  N_14
REMARK                            x       y       z     vdW  Elec       q    Type
REMARK                         _______ _______ _______ _____ _____    ______ ____
ROOT
ATOM      1  C   UNL     1       2.299   8.018  18.653  0.00  0.00    +0.000 A 
ATOM      2  C   UNL     1       3.177   8.238  17.586  0.00  0.00    +0.000 A 
ATOM      3  C   UNL     1       4.223   7.351  17.351  0.00  0.00    +0.000 A 
ATOM      4  C   UNL     1       4.425   6.269  18.217  0.00  0.00    +0.000 A 
ATOM      5  C   UNL     1       3.413   5.927  19.136  0.00  0.00    +0.000 A 
ATOM      6  C   UNL     1       2.365   6.822  19.375  0.00  0.00    +0.000 A 
ENDROOT
BRANCH   4   7
ATOM      7  N   UNL     1       5.802   5.858  18.444  0.00  0.00    +0.000 N 
ATOM      8  C   UNL     1       6.788   6.649  17.893  0.00  0.00    +0.000 A 
ATOM      9  N   UNL     1       7.346   6.437  16.741  0.00  0.00    +0.000 NA
ATOM     10  C   UNL     1       6.812   5.358  16.003  0.00  0.00    +0.000 A 
ATOM     11  C   UNL     1       6.801   5.406  14.614  0.00  0.00    +0.000 A 
ATOM     12  C   UNL     1       6.096   4.438  13.889  0.00  0.00    +0.000 A 
ATOM     13  C   UNL     1       5.439   3.393  14.549  0.00  0.00    +0.000 A 
ATOM     14  C   UNL     1       5.472   3.313  15.940  0.00  0.00    +0.000 A 
ATOM     15  C   UNL     1       6.143   4.312  16.646  0.00  0.00    +0.000 A 
ATOM     16  C   UNL     1       5.950   4.504  18.101  0.00  0.00    +0.000 A 
ATOM     17  O   UNL     1       5.858   3.557  18.870  0.00  0.00    +0.000 OA
ENDBRANCH   4   7
BRANCH   1  19
ATOM     18  N   UNL     1       1.204  10.154  18.189  0.00  0.00    +0.000 N 
ATOM     19  C   UNL     1       1.480   9.172  19.109  0.00  0.00    +0.000 C 
ATOM     20  O   UNL     1       1.065   9.193  20.262  0.00  0.00    +0.000 OA
ATOM     21  H   UNL     1       1.747  10.213  17.339  0.00  0.00    +0.000 HD
BRANCH  18  22
ATOM     22  C   UNL     1       0.444  11.315  18.597  0.00  0.00    +0.000 C 
BRANCH  22  27
ATOM     23  C   UNL     1      -5.245  10.636  17.587  0.00  0.00    +0.000 C 
ATOM     24  C   UNL     1      -3.779  10.772  17.874  0.00  0.00    +0.000 A 
ATOM     25  C   UNL     1      -2.842   9.932  17.263  0.00  0.00    +0.000 A 
ATOM     26  C   UNL     1      -1.478  10.101  17.507  0.00  0.00    +0.000 A 
ATOM     27  C   UNL     1      -1.027  11.114  18.364  0.00  0.00    +0.000 A 
ATOM     28  C   UNL     1      -1.968  11.933  19.000  0.00  0.00    +0.000 A 
ATOM     29  C   UNL     1      -3.332  11.762  18.757  0.00  0.00    +0.000 A 
ENDBRANCH  22  27
ENDBRANCH  18  22
ENDBRANCH   1  19
TORSDOF 4
ENDMDL
MODEL 9
REMARK VINA RESULT:      -8.2      5.093      5.648
REMARK  Name = 
REMARK  5 active torsions:
REMARK  status: ('A' for Active; 'I' for Inactive)
REMARK    1  A    between atoms: C_1  and  C_2
REMARK    2  A    between atoms: C_5  and  C_6
REMARK    3  A    between atoms: C_6  and  N_7
REMARK    4  A    between atoms: C_8  and  C_10
REMARK    5  A    between atoms: C_13  and  N_14
REMARK                            x       y       z     vdW  Elec       q    Type
REMARK                         _______ _______ _______ _____ _____    ______ ____
ROOT
ATOM      1  C   UNL     1       2.496   7.901  18.585  0.00  0.00    +0.000 A 
ATOM      2  C   UNL     1       2.555   6.946  19.604  0.00  0.00    +0.000 A 
ATOM      3  C   UNL     1       3.384   5.836  19.472  0.00  0.00    +0.000 A 
ATOM      4  C   UNL     1       4.117   5.653  18.292  0.00  0.00    +0.000 A 
ATOM      5  C   UNL     1       4.230   6.723  17.382  0.00  0.00    +0.000 A 
ATOM      6  C   UNL     1       3.393   7.835  17.514  0.00  0.00    +0.000 A 
ENDROOT
BRANCH   4   7
ATOM      7  N   UNL     1       4.324   4.281  17.854  0.00  0.00    +0.000 N 
ATOM      8  C   UNL     1       3.467   3.799  16.888  0.00  0.00    +0.000 A 
ATOM      9  N   UNL     1       2.385   3.125  17.131  0.00  0.00    +0.000 NA
ATOM     10  C   UNL     1       2.063   2.975  18.498  0.00  0.00    +0.000 A 
ATOM     11  C   UNL     1       0.733   2.904  18.894  0.00  0.00    +0.000 A 
ATOM     12  C   UNL     1       0.406   2.959  20.254  0.00  0.00    +0.000 A 
ATOM     13  C   UNL     1       1.412   3.038  21.224  0.00  0.00    +0.000 A 
ATOM     14  C   UNL     1       2.752   3.074  20.843  0.00  0.00    +0.000 A 
ATOM     15  C   UNL     1       3.055   3.063  19.480  0.00  0.00    +0.000 A 
ATOM     16  C   UNL     1       4.394   3.438  18.974  0.00  0.00    +0.000 A 
ATOM     17  O   UNL     1       5.419   3.092  19.546  0.00  0.00    +0.000 OA
ENDBRANCH   4   7
BRANCH   1  19
ATOM     18  N   UNL     1       0.888   9.292  19.792  0.00  0.00    +0.000 N 
ATOM     19  C   UNL     1       1.326   8.819  18.579  0.00  0.00    +0.000 C 
ATOM     20  O   UNL     1       0.819   9.137  17.509  0.00  0.00    +0.000 OA
ATOM     21  H   UNL     1       1.177   8.834  20.645  0.00  0.00    +0.000 HD
BRANCH  18  22
ATOM     22  C   UNL     1      -0.271  10.157  19.841  0.00  0.00    +0.000 C 
BRANCH  22  27
ATOM     23  C   UNL     1       1.309  15.681  18.928  0.00  0.00    +0.000 C 
ATOM     24  C   UNL     1       0.864  14.273  19.187  0.00  0.00    +0.000 A 
ATOM     25  C   UNL     1      -0.210  13.714  18.486  0.00  0.00    +0.000 A 
ATOM     26  C   UNL     1      -0.584  12.387  18.706  0.00  0.00    +0.000 A 
ATOM     27  C   UNL     1       0.112  11.595  19.630  0.00  0.00    +0.000 A 
ATOM     28  C   UNL     1       1.165  12.165  20.355  0.00  0.00    +0.000 A 
ATOM     29  C   UNL     1       1.537  13.493  20.135  0.00  0.00    +0.000 A 
ENDBRANCH  22  27
ENDBRANCH  18  22
ENDBRANCH   1  19
TORSDOF 4
ENDMDL
