MODEL 1
REMARK VINA RESULT:      -7.7      0.000      0.000
REMARK  Name = 
REMARK  4 active torsions:
REMARK  status: ('A' for Active; 'I' for Inactive)
REMARK    1  A    between atoms: N_3  and  C_4
REMARK    2  A    between atoms: C_4  and  C_5
REMARK    3  A    between atoms: N_10  and  C_11
REMARK    4  A    between atoms: C_16  and  C_17
REMARK                            x       y       z     vdW  Elec       q    Type
REMARK                         _______ _______ _______ _____ _____    ______ ____
ROOT
ATOM      1  C   UNL     1       2.854   6.046  18.671  0.00  0.00    +0.000 A 
ATOM      2  C   UNL     1       2.447   5.321  19.807  0.00  0.00    +0.000 A 
ATOM      3  C   UNL     1       1.698   5.913  20.837  0.00  0.00    +0.000 A 
ATOM      4  C   UNL     1       1.360   7.260  20.710  0.00  0.00    +0.000 A 
ATOM      5  N   UNL     1       0.625   8.081  21.525  0.00  0.00    +0.000 NA
ATOM      6  C   UNL     1       0.639   9.245  20.896  0.00  0.00    +0.000 A 
ATOM      7  O   UNL     1       1.346   9.242  19.713  0.00  0.00    +0.000 OA
ATOM      8  C   UNL     1       1.801   7.961  19.600  0.00  0.00    +0.000 A 
ATOM      9  C   UNL     1       2.561   7.415  18.567  0.00  0.00    +0.000 A 
ENDROOT
BRANCH   1  13
ATOM     10  O   UNL     1       5.752   5.807  18.265  0.00  0.00    +0.000 OA
ATOM     11  C   UNL     1       4.926   5.380  17.468  0.00  0.00    +0.000 C 
ATOM     12  N   UNL     1       5.303   4.719  16.322  0.00  0.00    +0.000 N 
ATOM     13  N   UNL     1       3.555   5.439  17.601  0.00  0.00    +0.000 N 
ATOM     14  H   UNL     1       4.670   4.737  15.538  0.00  0.00    +0.000 HD
ATOM     15  H   UNL     1       3.033   4.809  17.009  0.00  0.00    +0.000 HD
BRANCH  12  16
ATOM     16  C   UNL     1       6.709   4.628  15.991  0.00  0.00    +0.000 C 
BRANCH  16  17
ATOM     17  C   UNL     1       6.859   4.568  14.519  0.00  0.00    +0.000 A 
ATOM     18  C   UNL     1       6.235   3.818  13.543  0.00  0.00    +0.000 A 
ATOM     19  C   UNL     1       6.812   4.205  12.311  0.00  0.00    +0.000 A 
ATOM     20  C   UNL     1       7.753   5.161  12.614  0.00  0.00    +0.000 A 
ATOM     21  O   UNL     1       7.790   5.389  13.953  0.00  0.00    +0.000 OA
ENDBRANCH  16  17
ENDBRANCH  12  16
ENDBRANCH   1  13
BRANCH   6  22
ATOM     22  C   UNL     1       0.018  10.508  21.302  0.00  0.00    +0.000 A 
ATOM     23  C   UNL     1      -0.622  10.613  22.537  0.00  0.00    +0.000 A 
ATOM     24  C   UNL     1      -1.165  11.838  22.913  0.00  0.00    +0.000 A 
ATOM     25  C   UNL     1      -1.061  12.921  22.049  0.00  0.00    +0.000 A 
ATOM     26  C   UNL     1      -0.421  12.730  20.835  0.00  0.00    +0.000 A 
ATOM     27  N   UNL     1       0.118  11.555  20.442  0.00  0.00    +0.000 NA
ENDBRANCH   6  22
TORSDOF 4
ENDMDL
MODEL 2
REMARK VINA RESULT:      -7.6      2.850      4.450
REMARK  Name = 
REMARK  4 active torsions:
REMARK  status: ('A' for Active; 'I' for Inactive)
REMARK    1  A    between atoms: N_3  and  C_4
REMARK    2  A    between atoms: C_4  and  C_5
REMARK    3  A    between atoms: N_10  and  C_11
REMARK    4  A    between atoms: C_16  and  C_17
REMARK                            x       y       z     vdW  Elec       q    Type
REMARK                         _______ _______ _______ _____ _____    ______ ____
ROOT
ATOM      1  C   UNL     1       1.186   8.648  20.771  0.00  0.00    +0.000 A 
ATOM      2  C   UNL     1       0.732   9.245  19.580  0.00  0.00    +0.000 A 
ATOM      3  C   UNL     1      -0.052  10.410  19.585  0.00  0.00    +0.000 A 
ATOM      4  C   UNL     1      -0.377  10.975  20.818  0.00  0.00    +0.000 A 
ATOM      5  N   UNL     1      -1.087  12.106  21.128  0.00  0.00    +0.000 NA
ATOM      6  C   UNL     1      -1.070  12.138  22.451  0.00  0.00    +0.000 A 
ATOM      7  O   UNL     1      -0.393  11.089  23.035  0.00  0.00    +0.000 OA
ATOM      8  C   UNL     1       0.053  10.350  21.977  0.00  0.00    +0.000 A 
ATOM      9  C   UNL     1       0.814   9.183  22.014  0.00  0.00    +0.000 A 
ENDROOT
BRANCH   1  13
ATOM     10  O   UNL     1       2.487   7.318  18.499  0.00  0.00    +0.000 OA
ATOM     11  C   UNL     1       2.591   6.925  19.655  0.00  0.00    +0.000 C 
ATOM     12  N   UNL     1       3.363   5.835  19.980  0.00  0.00    +0.000 N 
ATOM     13  N   UNL     1       2.027   7.508  20.770  0.00  0.00    +0.000 N 
ATOM     14  H   UNL     1       3.125   5.321  20.814  0.00  0.00    +0.000 HD
ATOM     15  H   UNL     1       2.428   7.233  21.654  0.00  0.00    +0.000 HD
BRANCH  12  16
ATOM     16  C   UNL     1       3.974   5.062  18.920  0.00  0.00    +0.000 C 
BRANCH  16  17
ATOM     17  C   UNL     1       5.378   5.498  18.747  0.00  0.00    +0.000 A 
ATOM     18  C   UNL     1       6.027   6.199  17.750  0.00  0.00    +0.000 A 
ATOM     19  C   UNL     1       7.379   6.304  18.151  0.00  0.00    +0.000 A 
ATOM     20  C   UNL     1       7.470   5.659  19.362  0.00  0.00    +0.000 A 
ATOM     21  O   UNL     1       6.261   5.164  19.734  0.00  0.00    +0.000 OA
ENDBRANCH  16  17
ENDBRANCH  12  16
ENDBRANCH   1  13
BRANCH   6  22
ATOM     22  C   UNL     1      -1.679  13.124  23.346  0.00  0.00    +0.000 A 
ATOM     23  C   UNL     1      -3.033  13.040  23.669  0.00  0.00    +0.000 A 
ATOM     24  C   UNL     1      -3.574  13.967  24.556  0.00  0.00    +0.000 A 
ATOM     25  C   UNL     1      -2.753  14.951  25.093  0.00  0.00    +0.000 A 
ATOM     26  C   UNL     1      -1.422  14.972  24.712  0.00  0.00    +0.000 A 
ATOM     27  N   UNL     1      -0.867  14.087  23.855  0.00  0.00    +0.000 NA
ENDBRANCH   6  22
TORSDOF 4
ENDMDL
MODEL 3
REMARK VINA RESULT:      -7.6      0.871      1.051
REMARK  Name = 
REMARK  4 active torsions:
REMARK  status: ('A' for Active; 'I' for Inactive)
REMARK    1  A    between atoms: N_3  and  C_4
REMARK    2  A    between atoms: C_4  and  C_5
REMARK    3  A    between atoms: N_10  and  C_11
REMARK    4  A    between atoms: C_16  and  C_17
REMARK                            x       y       z     vdW  Elec       q    Type
REMARK                         _______ _______ _______ _____ _____    ______ ____
ROOT
ATOM      1  C   UNL     1       3.241   5.513  18.525  0.00  0.00    +0.000 A 
ATOM      2  C   UNL     1       2.864   4.720  19.625  0.00  0.00    +0.000 A 
ATOM      3  C   UNL     1       2.109   5.238  20.691  0.00  0.00    +0.000 A 
ATOM      4  C   UNL     1       1.733   6.580  20.636  0.00  0.00    +0.000 A 
ATOM      5  N   UNL     1       0.984   7.338  21.497  0.00  0.00    +0.000 NA
ATOM      6  C   UNL     1       0.960   8.532  20.928  0.00  0.00    +0.000 A 
ATOM      7  O   UNL     1       1.656   8.609  19.742  0.00  0.00    +0.000 OA
ATOM      8  C   UNL     1       2.145   7.348  19.559  0.00  0.00    +0.000 A 
ATOM      9  C   UNL     1       2.910   6.877  18.494  0.00  0.00    +0.000 A 
ENDROOT
BRANCH   1  13
ATOM     10  O   UNL     1       6.013   6.015  17.696  0.00  0.00    +0.000 OA
ATOM     11  C   UNL     1       5.251   5.278  17.081  0.00  0.00    +0.000 C 
ATOM     12  N   UNL     1       5.657   4.597  15.957  0.00  0.00    +0.000 N 
ATOM     13  N   UNL     1       3.949   4.981  17.420  0.00  0.00    +0.000 N 
ATOM     14  H   UNL     1       4.954   4.338  15.283  0.00  0.00    +0.000 HD
ATOM     15  H   UNL     1       3.560   4.161  16.978  0.00  0.00    +0.000 HD
BRANCH  12  16
ATOM     16  C   UNL     1       6.978   4.846  15.420  0.00  0.00    +0.000 C 
BRANCH  16  17
ATOM     17  C   UNL     1       6.979   4.541  13.971  0.00  0.00    +0.000 A 
ATOM     18  C   UNL     1       7.678   5.065  12.902  0.00  0.00    +0.000 A 
ATOM     19  C   UNL     1       7.242   4.362  11.756  0.00  0.00    +0.000 A 
ATOM     20  C   UNL     1       6.304   3.458  12.196  0.00  0.00    +0.000 A 
ATOM     21  O   UNL     1       6.135   3.558  13.540  0.00  0.00    +0.000 OA
ENDBRANCH  16  17
ENDBRANCH  12  16
ENDBRANCH   1  13
BRANCH   6  22
ATOM     22  C   UNL     1       0.309   9.755  21.403  0.00  0.00    +0.000 A 
ATOM     23  C   UNL     1      -0.448   9.740  22.575  0.00  0.00    +0.000 A 
ATOM     24  C   UNL     1      -1.020  10.928  23.024  0.00  0.00    +0.000 A 
ATOM     25  C   UNL     1      -0.826  12.093  22.292  0.00  0.00    +0.000 A 
ATOM     26  C   UNL     1      -0.072  12.020  21.133  0.00  0.00    +0.000 A 
ATOM     27  N   UNL     1       0.497  10.884  20.672  0.00  0.00    +0.000 NA
ENDBRANCH   6  22
TORSDOF 4
ENDMDL
MODEL 4
REMARK VINA RESULT:      -7.6      0.738      1.000
REMARK  Name = 
REMARK  4 active torsions:
REMARK  status: ('A' for Active; 'I' for Inactive)
REMARK    1  A    between atoms: N_3  and  C_4
REMARK    2  A    between atoms: C_4  and  C_5
REMARK    3  A    between atoms: N_10  and  C_11
REMARK    4  A    between atoms: C_16  and  C_17
REMARK                            x       y       z     vdW  Elec       q    Type
REMARK                         _______ _______ _______ _____ _____    ______ ____
ROOT
ATOM      1  C   UNL     1       2.976   6.240  18.534  0.00  0.00    +0.000 A 
ATOM      2  C   UNL     1       2.636   5.673  19.776  0.00  0.00    +0.000 A 
ATOM      3  C   UNL     1       1.887   6.375  20.735  0.00  0.00    +0.000 A 
ATOM      4  C   UNL     1       1.479   7.672  20.424  0.00  0.00    +0.000 A 
ATOM      5  N   UNL     1       0.727   8.570  21.135  0.00  0.00    +0.000 NA
ATOM      6  C   UNL     1       0.666   9.629  20.342  0.00  0.00    +0.000 A 
ATOM      7  O   UNL     1       1.340   9.484  19.150  0.00  0.00    +0.000 OA
ATOM      8  C   UNL     1       1.856   8.221  19.209  0.00  0.00    +0.000 A 
ATOM      9  C   UNL     1       2.614   7.564  18.241  0.00  0.00    +0.000 A 
ENDROOT
BRANCH   1  13
ATOM     10  O   UNL     1       5.870   6.089  18.059  0.00  0.00    +0.000 OA
ATOM     11  C   UNL     1       5.045   5.505  17.366  0.00  0.00    +0.000 C 
ATOM     12  N   UNL     1       5.424   4.699  16.319  0.00  0.00    +0.000 N 
ATOM     13  N   UNL     1       3.678   5.514  17.540  0.00  0.00    +0.000 N 
ATOM     14  H   UNL     1       4.768   4.566  15.565  0.00  0.00    +0.000 HD
ATOM     15  H   UNL     1       3.174   4.777  17.070  0.00  0.00    +0.000 HD
BRANCH  12  16
ATOM     16  C   UNL     1       6.823   4.630  15.951  0.00  0.00    +0.000 C 
BRANCH  16  17
ATOM     17  C   UNL     1       6.935   4.574  14.476  0.00  0.00    +0.000 A 
ATOM     18  C   UNL     1       6.296   3.818  13.514  0.00  0.00    +0.000 A 
ATOM     19  C   UNL     1       6.837   4.214  12.269  0.00  0.00    +0.000 A 
ATOM     20  C   UNL     1       7.773   5.181  12.550  0.00  0.00    +0.000 A 
ATOM     21  O   UNL     1       7.843   5.407  13.888  0.00  0.00    +0.000 OA
ENDBRANCH  16  17
ENDBRANCH  12  16
ENDBRANCH   1  13
BRANCH   6  22
ATOM     22  C   UNL     1      -0.005  10.908  20.581  0.00  0.00    +0.000 A 
ATOM     23  C   UNL     1      -1.009  11.349  19.718  0.00  0.00    +0.000 A 
ATOM     24  C   UNL     1      -1.658  12.549  19.995  0.00  0.00    +0.000 A 
ATOM     25  C   UNL     1      -1.287  13.277  21.119  0.00  0.00    +0.000 A 
ATOM     26  C   UNL     1      -0.272  12.776  21.918  0.00  0.00    +0.000 A 
ATOM     27  N   UNL     1       0.375  11.615  21.677  0.00  0.00    +0.000 NA
ENDBRANCH   6  22
TORSDOF 4
ENDMDL
MODEL 5
REMARK VINA RESULT:      -7.5      2.688      4.232
REMARK  Name = 
REMARK  4 active torsions:
REMARK  status: ('A' for Active; 'I' for Inactive)
REMARK    1  A    between atoms: N_3  and  C_4
REMARK    2  A    between atoms: C_4  and  C_5
REMARK    3  A    between atoms: N_10  and  C_11
REMARK    4  A    between atoms: C_16  and  C_17
REMARK                            x       y       z     vdW  Elec       q    Type
REMARK                         _______ _______ _______ _____ _____    ______ ____
ROOT
ATOM      1  C   UNL     1       1.389   8.361  20.637  0.00  0.00    +0.000 A 
ATOM      2  C   UNL     1       1.161   9.107  19.466  0.00  0.00    +0.000 A 
ATOM      3  C   UNL     1       0.358  10.260  19.463  0.00  0.00    +0.000 A 
ATOM      4  C   UNL     1      -0.219  10.659  20.668  0.00  0.00    +0.000 A 
ATOM      5  N   UNL     1      -1.008  11.737  20.972  0.00  0.00    +0.000 NA
ATOM      6  C   UNL     1      -1.252  11.597  22.265  0.00  0.00    +0.000 A 
ATOM      7  O   UNL     1      -0.674  10.483  22.833  0.00  0.00    +0.000 OA
ATOM      8  C   UNL     1      -0.008   9.889  21.800  0.00  0.00    +0.000 A 
ATOM      9  C   UNL     1       0.764   8.729  21.840  0.00  0.00    +0.000 A 
ENDROOT
BRANCH   1  13
ATOM     10  O   UNL     1       2.422   6.788  18.384  0.00  0.00    +0.000 OA
ATOM     11  C   UNL     1       2.678   6.531  19.554  0.00  0.00    +0.000 C 
ATOM     12  N   UNL     1       3.506   5.489  19.900  0.00  0.00    +0.000 N 
ATOM     13  N   UNL     1       2.246   7.234  20.658  0.00  0.00    +0.000 N 
ATOM     14  H   UNL     1       3.384   5.073  20.810  0.00  0.00    +0.000 HD
ATOM     15  H   UNL     1       2.760   7.065  21.510  0.00  0.00    +0.000 HD
BRANCH  12  16
ATOM     16  C   UNL     1       3.995   4.603  18.865  0.00  0.00    +0.000 C 
BRANCH  16  17
ATOM     17  C   UNL     1       5.437   4.859  18.647  0.00  0.00    +0.000 A 
ATOM     18  C   UNL     1       6.290   4.586  17.597  0.00  0.00    +0.000 A 
ATOM     19  C   UNL     1       7.562   5.072  17.978  0.00  0.00    +0.000 A 
ATOM     20  C   UNL     1       7.406   5.605  19.235  0.00  0.00    +0.000 A 
ATOM     21  O   UNL     1       6.119   5.481  19.653  0.00  0.00    +0.000 OA
ENDBRANCH  16  17
ENDBRANCH  12  16
ENDBRANCH   1  13
BRANCH   6  22
ATOM     22  C   UNL     1      -2.054  12.455  23.140  0.00  0.00    +0.000 A 
ATOM     23  C   UNL     1      -1.596  13.724  23.493  0.00  0.00    +0.000 A 
ATOM     24  C   UNL     1      -2.399  14.534  24.291  0.00  0.00    +0.000 A 
ATOM     25  C   UNL     1      -3.632  14.056  24.718  0.00  0.00    +0.000 A 
ATOM     26  C   UNL     1      -4.008  12.779  24.334  0.00  0.00    +0.000 A 
ATOM     27  N   UNL     1      -3.251  11.971  23.559  0.00  0.00    +0.000 NA
ENDBRANCH   6  22
TORSDOF 4
ENDMDL
MODEL 6
REMARK VINA RESULT:      -7.5      1.419      2.145
REMARK  Name = 
REMARK  4 active torsions:
REMARK  status: ('A' for Active; 'I' for Inactive)
REMARK    1  A    between atoms: N_3  and  C_4
REMARK    2  A    between atoms: C_4  and  C_5
REMARK    3  A    between atoms: N_10  and  C_11
REMARK    4  A    between atoms: C_16  and  C_17
REMARK                            x       y       z     vdW  Elec       q    Type
REMARK                         _______ _______ _______ _____ _____    ______ ____
ROOT
ATOM      1  C   UNL     1       2.890   7.191  18.621  0.00  0.00    +0.000 A 
ATOM      2  C   UNL     1       2.722   8.039  17.511  0.00  0.00    +0.000 A 
ATOM      3  C   UNL     1       1.900   9.178  17.564  0.00  0.00    +0.000 A 
ATOM      4  C   UNL     1       1.242   9.455  18.761  0.00  0.00    +0.000 A 
ATOM      5  N   UNL     1       0.416  10.491  19.111  0.00  0.00    +0.000 NA
ATOM      6  C   UNL     1       0.094  10.227  20.368  0.00  0.00    +0.000 A 
ATOM      7  O   UNL     1       0.656   9.073  20.867  0.00  0.00    +0.000 OA
ATOM      8  C   UNL     1       1.396   8.586  19.828  0.00  0.00    +0.000 A 
ATOM      9  C   UNL     1       2.185   7.437  19.810  0.00  0.00    +0.000 A 
ENDROOT
BRANCH   1  13
ATOM     10  O   UNL     1       5.588   6.992  17.479  0.00  0.00    +0.000 OA
ATOM     11  C   UNL     1       5.018   6.052  18.020  0.00  0.00    +0.000 C 
ATOM     12  N   UNL     1       5.623   4.826  18.161  0.00  0.00    +0.000 N 
ATOM     13  N   UNL     1       3.765   6.077  18.593  0.00  0.00    +0.000 N 
ATOM     14  H   UNL     1       5.031   4.013  18.234  0.00  0.00    +0.000 HD
ATOM     15  H   UNL     1       3.561   5.318  19.227  0.00  0.00    +0.000 HD
BRANCH  12  16
ATOM     16  C   UNL     1       6.919   4.604  17.554  0.00  0.00    +0.000 C 
BRANCH  16  17
ATOM     17  C   UNL     1       6.750   4.462  16.089  0.00  0.00    +0.000 A 
ATOM     18  C   UNL     1       5.947   3.652  15.311  0.00  0.00    +0.000 A 
ATOM     19  C   UNL     1       6.239   3.974  13.966  0.00  0.00    +0.000 A 
ATOM     20  C   UNL     1       7.203   4.954  14.007  0.00  0.00    +0.000 A 
ATOM     21  O   UNL     1       7.522   5.258  15.293  0.00  0.00    +0.000 OA
ENDBRANCH  16  17
ENDBRANCH  12  16
ENDBRANCH   1  13
BRANCH   6  22
ATOM     22  C   UNL     1      -0.776  10.991  21.265  0.00  0.00    +0.000 A 
ATOM     23  C   UNL     1      -1.522  12.064  20.778  0.00  0.00    +0.000 A 
ATOM     24  C   UNL     1      -2.372  12.744  21.646  0.00  0.00    +0.000 A 
ATOM     25  C   UNL     1      -2.452  12.340  22.972  0.00  0.00    +0.000 A 
ATOM     26  C   UNL     1      -1.669  11.272  23.379  0.00  0.00    +0.000 A 
ATOM     27  N   UNL     1      -0.836  10.592  22.562  0.00  0.00    +0.000 NA
ENDBRANCH   6  22
TORSDOF 4
ENDMDL
MODEL 7
REMARK VINA RESULT:      -7.5      1.559      9.938
REMARK  Name = 
REMARK  4 active torsions:
REMARK  status: ('A' for Active; 'I' for Inactive)
REMARK    1  A    between atoms: N_3  and  C_4
REMARK    2  A    between atoms: C_4  and  C_5
REMARK    3  A    between atoms: N_10  and  C_11
REMARK    4  A    between atoms: C_16  and  C_17
REMARK                            x       y       z     vdW  Elec       q    Type
REMARK                         _______ _______ _______ _____ _____    ______ ____
ROOT
ATOM      1  C   UNL     1       3.034   6.263  19.153  0.00  0.00    +0.000 A 
ATOM      2  C   UNL     1       3.185   4.920  19.545  0.00  0.00    +0.000 A 
ATOM      3  C   UNL     1       3.881   3.989  18.757  0.00  0.00    +0.000 A 
ATOM      4  C   UNL     1       4.432   4.431  17.555  0.00  0.00    +0.000 A 
ATOM      5  N   UNL     1       5.176   3.771  16.612  0.00  0.00    +0.000 NA
ATOM      6  C   UNL     1       5.416   4.695  15.695  0.00  0.00    +0.000 A 
ATOM      7  O   UNL     1       4.867   5.927  15.974  0.00  0.00    +0.000 OA
ATOM      8  C   UNL     1       4.241   5.749  17.174  0.00  0.00    +0.000 A 
ATOM      9  C   UNL     1       3.540   6.698  17.918  0.00  0.00    +0.000 A 
ENDROOT
BRANCH   1  13
ATOM     10  O   UNL     1       1.645   8.727  18.366  0.00  0.00    +0.000 OA
ATOM     11  C   UNL     1       1.766   8.369  19.531  0.00  0.00    +0.000 C 
ATOM     12  N   UNL     1       1.224   9.091  20.568  0.00  0.00    +0.000 N 
ATOM     13  N   UNL     1       2.386   7.220  19.972  0.00  0.00    +0.000 N 
ATOM     14  H   UNL     1       1.653   9.006  21.476  0.00  0.00    +0.000 HD
ATOM     15  H   UNL     1       2.161   6.938  20.915  0.00  0.00    +0.000 HD
BRANCH  12  16
ATOM     16  C   UNL     1       0.596  10.365  20.288  0.00  0.00    +0.000 C 
BRANCH  16  17
ATOM     17  C   UNL     1      -0.259  10.747  21.435  0.00  0.00    +0.000 A 
ATOM     18  C   UNL     1      -0.587  10.110  22.615  0.00  0.00    +0.000 A 
ATOM     19  C   UNL     1      -1.455  10.981  23.312  0.00  0.00    +0.000 A 
ATOM     20  C   UNL     1      -1.605  12.091  22.514  0.00  0.00    +0.000 A 
ATOM     21  O   UNL     1      -0.884  11.959  21.370  0.00  0.00    +0.000 OA
ENDBRANCH  16  17
ENDBRANCH  12  16
ENDBRANCH   1  13
BRANCH   6  22
ATOM     22  C   UNL     1       6.166   4.563  14.444  0.00  0.00    +0.000 A 
ATOM     23  C   UNL     1       5.735   3.679  13.455  0.00  0.00    +0.000 A 
ATOM     24  C   UNL     1       6.445   3.607  12.259  0.00  0.00    +0.000 A 
ATOM     25  C   UNL     1       7.563   4.412  12.084  0.00  0.00    +0.000 A 
ATOM     26  C   UNL     1       7.932   5.254  13.121  0.00  0.00    +0.000 A 
ATOM     27  N   UNL     1       7.264   5.348  14.291  0.00  0.00    +0.000 NA
ENDBRANCH   6  22
TORSDOF 4
ENDMDL
MODEL 8
REMARK VINA RESULT:      -7.4      1.527      2.138
REMARK  Name = 
REMARK  4 active torsions:
REMARK  status: ('A' for Active; 'I' for Inactive)
REMARK    1  A    between atoms: N_3  and  C_4
REMARK    2  A    between atoms: C_4  and  C_5
REMARK    3  A    between atoms: N_10  and  C_11
REMARK    4  A    between atoms: C_16  and  C_17
REMARK                            x       y       z     vdW  Elec       q    Type
REMARK                         _______ _______ _______ _____ _____    ______ ____
ROOT
ATOM      1  C   UNL     1       2.493   7.334  18.821  0.00  0.00    +0.000 A 
ATOM      2  C   UNL     1       2.264   8.127  17.681  0.00  0.00    +0.000 A 
ATOM      3  C   UNL     1       1.589   9.357  17.755  0.00  0.00    +0.000 A 
ATOM      4  C   UNL     1       1.141   9.784  19.005  0.00  0.00    +0.000 A 
ATOM      5  N   UNL     1       0.493  10.931  19.381  0.00  0.00    +0.000 NA
ATOM      6  C   UNL     1       0.325  10.786  20.686  0.00  0.00    +0.000 A 
ATOM      7  O   UNL     1       0.821   9.605  21.193  0.00  0.00    +0.000 OA
ATOM      8  C   UNL     1       1.348   8.970  20.106  0.00  0.00    +0.000 A 
ATOM      9  C   UNL     1       1.996   7.736  20.071  0.00  0.00    +0.000 A 
ENDROOT
BRANCH   1  13
ATOM     10  O   UNL     1       5.257   6.893  17.932  0.00  0.00    +0.000 OA
ATOM     11  C   UNL     1       4.523   5.989  18.314  0.00  0.00    +0.000 C 
ATOM     12  N   UNL     1       4.959   4.687  18.385  0.00  0.00    +0.000 N 
ATOM     13  N   UNL     1       3.226   6.124  18.762  0.00  0.00    +0.000 N 
ATOM     14  H   UNL     1       4.269   3.955  18.315  0.00  0.00    +0.000 HD
ATOM     15  H   UNL     1       2.866   5.343  19.290  0.00  0.00    +0.000 HD
BRANCH  12  16
ATOM     16  C   UNL     1       6.277   4.356  17.887  0.00  0.00    +0.000 C 
BRANCH  16  17
ATOM     17  C   UNL     1       6.253   4.368  16.406  0.00  0.00    +0.000 A 
ATOM     18  C   UNL     1       5.320   3.951  15.479  0.00  0.00    +0.000 A 
ATOM     19  C   UNL     1       5.872   4.220  14.206  0.00  0.00    +0.000 A 
ATOM     20  C   UNL     1       7.107   4.780  14.436  0.00  0.00    +0.000 A 
ATOM     21  O   UNL     1       7.350   4.873  15.769  0.00  0.00    +0.000 OA
ENDBRANCH  16  17
ENDBRANCH  12  16
ENDBRANCH   1  13
BRANCH   6  22
ATOM     22  C   UNL     1      -0.319  11.702  21.630  0.00  0.00    +0.000 A 
ATOM     23  C   UNL     1      -1.369  11.260  22.435  0.00  0.00    +0.000 A 
ATOM     24  C   UNL     1      -1.933  12.143  23.352  0.00  0.00    +0.000 A 
ATOM     25  C   UNL     1      -1.440  13.438  23.438  0.00  0.00    +0.000 A 
ATOM     26  C   UNL     1      -0.403  13.802  22.594  0.00  0.00    +0.000 A 
ATOM     27  N   UNL     1       0.166  12.969  21.695  0.00  0.00    +0.000 NA
ENDBRANCH   6  22
TORSDOF 4
ENDMDL
MODEL 9
REMARK VINA RESULT:      -7.4      1.117      1.377
REMARK  Name = 
REMARK  4 active torsions:
REMARK  status: ('A' for Active; 'I' for Inactive)
REMARK    1  A    between atoms: N_3  and  C_4
REMARK    2  A    between atoms: C_4  and  C_5
REMARK    3  A    between atoms: N_10  and  C_11
REMARK    4  A    between atoms: C_16  and  C_17
REMARK                            x       y       z     vdW  Elec       q    Type
REMARK                         _______ _______ _______ _____ _____    ______ ____
ROOT
ATOM      1  C   UNL     1       2.896   6.644  18.335  0.00  0.00    +0.000 A 
ATOM      2  C   UNL     1       2.544   6.273  19.646  0.00  0.00    +0.000 A 
ATOM      3  C   UNL     1       1.847   7.141  20.503  0.00  0.00    +0.000 A 
ATOM      4  C   UNL     1       1.504   8.403  20.019  0.00  0.00    +0.000 A 
ATOM      5  N   UNL     1       0.811   9.430  20.603  0.00  0.00    +0.000 NA
ATOM      6  C   UNL     1       0.795  10.371  19.672  0.00  0.00    +0.000 A 
ATOM      7  O   UNL     1       1.444  10.027  18.507  0.00  0.00    +0.000 OA
ATOM      8  C   UNL     1       1.892   8.758  18.737  0.00  0.00    +0.000 A 
ATOM      9  C   UNL     1       2.601   7.933  17.865  0.00  0.00    +0.000 A 
ENDROOT
BRANCH   1  13
ATOM     10  O   UNL     1       5.769   6.135  18.003  0.00  0.00    +0.000 OA
ATOM     11  C   UNL     1       4.907   5.578  17.334  0.00  0.00    +0.000 C 
ATOM     12  N   UNL     1       5.228   4.634  16.386  0.00  0.00    +0.000 N 
ATOM     13  N   UNL     1       3.545   5.751  17.447  0.00  0.00    +0.000 N 
ATOM     14  H   UNL     1       4.585   4.498  15.621  0.00  0.00    +0.000 HD
ATOM     15  H   UNL     1       2.978   5.030  17.028  0.00  0.00    +0.000 HD
BRANCH  12  16
ATOM     16  C   UNL     1       6.621   4.379  16.088  0.00  0.00    +0.000 C 
BRANCH  16  17
ATOM     17  C   UNL     1       6.824   4.444  14.623  0.00  0.00    +0.000 A 
ATOM     18  C   UNL     1       6.255   3.764  13.565  0.00  0.00    +0.000 A 
ATOM     19  C   UNL     1       6.866   4.265  12.393  0.00  0.00    +0.000 A 
ATOM     20  C   UNL     1       7.771   5.214  12.808  0.00  0.00    +0.000 A 
ATOM     21  O   UNL     1       7.755   5.330  14.162  0.00  0.00    +0.000 OA
ENDBRANCH  16  17
ENDBRANCH  12  16
ENDBRANCH   1  13
BRANCH   6  22
ATOM     22  C   UNL     1       0.196  11.706  19.736  0.00  0.00    +0.000 A 
ATOM     23  C   UNL     1      -0.314  12.192  20.939  0.00  0.00    +0.000 A 
ATOM     24  C   UNL     1      -0.839  13.481  20.978  0.00  0.00    +0.000 A 
ATOM     25  C   UNL     1      -0.846  14.246  19.818  0.00  0.00    +0.000 A 
ATOM     26  C   UNL     1      -0.332  13.684  18.661  0.00  0.00    +0.000 A 
ATOM     27  N   UNL     1       0.185  12.438  18.591  0.00  0.00    +0.000 NA
ENDBRANCH   6  22
TORSDOF 4
ENDMDL
