MODEL 1
REMARK VINA RESULT:      -6.7      0.000      0.000
REMARK  Name = 
REMARK  7 active torsions:
REMARK  status: ('A' for Active; 'I' for Inactive)
REMARK    1  A    between atoms: C_1  and  C_2
REMARK    2  A    between atoms: C_2  and  C_3
REMARK    3  A    between atoms: C_2  and  N_25
REMARK    4  A    between atoms: N_5  and  C_6
REMARK    5  A    between atoms: C_10  and  C_11
REMARK    6  A    between atoms: N_13  and  C_14
REMARK    7  A    between atoms: C_14  and  C_15
REMARK                            x       y       z     vdW  Elec       q    Type
REMARK                         _______ _______ _______ _____ _____    ______ ____
ROOT
ATOM      1  C   UNL     1       0.984  11.290  19.784  0.00  0.00    +0.000 A 
ATOM      2  S   UNL     1       1.645  10.790  18.305  0.00  0.00    +0.000 S 
ATOM      3  C   UNL     1       1.724   9.175  18.831  0.00  0.00    +0.000 A 
ATOM      4  C   UNL     1       1.207   8.999  20.106  0.00  0.00    +0.000 A 
ATOM      5  C   UNL     1       0.763  10.259  20.681  0.00  0.00    +0.000 A 
ATOM      6  C   UNL     1       1.179   7.631  20.737  0.00  0.00    +0.000 C 
ATOM      7  C   UNL     1       2.127   6.640  20.042  0.00  0.00    +0.000 C 
ATOM      8  C   UNL     1       1.998   6.712  18.515  0.00  0.00    +0.000 C 
ATOM      9  C   UNL     1       2.347   8.108  17.982  0.00  0.00    +0.000 C 
ENDROOT
BRANCH   1  12
ATOM     10  C   UNL     1      -0.324  13.278  19.555  0.00  0.00    +0.000 C 
ATOM     11  O   UNL     1      -1.302  12.684  19.107  0.00  0.00    +0.000 OA
ATOM     12  N   UNL     1       0.873  12.660  19.940  0.00  0.00    +0.000 N 
ATOM     13  H   UNL     1       1.195  13.004  20.847  0.00  0.00    +0.000 HD
BRANCH  10  15
ATOM     14  C   UNL     1       1.041  15.449  19.845  0.00  0.00    +0.000 C 
ATOM     15  C   UNL     1      -0.337  14.792  19.889  0.00  0.00    +0.000 C 
BRANCH  15  16
ATOM     16  N   UNL     1      -1.014  14.975  21.172  0.00  0.00    +0.000 N 
ATOM     17  C   UNL     1      -0.411  14.709  22.372  0.00  0.00    +0.000 C 
ATOM     18  O   UNL     1       0.706  14.269  22.574  0.00  0.00    +0.000 OA
ATOM     19  C   UNL     1      -1.332  15.145  23.415  0.00  0.00    +0.000 A 
ATOM     20  C   UNL     1      -1.230  15.080  24.790  0.00  0.00    +0.000 A 
ATOM     21  C   UNL     1      -2.279  15.631  25.533  0.00  0.00    +0.000 A 
ATOM     22  C   UNL     1      -3.385  16.230  24.893  0.00  0.00    +0.000 A 
ATOM     23  C   UNL     1      -3.463  16.287  23.500  0.00  0.00    +0.000 A 
ATOM     24  C   UNL     1      -2.418  15.731  22.790  0.00  0.00    +0.000 A 
ATOM     25  C   UNL     1      -2.189  15.656  21.348  0.00  0.00    +0.000 C 
ATOM     26  O   UNL     1      -2.936  16.157  20.536  0.00  0.00    +0.000 OA
ENDBRANCH  15  16
ENDBRANCH  10  15
ENDBRANCH   1  12
BRANCH   5  27
ATOM     27  C   UNL     1       0.169  10.504  21.999  0.00  0.00    +0.000 C 
ATOM     28  O   UNL     1       0.746  10.204  23.041  0.00  0.00    +0.000 OA
ATOM     29  N   UNL     1      -1.056  11.134  21.975  0.00  0.00    +0.000 N 
ATOM     30  H   UNL     1      -1.336  11.579  21.115  0.00  0.00    +0.000 HD
BRANCH  29  31
ATOM     31  C   UNL     1      -1.733  11.529  23.187  0.00  0.00    +0.000 C 
BRANCH  31  32
ATOM     32  C   UNL     1      -3.068  12.150  22.914  0.00  0.00    +0.000 A 
ATOM     33  C   UNL     1      -3.938  12.520  23.947  0.00  0.00    +0.000 A 
ATOM     34  C   UNL     1      -5.163  13.105  23.639  0.00  0.00    +0.000 A 
ATOM     35  C   UNL     1      -5.485  13.299  22.306  0.00  0.00    +0.000 A 
ATOM     36  N   UNL     1      -4.675  12.950  21.282  0.00  0.00    +0.000 NA
ATOM     37  C   UNL     1      -3.494  12.376  21.608  0.00  0.00    +0.000 A 
ENDBRANCH  31  32
ENDBRANCH  29  31
ENDBRANCH   5  27
TORSDOF 6
ENDMDL
MODEL 2
REMARK VINA RESULT:      -6.2      2.775      6.558
REMARK  Name = 
REMARK  7 active torsions:
REMARK  status: ('A' for Active; 'I' for Inactive)
REMARK    1  A    between atoms: C_1  and  C_2
REMARK    2  A    between atoms: C_2  and  C_3
REMARK    3  A    between atoms: C_2  and  N_25
REMARK    4  A    between atoms: N_5  and  C_6
REMARK    5  A    between atoms: C_10  and  C_11
REMARK    6  A    between atoms: N_13  and  C_14
REMARK    7  A    between atoms: C_14  and  C_15
REMARK                            x       y       z     vdW  Elec       q    Type
REMARK                         _______ _______ _______ _____ _____    ______ ____
ROOT
ATOM      1  C   UNL     1      -2.924  11.795  19.175  0.00  0.00    +0.000 A 
ATOM      2  S   UNL     1      -3.895  10.986  18.043  0.00  0.00    +0.000 S 
ATOM      3  C   UNL     1      -5.272  11.855  18.532  0.00  0.00    +0.000 A 
ATOM      4  C   UNL     1      -4.996  12.792  19.516  0.00  0.00    +0.000 A 
ATOM      5  C   UNL     1      -3.594  12.761  19.905  0.00  0.00    +0.000 A 
ATOM      6  C   UNL     1      -6.090  13.669  20.067  0.00  0.00    +0.000 C 
ATOM      7  C   UNL     1      -7.494  13.122  19.760  0.00  0.00    +0.000 C 
ATOM      8  C   UNL     1      -7.621  12.675  18.299  0.00  0.00    +0.000 C 
ATOM      9  C   UNL     1      -6.625  11.557  17.961  0.00  0.00    +0.000 C 
ENDROOT
BRANCH   1  12
ATOM     10  C   UNL     1      -0.598  11.972  18.650  0.00  0.00    +0.000 C 
ATOM     11  O   UNL     1      -0.740  12.996  17.986  0.00  0.00    +0.000 OA
ATOM     12  N   UNL     1      -1.640  11.297  19.302  0.00  0.00    +0.000 N 
ATOM     13  H   UNL     1      -1.380  11.050  20.258  0.00  0.00    +0.000 HD
BRANCH  10  15
ATOM     14  C   UNL     1       0.729  10.105  19.837  0.00  0.00    +0.000 C 
ATOM     15  C   UNL     1       0.789  11.361  18.972  0.00  0.00    +0.000 C 
BRANCH  15  16
ATOM     16  N   UNL     1       1.631  12.410  19.549  0.00  0.00    +0.000 N 
ATOM     17  C   UNL     1       2.544  13.114  18.811  0.00  0.00    +0.000 C 
ATOM     18  O   UNL     1       2.827  12.983  17.634  0.00  0.00    +0.000 OA
ATOM     19  C   UNL     1       3.078  14.156  19.681  0.00  0.00    +0.000 A 
ATOM     20  C   UNL     1       4.041  15.116  19.448  0.00  0.00    +0.000 A 
ATOM     21  C   UNL     1       4.309  16.014  20.485  0.00  0.00    +0.000 A 
ATOM     22  C   UNL     1       3.613  15.936  21.711  0.00  0.00    +0.000 A 
ATOM     23  C   UNL     1       2.639  14.958  21.921  0.00  0.00    +0.000 A 
ATOM     24  C   UNL     1       2.398  14.080  20.883  0.00  0.00    +0.000 A 
ATOM     25  C   UNL     1       1.440  12.981  20.778  0.00  0.00    +0.000 C 
ATOM     26  O   UNL     1       0.642  12.717  21.652  0.00  0.00    +0.000 OA
ENDBRANCH  15  16
ENDBRANCH  10  15
ENDBRANCH   1  12
BRANCH   5  27
ATOM     27  C   UNL     1      -2.904  13.579  20.907  0.00  0.00    +0.000 C 
ATOM     28  O   UNL     1      -2.888  13.277  22.097  0.00  0.00    +0.000 OA
ATOM     29  N   UNL     1      -2.243  14.678  20.404  0.00  0.00    +0.000 N 
ATOM     30  H   UNL     1      -2.081  14.711  19.409  0.00  0.00    +0.000 HD
BRANCH  29  31
ATOM     31  C   UNL     1      -1.441  15.534  21.243  0.00  0.00    +0.000 C 
BRANCH  31  32
ATOM     32  C   UNL     1      -0.458  16.344  20.454  0.00  0.00    +0.000 A 
ATOM     33  C   UNL     1      -0.146  16.039  19.124  0.00  0.00    +0.000 A 
ATOM     34  C   UNL     1       0.766  16.831  18.431  0.00  0.00    +0.000 A 
ATOM     35  C   UNL     1       1.342  17.903  19.091  0.00  0.00    +0.000 A 
ATOM     36  N   UNL     1       1.072  18.225  20.375  0.00  0.00    +0.000 NA
ATOM     37  C   UNL     1       0.189  17.435  21.028  0.00  0.00    +0.000 A 
ENDBRANCH  31  32
ENDBRANCH  29  31
ENDBRANCH   5  27
TORSDOF 6
ENDMDL
MODEL 3
REMARK VINA RESULT:      -6.1      2.544      7.378
REMARK  Name = 
REMARK  7 active torsions:
REMARK  status: ('A' for Active; 'I' for Inactive)
REMARK    1  A    between atoms: C_1  and  C_2
REMARK    2  A    between atoms: C_2  and  C_3
REMARK    3  A    between atoms: C_2  and  N_25
REMARK    4  A    between atoms: N_5  and  C_6
REMARK    5  A    between atoms: C_10  and  C_11
REMARK    6  A    between atoms: N_13  and  C_14
REMARK    7  A    between atoms: C_14  and  C_15
REMARK                            x       y       z     vdW  Elec       q    Type
REMARK                         _______ _______ _______ _____ _____    ______ ____
ROOT
ATOM      1  C   UNL     1      -2.365  12.044  19.178  0.00  0.00    +0.000 A 
ATOM      2  S   UNL     1      -3.020  11.537  17.697  0.00  0.00    +0.000 S 
ATOM      3  C   UNL     1      -4.606  11.774  18.264  0.00  0.00    +0.000 A 
ATOM      4  C   UNL     1      -4.646  12.281  19.554  0.00  0.00    +0.000 A 
ATOM      5  C   UNL     1      -3.309  12.444  20.106  0.00  0.00    +0.000 A 
ATOM      6  C   UNL     1      -5.966  12.570  20.221  0.00  0.00    +0.000 C 
ATOM      7  C   UNL     1      -7.143  11.861  19.531  0.00  0.00    +0.000 C 
ATOM      8  C   UNL     1      -7.079  12.014  18.006  0.00  0.00    +0.000 C 
ATOM      9  C   UNL     1      -5.794  11.403  17.429  0.00  0.00    +0.000 C 
ENDROOT
BRANCH   1  12
ATOM     10  C   UNL     1      -0.524  10.628  19.745  0.00  0.00    +0.000 C 
ATOM     11  O   UNL     1      -1.238   9.665  20.015  0.00  0.00    +0.000 OA
ATOM     12  N   UNL     1      -0.998  11.869  19.300  0.00  0.00    +0.000 N 
ATOM     13  H   UNL     1      -0.460  12.207  18.499  0.00  0.00    +0.000 HD
BRANCH  10  15
ATOM     14  C   UNL     1       1.682  11.493  18.723  0.00  0.00    +0.000 C 
ATOM     15  C   UNL     1       1.024  10.550  19.728  0.00  0.00    +0.000 C 
BRANCH  15  16
ATOM     16  N   UNL     1       1.413   9.153  19.537  0.00  0.00    +0.000 N 
ATOM     17  C   UNL     1       1.929   8.683  18.360  0.00  0.00    +0.000 C 
ATOM     18  O   UNL     1       2.112   9.290  17.319  0.00  0.00    +0.000 OA
ATOM     19  C   UNL     1       2.328   7.300  18.593  0.00  0.00    +0.000 A 
ATOM     20  C   UNL     1       2.872   6.364  17.738  0.00  0.00    +0.000 A 
ATOM     21  C   UNL     1       3.190   5.115  18.280  0.00  0.00    +0.000 A 
ATOM     22  C   UNL     1       2.966   4.838  19.646  0.00  0.00    +0.000 A 
ATOM     23  C   UNL     1       2.417   5.804  20.493  0.00  0.00    +0.000 A 
ATOM     24  C   UNL     1       2.107   7.027  19.931  0.00  0.00    +0.000 A 
ATOM     25  C   UNL     1       1.557   8.235  20.543  0.00  0.00    +0.000 C 
ATOM     26  O   UNL     1       1.331   8.328  21.730  0.00  0.00    +0.000 OA
ENDBRANCH  15  16
ENDBRANCH  10  15
ENDBRANCH   1  12
BRANCH   5  27
ATOM     27  C   UNL     1      -2.921  12.941  21.429  0.00  0.00    +0.000 C 
ATOM     28  O   UNL     1      -2.046  13.790  21.577  0.00  0.00    +0.000 OA
ATOM     29  N   UNL     1      -3.643  12.418  22.480  0.00  0.00    +0.000 N 
ATOM     30  H   UNL     1      -4.504  11.939  22.263  0.00  0.00    +0.000 HD
BRANCH  29  31
ATOM     31  C   UNL     1      -3.448  12.869  23.836  0.00  0.00    +0.000 C 
BRANCH  31  32
ATOM     32  C   UNL     1      -4.093  14.197  24.091  0.00  0.00    +0.000 A 
ATOM     33  C   UNL     1      -3.416  15.239  24.736  0.00  0.00    +0.000 A 
ATOM     34  C   UNL     1      -4.058  16.457  24.937  0.00  0.00    +0.000 A 
ATOM     35  C   UNL     1      -5.361  16.597  24.490  0.00  0.00    +0.000 A 
ATOM     36  N   UNL     1      -6.050  15.614  23.870  0.00  0.00    +0.000 NA
ATOM     37  C   UNL     1      -5.407  14.437  23.694  0.00  0.00    +0.000 A 
ENDBRANCH  31  32
ENDBRANCH  29  31
ENDBRANCH   5  27
TORSDOF 6
ENDMDL
MODEL 4
REMARK VINA RESULT:      -6.1      2.313      5.124
REMARK  Name = 
REMARK  7 active torsions:
REMARK  status: ('A' for Active; 'I' for Inactive)
REMARK    1  A    between atoms: C_1  and  C_2
REMARK    2  A    between atoms: C_2  and  C_3
REMARK    3  A    between atoms: C_2  and  N_25
REMARK    4  A    between atoms: N_5  and  C_6
REMARK    5  A    between atoms: C_10  and  C_11
REMARK    6  A    between atoms: N_13  and  C_14
REMARK    7  A    between atoms: C_14  and  C_15
REMARK                            x       y       z     vdW  Elec       q    Type
REMARK                         _______ _______ _______ _____ _____    ______ ____
ROOT
ATOM      1  C   UNL     1       0.477   9.655  20.715  0.00  0.00    +0.000 A 
ATOM      2  S   UNL     1       0.708   8.292  21.697  0.00  0.00    +0.000 S 
ATOM      3  C   UNL     1       1.550   7.484  20.460  0.00  0.00    +0.000 A 
ATOM      4  C   UNL     1       1.702   8.258  19.319  0.00  0.00    +0.000 A 
ATOM      5  C   UNL     1       1.062   9.557  19.465  0.00  0.00    +0.000 A 
ATOM      6  C   UNL     1       2.435   7.716  18.119  0.00  0.00    +0.000 C 
ATOM      7  C   UNL     1       2.570   6.185  18.152  0.00  0.00    +0.000 C 
ATOM      8  C   UNL     1       3.016   5.686  19.532  0.00  0.00    +0.000 C 
ATOM      9  C   UNL     1       2.007   6.067  20.625  0.00  0.00    +0.000 C 
ENDROOT
BRANCH   1  12
ATOM     10  C   UNL     1       0.204  11.811  21.712  0.00  0.00    +0.000 C 
ATOM     11  O   UNL     1       1.402  12.077  21.667  0.00  0.00    +0.000 OA
ATOM     12  N   UNL     1      -0.364  10.618  21.244  0.00  0.00    +0.000 N 
ATOM     13  H   UNL     1      -1.197  10.800  20.681  0.00  0.00    +0.000 HD
BRANCH  10  15
ATOM     14  C   UNL     1      -2.301  12.307  22.085  0.00  0.00    +0.000 C 
ATOM     15  C   UNL     1      -0.869  12.830  22.173  0.00  0.00    +0.000 C 
BRANCH  15  16
ATOM     16  N   UNL     1      -0.671  14.075  21.431  0.00  0.00    +0.000 N 
ATOM     17  C   UNL     1      -0.037  15.163  21.968  0.00  0.00    +0.000 C 
ATOM     18  O   UNL     1       0.414  15.296  23.092  0.00  0.00    +0.000 OA
ATOM     19  C   UNL     1       0.100  16.145  20.898  0.00  0.00    +0.000 A 
ATOM     20  C   UNL     1       0.635  17.416  20.908  0.00  0.00    +0.000 A 
ATOM     21  C   UNL     1       0.659  18.106  19.691  0.00  0.00    +0.000 A 
ATOM     22  C   UNL     1       0.162  17.513  18.511  0.00  0.00    +0.000 A 
ATOM     23  C   UNL     1      -0.370  16.222  18.527  0.00  0.00    +0.000 A 
ATOM     24  C   UNL     1      -0.389  15.566  19.741  0.00  0.00    +0.000 A 
ATOM     25  C   UNL     1      -0.845  14.219  20.081  0.00  0.00    +0.000 C 
ATOM     26  O   UNL     1      -1.257  13.435  19.254  0.00  0.00    +0.000 OA
ENDBRANCH  15  16
ENDBRANCH  10  15
ENDBRANCH   1  12
BRANCH   5  27
ATOM     27  C   UNL     1       0.989  10.654  18.496  0.00  0.00    +0.000 C 
ATOM     28  O   UNL     1       0.107  10.713  17.643  0.00  0.00    +0.000 OA
ATOM     29  N   UNL     1       1.951  11.628  18.648  0.00  0.00    +0.000 N 
ATOM     30  H   UNL     1       2.464  11.647  19.516  0.00  0.00    +0.000 HD
BRANCH  29  31
ATOM     31  C   UNL     1       1.964  12.820  17.834  0.00  0.00    +0.000 C 
BRANCH  31  32
ATOM     32  C   UNL     1       2.664  13.960  18.509  0.00  0.00    +0.000 A 
ATOM     33  C   UNL     1       3.064  15.103  17.807  0.00  0.00    +0.000 A 
ATOM     34  C   UNL     1       3.701  16.139  18.484  0.00  0.00    +0.000 A 
ATOM     35  C   UNL     1       3.923  16.000  19.844  0.00  0.00    +0.000 A 
ATOM     36  N   UNL     1       3.558  14.911  20.554  0.00  0.00    +0.000 NA
ATOM     37  C   UNL     1       2.948  13.914  19.871  0.00  0.00    +0.000 A 
ENDBRANCH  31  32
ENDBRANCH  29  31
ENDBRANCH   5  27
TORSDOF 6
ENDMDL
MODEL 5
REMARK VINA RESULT:      -6.1      1.307      1.577
REMARK  Name = 
REMARK  7 active torsions:
REMARK  status: ('A' for Active; 'I' for Inactive)
REMARK    1  A    between atoms: C_1  and  C_2
REMARK    2  A    between atoms: C_2  and  C_3
REMARK    3  A    between atoms: C_2  and  N_25
REMARK    4  A    between atoms: N_5  and  C_6
REMARK    5  A    between atoms: C_10  and  C_11
REMARK    6  A    between atoms: N_13  and  C_14
REMARK    7  A    between atoms: C_14  and  C_15
REMARK                            x       y       z     vdW  Elec       q    Type
REMARK                         _______ _______ _______ _____ _____    ______ ____
ROOT
ATOM      1  C   UNL     1       0.212  12.230  20.143  0.00  0.00    +0.000 A 
ATOM      2  S   UNL     1       0.997  11.952  18.666  0.00  0.00    +0.000 S 
ATOM      3  C   UNL     1       1.260  10.319  19.058  0.00  0.00    +0.000 A 
ATOM      4  C   UNL     1       0.715   9.966  20.284  0.00  0.00    +0.000 A 
ATOM      5  C   UNL     1       0.088  11.104  20.937  0.00  0.00    +0.000 A 
ATOM      6  C   UNL     1       0.836   8.554  20.796  0.00  0.00    +0.000 C 
ATOM      7  C   UNL     1       1.934   7.756  20.073  0.00  0.00    +0.000 C 
ATOM      8  C   UNL     1       1.864   7.948  18.553  0.00  0.00    +0.000 C 
ATOM      9  C   UNL     1       2.052   9.419  18.158  0.00  0.00    +0.000 C 
ENDROOT
BRANCH   1  12
ATOM     10  C   UNL     1       0.810  14.287  21.205  0.00  0.00    +0.000 C 
ATOM     11  O   UNL     1       1.854  13.840  21.673  0.00  0.00    +0.000 OA
ATOM     12  N   UNL     1      -0.081  13.556  20.407  0.00  0.00    +0.000 N 
ATOM     13  H   UNL     1      -0.369  14.091  19.586  0.00  0.00    +0.000 HD
BRANCH  10  15
ATOM     14  C   UNL     1       1.464  16.661  21.978  0.00  0.00    +0.000 C 
ATOM     15  C   UNL     1       0.404  15.779  21.322  0.00  0.00    +0.000 C 
BRANCH  15  16
ATOM     16  N   UNL     1      -0.894  15.852  21.993  0.00  0.00    +0.000 N 
ATOM     17  C   UNL     1      -1.042  15.657  23.339  0.00  0.00    +0.000 C 
ATOM     18  O   UNL     1      -0.188  15.373  24.160  0.00  0.00    +0.000 OA
ATOM     19  C   UNL     1      -2.434  15.950  23.659  0.00  0.00    +0.000 A 
ATOM     20  C   UNL     1      -3.115  15.884  24.857  0.00  0.00    +0.000 A 
ATOM     21  C   UNL     1      -4.457  16.276  24.850  0.00  0.00    +0.000 A 
ATOM     22  C   UNL     1      -5.076  16.725  23.663  0.00  0.00    +0.000 A 
ATOM     23  C   UNL     1      -4.363  16.788  22.463  0.00  0.00    +0.000 A 
ATOM     24  C   UNL     1      -3.042  16.389  22.497  0.00  0.00    +0.000 A 
ATOM     25  C   UNL     1      -2.036  16.363  21.437  0.00  0.00    +0.000 C 
ATOM     26  O   UNL     1      -2.251  16.766  20.314  0.00  0.00    +0.000 OA
ENDBRANCH  15  16
ENDBRANCH  10  15
ENDBRANCH   1  12
BRANCH   5  27
ATOM     27  C   UNL     1      -0.590  11.153  22.236  0.00  0.00    +0.000 C 
ATOM     28  O   UNL     1      -0.108  10.640  23.243  0.00  0.00    +0.000 OA
ATOM     29  N   UNL     1      -1.776  11.854  22.246  0.00  0.00    +0.000 N 
ATOM     30  H   UNL     1      -1.968  12.459  21.463  0.00  0.00    +0.000 HD
BRANCH  29  31
ATOM     31  C   UNL     1      -2.520  12.074  23.463  0.00  0.00    +0.000 C 
BRANCH  31  32
ATOM     32  C   UNL     1      -3.912  12.560  23.197  0.00  0.00    +0.000 A 
ATOM     33  C   UNL     1      -4.876  12.639  24.209  0.00  0.00    +0.000 A 
ATOM     34  C   UNL     1      -6.151  13.109  23.910  0.00  0.00    +0.000 A 
ATOM     35  C   UNL     1      -6.427  13.483  22.606  0.00  0.00    +0.000 A 
ATOM     36  N   UNL     1      -5.526  13.416  21.601  0.00  0.00    +0.000 NA
ATOM     37  C   UNL     1      -4.297  12.948  21.916  0.00  0.00    +0.000 A 
ENDBRANCH  31  32
ENDBRANCH  29  31
ENDBRANCH   5  27
TORSDOF 6
ENDMDL
MODEL 6
REMARK VINA RESULT:      -6.1      2.529      7.263
REMARK  Name = 
REMARK  7 active torsions:
REMARK  status: ('A' for Active; 'I' for Inactive)
REMARK    1  A    between atoms: C_1  and  C_2
REMARK    2  A    between atoms: C_2  and  C_3
REMARK    3  A    between atoms: C_2  and  N_25
REMARK    4  A    between atoms: N_5  and  C_6
REMARK    5  A    between atoms: C_10  and  C_11
REMARK    6  A    between atoms: N_13  and  C_14
REMARK    7  A    between atoms: C_14  and  C_15
REMARK                            x       y       z     vdW  Elec       q    Type
REMARK                         _______ _______ _______ _____ _____    ______ ____
ROOT
ATOM      1  C   UNL     1      -2.361  12.110  19.360  0.00  0.00    +0.000 A 
ATOM      2  S   UNL     1      -2.913  11.614  17.835  0.00  0.00    +0.000 S 
ATOM      3  C   UNL     1      -4.535  11.814  18.305  0.00  0.00    +0.000 A 
ATOM      4  C   UNL     1      -4.665  12.302  19.596  0.00  0.00    +0.000 A 
ATOM      5  C   UNL     1      -3.368  12.480  20.233  0.00  0.00    +0.000 A 
ATOM      6  C   UNL     1      -6.029  12.557  20.185  0.00  0.00    +0.000 C 
ATOM      7  C   UNL     1      -7.147  11.838  19.413  0.00  0.00    +0.000 C 
ATOM      8  C   UNL     1      -6.992  12.014  17.897  0.00  0.00    +0.000 C 
ATOM      9  C   UNL     1      -5.663  11.435  17.393  0.00  0.00    +0.000 C 
ENDROOT
BRANCH   1  12
ATOM     10  C   UNL     1      -0.462  10.665  19.515  0.00  0.00    +0.000 C 
ATOM     11  O   UNL     1      -1.111   9.649  19.278  0.00  0.00    +0.000 OA
ATOM     12  N   UNL     1      -1.001  11.958  19.565  0.00  0.00    +0.000 N 
ATOM     13  H   UNL     1      -0.424  12.621  19.045  0.00  0.00    +0.000 HD
BRANCH  10  15
ATOM     14  C   UNL     1       1.792  11.613  18.691  0.00  0.00    +0.000 C 
ATOM     15  C   UNL     1       1.081  10.667  19.656  0.00  0.00    +0.000 C 
BRANCH  15  16
ATOM     16  N   UNL     1       1.555   9.287  19.553  0.00  0.00    +0.000 N 
ATOM     17  C   UNL     1       1.434   8.385  20.575  0.00  0.00    +0.000 C 
ATOM     18  O   UNL     1       0.976   8.564  21.689  0.00  0.00    +0.000 OA
ATOM     19  C   UNL     1       1.877   7.095  20.058  0.00  0.00    +0.000 A 
ATOM     20  C   UNL     1       1.984   5.867  20.677  0.00  0.00    +0.000 A 
ATOM     21  C   UNL     1       2.408   4.792  19.890  0.00  0.00    +0.000 A 
ATOM     22  C   UNL     1       2.704   4.967  18.521  0.00  0.00    +0.000 A 
ATOM     23  C   UNL     1       2.583   6.221  17.916  0.00  0.00    +0.000 A 
ATOM     24  C   UNL     1       2.169   7.266  18.718  0.00  0.00    +0.000 A 
ATOM     25  C   UNL     1       1.921   8.668  18.387  0.00  0.00    +0.000 C 
ATOM     26  O   UNL     1       2.015   9.107  17.261  0.00  0.00    +0.000 OA
ENDBRANCH  15  16
ENDBRANCH  10  15
ENDBRANCH   1  12
BRANCH   5  27
ATOM     27  C   UNL     1      -3.072  12.964  21.585  0.00  0.00    +0.000 C 
ATOM     28  O   UNL     1      -2.210  13.811  21.800  0.00  0.00    +0.000 OA
ATOM     29  N   UNL     1      -3.864  12.431  22.578  0.00  0.00    +0.000 N 
ATOM     30  H   UNL     1      -4.708  11.955  22.298  0.00  0.00    +0.000 HD
BRANCH  29  31
ATOM     31  C   UNL     1      -3.764  12.869  23.949  0.00  0.00    +0.000 C 
BRANCH  31  32
ATOM     32  C   UNL     1      -4.328  14.242  24.149  0.00  0.00    +0.000 A 
ATOM     33  C   UNL     1      -3.587  15.268  24.747  0.00  0.00    +0.000 A 
ATOM     34  C   UNL     1      -4.154  16.530  24.898  0.00  0.00    +0.000 A 
ATOM     35  C   UNL     1      -5.449  16.728  24.450  0.00  0.00    +0.000 A 
ATOM     36  N   UNL     1      -6.198  15.763  23.874  0.00  0.00    +0.000 NA
ATOM     37  C   UNL     1      -5.627  14.543  23.747  0.00  0.00    +0.000 A 
ENDBRANCH  31  32
ENDBRANCH  29  31
ENDBRANCH   5  27
TORSDOF 6
ENDMDL
MODEL 7
REMARK VINA RESULT:      -6.1      4.867      8.914
REMARK  Name = 
REMARK  7 active torsions:
REMARK  status: ('A' for Active; 'I' for Inactive)
REMARK    1  A    between atoms: C_1  and  C_2
REMARK    2  A    between atoms: C_2  and  C_3
REMARK    3  A    between atoms: C_2  and  N_25
REMARK    4  A    between atoms: N_5  and  C_6
REMARK    5  A    between atoms: C_10  and  C_11
REMARK    6  A    between atoms: N_13  and  C_14
REMARK    7  A    between atoms: C_14  and  C_15
REMARK                            x       y       z     vdW  Elec       q    Type
REMARK                         _______ _______ _______ _____ _____    ______ ____
ROOT
ATOM      1  C   UNL     1       2.679   6.547  18.703  0.00  0.00    +0.000 A 
ATOM      2  S   UNL     1       1.610   5.859  19.826  0.00  0.00    +0.000 S 
ATOM      3  C   UNL     1       2.605   4.492  20.007  0.00  0.00    +0.000 A 
ATOM      4  C   UNL     1       3.770   4.572  19.259  0.00  0.00    +0.000 A 
ATOM      5  C   UNL     1       3.820   5.798  18.477  0.00  0.00    +0.000 A 
ATOM      6  C   UNL     1       4.785   3.459  19.302  0.00  0.00    +0.000 C 
ATOM      7  C   UNL     1       4.201   2.151  19.861  0.00  0.00    +0.000 C 
ATOM      8  C   UNL     1       3.375   2.396  21.129  0.00  0.00    +0.000 C 
ATOM      9  C   UNL     1       2.188   3.332  20.859  0.00  0.00    +0.000 C 
ENDROOT
BRANCH   1  12
ATOM     10  C   UNL     1       1.667   8.707  18.873  0.00  0.00    +0.000 C 
ATOM     11  O   UNL     1       1.597   8.671  20.099  0.00  0.00    +0.000 OA
ATOM     12  N   UNL     1       2.211   7.689  18.078  0.00  0.00    +0.000 N 
ATOM     13  H   UNL     1       2.844   8.067  17.371  0.00  0.00    +0.000 HD
BRANCH  10  15
ATOM     14  C   UNL     1       2.387  11.017  17.975  0.00  0.00    +0.000 C 
ATOM     15  C   UNL     1       1.287   9.960  18.043  0.00  0.00    +0.000 C 
BRANCH  15  16
ATOM     16  N   UNL     1       0.022  10.486  18.557  0.00  0.00    +0.000 N 
ATOM     17  C   UNL     1      -0.041  11.381  19.590  0.00  0.00    +0.000 C 
ATOM     18  O   UNL     1       0.875  11.843  20.247  0.00  0.00    +0.000 OA
ATOM     19  C   UNL     1      -1.437  11.780  19.721  0.00  0.00    +0.000 A 
ATOM     20  C   UNL     1      -2.049  12.633  20.617  0.00  0.00    +0.000 A 
ATOM     21  C   UNL     1      -3.422  12.848  20.456  0.00  0.00    +0.000 A 
ATOM     22  C   UNL     1      -4.137  12.220  19.414  0.00  0.00    +0.000 A 
ATOM     23  C   UNL     1      -3.494  11.364  18.517  0.00  0.00    +0.000 A 
ATOM     24  C   UNL     1      -2.140  11.164  18.702  0.00  0.00    +0.000 A 
ATOM     25  C   UNL     1      -1.189  10.365  17.931  0.00  0.00    +0.000 C 
ATOM     26  O   UNL     1      -1.496   9.767  16.923  0.00  0.00    +0.000 OA
ENDBRANCH  15  16
ENDBRANCH  10  15
ENDBRANCH   1  12
BRANCH   5  27
ATOM     27  C   UNL     1       4.867   6.255  17.559  0.00  0.00    +0.000 C 
ATOM     28  O   UNL     1       5.087   7.448  17.362  0.00  0.00    +0.000 OA
ATOM     29  N   UNL     1       5.609   5.251  16.979  0.00  0.00    +0.000 N 
ATOM     30  H   UNL     1       5.548   4.330  17.386  0.00  0.00    +0.000 HD
BRANCH  29  31
ATOM     31  C   UNL     1       6.736   5.533  16.123  0.00  0.00    +0.000 C 
BRANCH  31  32
ATOM     32  C   UNL     1       6.598   4.898  14.773  0.00  0.00    +0.000 A 
ATOM     33  C   UNL     1       5.519   4.065  14.454  0.00  0.00    +0.000 A 
ATOM     34  C   UNL     1       5.431   3.510  13.181  0.00  0.00    +0.000 A 
ATOM     35  C   UNL     1       6.428   3.800  12.264  0.00  0.00    +0.000 A 
ATOM     36  N   UNL     1       7.487   4.594  12.537  0.00  0.00    +0.000 NA
ATOM     37  C   UNL     1       7.554   5.114  13.784  0.00  0.00    +0.000 A 
ENDBRANCH  31  32
ENDBRANCH  29  31
ENDBRANCH   5  27
TORSDOF 6
ENDMDL
MODEL 8
REMARK VINA RESULT:      -6.0      2.485      6.847
REMARK  Name = 
REMARK  7 active torsions:
REMARK  status: ('A' for Active; 'I' for Inactive)
REMARK    1  A    between atoms: C_1  and  C_2
REMARK    2  A    between atoms: C_2  and  C_3
REMARK    3  A    between atoms: C_2  and  N_25
REMARK    4  A    between atoms: N_5  and  C_6
REMARK    5  A    between atoms: C_10  and  C_11
REMARK    6  A    between atoms: N_13  and  C_14
REMARK    7  A    between atoms: C_14  and  C_15
REMARK                            x       y       z     vdW  Elec       q    Type
REMARK                         _______ _______ _______ _____ _____    ______ ____
ROOT
ATOM      1  C   UNL     1      -2.500  11.944  19.399  0.00  0.00    +0.000 A 
ATOM      2  S   UNL     1      -3.211  11.235  18.032  0.00  0.00    +0.000 S 
ATOM      3  C   UNL     1      -4.760  11.745  18.514  0.00  0.00    +0.000 A 
ATOM      4  C   UNL     1      -4.740  12.493  19.682  0.00  0.00    +0.000 A 
ATOM      5  C   UNL     1      -3.392  12.615  20.216  0.00  0.00    +0.000 A 
ATOM      6  C   UNL     1      -6.019  13.044  20.258  0.00  0.00    +0.000 C 
ATOM      7  C   UNL     1      -7.268  12.346  19.696  0.00  0.00    +0.000 C 
ATOM      8  C   UNL     1      -7.193  12.195  18.172  0.00  0.00    +0.000 C 
ATOM      9  C   UNL     1      -5.984  11.350  17.746  0.00  0.00    +0.000 C 
ENDROOT
BRANCH   1  12
ATOM     10  C   UNL     1      -0.213  12.437  18.905  0.00  0.00    +0.000 C 
ATOM     11  O   UNL     1      -0.487  13.391  18.181  0.00  0.00    +0.000 OA
ATOM     12  N   UNL     1      -1.159  11.651  19.577  0.00  0.00    +0.000 N 
ATOM     13  H   UNL     1      -0.891  11.498  20.550  0.00  0.00    +0.000 HD
BRANCH  10  15
ATOM     14  C   UNL     1       2.301  12.664  18.370  0.00  0.00    +0.000 C 
ATOM     15  C   UNL     1       1.241  12.058  19.286  0.00  0.00    +0.000 C 
BRANCH  15  16
ATOM     16  N   UNL     1       1.329  10.600  19.373  0.00  0.00    +0.000 N 
ATOM     17  C   UNL     1       1.804   9.825  18.350  0.00  0.00    +0.000 C 
ATOM     18  O   UNL     1       2.179  10.178  17.246  0.00  0.00    +0.000 OA
ATOM     19  C   UNL     1       1.877   8.458  18.852  0.00  0.00    +0.000 A 
ATOM     20  C   UNL     1       2.258   7.289  18.226  0.00  0.00    +0.000 A 
ATOM     21  C   UNL     1       2.263   6.125  19.000  0.00  0.00    +0.000 A 
ATOM     22  C   UNL     1       1.898   6.157  20.363  0.00  0.00    +0.000 A 
ATOM     23  C   UNL     1       1.520   7.355  20.975  0.00  0.00    +0.000 A 
ATOM     24  C   UNL     1       1.519   8.488  20.187  0.00  0.00    +0.000 A 
ATOM     25  C   UNL     1       1.206   9.875  20.528  0.00  0.00    +0.000 C 
ATOM     26  O   UNL     1       0.931  10.231  21.654  0.00  0.00    +0.000 OA
ENDBRANCH  15  16
ENDBRANCH  10  15
ENDBRANCH   1  12
BRANCH   5  27
ATOM     27  C   UNL     1      -2.948  13.313  21.426  0.00  0.00    +0.000 C 
ATOM     28  O   UNL     1      -2.130  14.228  21.389  0.00  0.00    +0.000 OA
ATOM     29  N   UNL     1      -3.552  12.895  22.592  0.00  0.00    +0.000 N 
ATOM     30  H   UNL     1      -4.389  12.338  22.511  0.00  0.00    +0.000 HD
BRANCH  29  31
ATOM     31  C   UNL     1      -3.295  13.540  23.856  0.00  0.00    +0.000 C 
BRANCH  31  32
ATOM     32  C   UNL     1      -4.160  14.746  24.065  0.00  0.00    +0.000 A 
ATOM     33  C   UNL     1      -5.449  14.835  23.527  0.00  0.00    +0.000 A 
ATOM     34  C   UNL     1      -6.216  15.973  23.760  0.00  0.00    +0.000 A 
ATOM     35  C   UNL     1      -5.669  16.992  24.522  0.00  0.00    +0.000 A 
ATOM     36  N   UNL     1      -4.427  16.946  25.052  0.00  0.00    +0.000 NA
ATOM     37  C   UNL     1      -3.699  15.833  24.804  0.00  0.00    +0.000 A 
ENDBRANCH  31  32
ENDBRANCH  29  31
ENDBRANCH   5  27
TORSDOF 6
ENDMDL
MODEL 9
REMARK VINA RESULT:      -6.0      2.688      6.484
REMARK  Name = 
REMARK  7 active torsions:
REMARK  status: ('A' for Active; 'I' for Inactive)
REMARK    1  A    between atoms: C_1  and  C_2
REMARK    2  A    between atoms: C_2  and  C_3
REMARK    3  A    between atoms: C_2  and  N_25
REMARK    4  A    between atoms: N_5  and  C_6
REMARK    5  A    between atoms: C_10  and  C_11
REMARK    6  A    between atoms: N_13  and  C_14
REMARK    7  A    between atoms: C_14  and  C_15
REMARK                            x       y       z     vdW  Elec       q    Type
REMARK                         _______ _______ _______ _____ _____    ______ ____
ROOT
ATOM      1  C   UNL     1      -2.504  13.433  20.549  0.00  0.00    +0.000 A 
ATOM      2  S   UNL     1      -4.053  13.508  21.237  0.00  0.00    +0.000 S 
ATOM      3  C   UNL     1      -4.683  12.464  20.052  0.00  0.00    +0.000 A 
ATOM      4  C   UNL     1      -3.718  12.017  19.161  0.00  0.00    +0.000 A 
ATOM      5  C   UNL     1      -2.414  12.593  19.453  0.00  0.00    +0.000 A 
ATOM      6  C   UNL     1      -4.085  11.072  18.047  0.00  0.00    +0.000 C 
ATOM      7  C   UNL     1      -5.598  11.042  17.773  0.00  0.00    +0.000 C 
ATOM      8  C   UNL     1      -6.406  10.942  19.073  0.00  0.00    +0.000 C 
ATOM      9  C   UNL     1      -6.145  12.142  19.995  0.00  0.00    +0.000 C 
ENDROOT
BRANCH   1  12
ATOM     10  C   UNL     1      -0.613  13.797  21.965  0.00  0.00    +0.000 C 
ATOM     11  O   UNL     1      -0.506  12.611  22.269  0.00  0.00    +0.000 OA
ATOM     12  N   UNL     1      -1.582  14.309  21.092  0.00  0.00    +0.000 N 
ATOM     13  H   UNL     1      -1.169  14.953  20.415  0.00  0.00    +0.000 HD
BRANCH  10  15
ATOM     14  C   UNL     1      -0.224  16.108  23.044  0.00  0.00    +0.000 C 
ATOM     15  C   UNL     1       0.410  14.875  22.405  0.00  0.00    +0.000 C 
BRANCH  15  16
ATOM     16  N   UNL     1       1.258  15.200  21.258  0.00  0.00    +0.000 N 
ATOM     17  C   UNL     1       2.371  14.474  20.932  0.00  0.00    +0.000 C 
ATOM     18  O   UNL     1       2.846  13.517  21.515  0.00  0.00    +0.000 OA
ATOM     19  C   UNL     1       2.865  15.001  19.664  0.00  0.00    +0.000 A 
ATOM     20  C   UNL     1       3.968  14.651  18.913  0.00  0.00    +0.000 A 
ATOM     21  C   UNL     1       4.153  15.324  17.702  0.00  0.00    +0.000 A 
ATOM     22  C   UNL     1       3.241  16.312  17.273  0.00  0.00    +0.000 A 
ATOM     23  C   UNL     1       2.129  16.646  18.050  0.00  0.00    +0.000 A 
ATOM     24  C   UNL     1       1.973  15.971  19.245  0.00  0.00    +0.000 A 
ATOM     25  C   UNL     1       0.919  16.066  20.253  0.00  0.00    +0.000 C 
ATOM     26  O   UNL     1      -0.052  16.781  20.125  0.00  0.00    +0.000 OA
ENDBRANCH  15  16
ENDBRANCH  10  15
ENDBRANCH   1  12
BRANCH   5  27
ATOM     27  C   UNL     1      -1.144  12.383  18.751  0.00  0.00    +0.000 C 
ATOM     28  O   UNL     1      -0.569  13.292  18.157  0.00  0.00    +0.000 OA
ATOM     29  N   UNL     1      -0.630  11.109  18.848  0.00  0.00    +0.000 N 
ATOM     30  H   UNL     1      -1.014  10.503  19.558  0.00  0.00    +0.000 HD
BRANCH  29  31
ATOM     31  C   UNL     1       0.655  10.761  18.292  0.00  0.00    +0.000 C 
BRANCH  31  32
ATOM     32  C   UNL     1       1.204   9.497  18.880  0.00  0.00    +0.000 A 
ATOM     33  C   UNL     1       0.971   9.137  20.212  0.00  0.00    +0.000 A 
ATOM     34  C   UNL     1       1.495   7.945  20.705  0.00  0.00    +0.000 A 
ATOM     35  C   UNL     1       2.241   7.150  19.852  0.00  0.00    +0.000 A 
ATOM     36  N   UNL     1       2.493   7.467  18.563  0.00  0.00    +0.000 NA
ATOM     37  C   UNL     1       1.980   8.634  18.111  0.00  0.00    +0.000 A 
ENDBRANCH  31  32
ENDBRANCH  29  31
ENDBRANCH   5  27
TORSDOF 6
ENDMDL
