MODEL 1
REMARK VINA RESULT:      -8.4      0.000      0.000
REMARK  Name = 
REMARK  8 active torsions:
REMARK  status: ('A' for Active; 'I' for Inactive)
REMARK    1  A    between atoms: C_1  and  O_2
REMARK    2  A    between atoms: O_2  and  C_3
REMARK    3  A    between atoms: C_3  and  C_5
REMARK    4  A    between atoms: C_8  and  C_9
REMARK    5  A    between atoms: C_9  and  N_10
REMARK    6  A    between atoms: C_11  and  C_13
REMARK    7  A    between atoms: C_18  and  C_19
REMARK    8  A    between atoms: C_22  and  C_23
REMARK                            x       y       z     vdW  Elec       q    Type
REMARK                         _______ _______ _______ _____ _____    ______ ____
ROOT
ATOM      1  C   UNL     1       6.588   4.877  16.045  0.00  0.00    +0.000 A 
ATOM      2  C   UNL     1       7.351   5.013  14.863  0.00  0.00    +0.000 A 
ATOM      3  C   UNL     1       6.876   4.536  13.645  0.00  0.00    +0.000 A 
ATOM      4  C   UNL     1       5.646   3.899  13.597  0.00  0.00    +0.000 A 
ATOM      5  C   UNL     1       4.870   3.789  14.757  0.00  0.00    +0.000 A 
ATOM      6  C   UNL     1       5.297   4.284  16.014  0.00  0.00    +0.000 A 
ENDROOT
BRANCH   6   7
ATOM      7  C   UNL     1       4.360   4.197  17.178  0.00  0.00    +0.000 A 
ATOM      8  C   UNL     1       3.756   5.345  17.732  0.00  0.00    +0.000 A 
ATOM      9  C   UNL     1       2.909   5.277  18.849  0.00  0.00    +0.000 A 
ATOM     10  C   UNL     1       2.604   4.047  19.436  0.00  0.00    +0.000 A 
ATOM     11  C   UNL     1       3.192   2.896  18.904  0.00  0.00    +0.000 A 
ATOM     12  C   UNL     1       4.076   2.977  17.820  0.00  0.00    +0.000 A 
BRANCH  10  13
ATOM     13  C   UNL     1       1.657   3.942  20.605  0.00  0.00    +0.000 C 
ATOM     14  F   UNL     1       0.625   4.830  20.554  0.00  0.00    +0.000 F 
ATOM     15  F   UNL     1       1.085   2.710  20.705  0.00  0.00    +0.000 F 
ATOM     16  F   UNL     1       2.276   4.162  21.799  0.00  0.00    +0.000 F 
ENDBRANCH  10  13
ENDBRANCH   6   7
BRANCH   1  18
ATOM     17  N   UNL     1       7.476   6.626  17.490  0.00  0.00    +0.000 N 
ATOM     18  C   UNL     1       7.272   5.274  17.311  0.00  0.00    +0.000 C 
ATOM     19  O   UNL     1       7.641   4.429  18.118  0.00  0.00    +0.000 OA
ATOM     20  H   UNL     1       7.064   7.297  16.854  0.00  0.00    +0.000 HD
BRANCH  17  21
ATOM     21  C   UNL     1       8.105   7.147  18.685  0.00  0.00    +0.000 C 
BRANCH  21  25
ATOM     22  C   UNL     1       9.347  10.499  19.061  0.00  0.00    +0.000 A 
ATOM     23  C   UNL     1       8.631  10.733  17.900  0.00  0.00    +0.000 A 
ATOM     24  C   UNL     1       8.034   9.508  17.529  0.00  0.00    +0.000 A 
ATOM     25  C   UNL     1       8.414   8.585  18.480  0.00  0.00    +0.000 A 
ATOM     26  O   UNL     1       9.222   9.175  19.404  0.00  0.00    +0.000 OA
BRANCH  22  27
ATOM     27  C   UNL     1      10.128  11.395  19.887  0.00  0.00    +0.000 C 
ATOM     28  O   UNL     1       9.899  11.651  21.064  0.00  0.00    +0.000 OA
BRANCH  27  30
ATOM     29  C   UNL     1      11.141  13.331  19.019  0.00  0.00    +0.000 C 
ATOM     30  O   UNL     1      11.167  11.912  19.170  0.00  0.00    +0.000 OA
ENDBRANCH  27  30
ENDBRANCH  22  27
ENDBRANCH  21  25
ENDBRANCH  17  21
ENDBRANCH   1  18
TORSDOF 7
ENDMDL
MODEL 2
REMARK VINA RESULT:      -8.3      0.688      1.233
REMARK  Name = 
REMARK  8 active torsions:
REMARK  status: ('A' for Active; 'I' for Inactive)
REMARK    1  A    between atoms: C_1  and  O_2
REMARK    2  A    between atoms: O_2  and  C_3
REMARK    3  A    between atoms: C_3  and  C_5
REMARK    4  A    between atoms: C_8  and  C_9
REMARK    5  A    between atoms: C_9  and  N_10
REMARK    6  A    between atoms: C_11  and  C_13
REMARK    7  A    between atoms: C_18  and  C_19
REMARK    8  A    between atoms: C_22  and  C_23
REMARK                            x       y       z     vdW  Elec       q    Type
REMARK                         _______ _______ _______ _____ _____    ______ ____
ROOT
ATOM      1  C   UNL     1       6.695   5.094  16.134  0.00  0.00    +0.000 A 
ATOM      2  C   UNL     1       7.478   5.124  14.959  0.00  0.00    +0.000 A 
ATOM      3  C   UNL     1       6.997   4.599  13.763  0.00  0.00    +0.000 A 
ATOM      4  C   UNL     1       5.739   4.021  13.733  0.00  0.00    +0.000 A 
ATOM      5  C   UNL     1       4.943   4.016  14.884  0.00  0.00    +0.000 A 
ATOM      6  C   UNL     1       5.377   4.563  16.117  0.00  0.00    +0.000 A 
ENDROOT
BRANCH   6   7
ATOM      7  C   UNL     1       4.422   4.589  17.269  0.00  0.00    +0.000 A 
ATOM      8  C   UNL     1       4.101   3.421  17.993  0.00  0.00    +0.000 A 
ATOM      9  C   UNL     1       3.176   3.427  19.047  0.00  0.00    +0.000 A 
ATOM     10  C   UNL     1       2.558   4.615  19.445  0.00  0.00    +0.000 A 
ATOM     11  C   UNL     1       2.859   5.785  18.741  0.00  0.00    +0.000 A 
ATOM     12  C   UNL     1       3.747   5.761  17.657  0.00  0.00    +0.000 A 
BRANCH  10  13
ATOM     13  C   UNL     1       1.598   4.657  20.607  0.00  0.00    +0.000 C 
ATOM     14  F   UNL     1       0.466   3.927  20.407  0.00  0.00    +0.000 F 
ATOM     15  F   UNL     1       2.151   4.183  21.758  0.00  0.00    +0.000 F 
ATOM     16  F   UNL     1       1.178   5.922  20.890  0.00  0.00    +0.000 F 
ENDBRANCH  10  13
ENDBRANCH   6   7
BRANCH   1  18
ATOM     17  N   UNL     1       7.611   6.886  17.507  0.00  0.00    +0.000 N 
ATOM     18  C   UNL     1       7.381   5.532  17.386  0.00  0.00    +0.000 C 
ATOM     19  O   UNL     1       7.728   4.715  18.232  0.00  0.00    +0.000 OA
ATOM     20  H   UNL     1       7.216   7.537  16.841  0.00  0.00    +0.000 HD
BRANCH  17  21
ATOM     21  C   UNL     1       8.244   7.445  18.683  0.00  0.00    +0.000 C 
BRANCH  21  25
ATOM     22  C   UNL     1       9.389  10.840  18.975  0.00  0.00    +0.000 A 
ATOM     23  C   UNL     1       8.596  11.044  17.859  0.00  0.00    +0.000 A 
ATOM     24  C   UNL     1       8.021   9.797  17.527  0.00  0.00    +0.000 A 
ATOM     25  C   UNL     1       8.490   8.892  18.456  0.00  0.00    +0.000 A 
ATOM     26  O   UNL     1       9.331   9.515  19.328  0.00  0.00    +0.000 OA
BRANCH  22  27
ATOM     27  C   UNL     1      10.186  11.766  19.750  0.00  0.00    +0.000 C 
ATOM     28  O   UNL     1      10.877  11.466  20.718  0.00  0.00    +0.000 OA
BRANCH  27  30
ATOM     29  C   UNL     1       9.711  14.024  20.203  0.00  0.00    +0.000 C 
ATOM     30  O   UNL     1      10.068  13.028  19.245  0.00  0.00    +0.000 OA
ENDBRANCH  27  30
ENDBRANCH  22  27
ENDBRANCH  21  25
ENDBRANCH  17  21
ENDBRANCH   1  18
TORSDOF 7
ENDMDL
MODEL 3
REMARK VINA RESULT:      -8.3      0.633      1.499
REMARK  Name = 
REMARK  8 active torsions:
REMARK  status: ('A' for Active; 'I' for Inactive)
REMARK    1  A    between atoms: C_1  and  O_2
REMARK    2  A    between atoms: O_2  and  C_3
REMARK    3  A    between atoms: C_3  and  C_5
REMARK    4  A    between atoms: C_8  and  C_9
REMARK    5  A    between atoms: C_9  and  N_10
REMARK    6  A    between atoms: C_11  and  C_13
REMARK    7  A    between atoms: C_18  and  C_19
REMARK    8  A    between atoms: C_22  and  C_23
REMARK                            x       y       z     vdW  Elec       q    Type
REMARK                         _______ _______ _______ _____ _____    ______ ____
ROOT
ATOM      1  C   UNL     1       6.641   4.725  15.764  0.00  0.00    +0.000 A 
ATOM      2  C   UNL     1       7.356   4.831  14.550  0.00  0.00    +0.000 A 
ATOM      3  C   UNL     1       6.805   4.383  13.352  0.00  0.00    +0.000 A 
ATOM      4  C   UNL     1       5.545   3.807  13.357  0.00  0.00    +0.000 A 
ATOM      5  C   UNL     1       4.817   3.728  14.549  0.00  0.00    +0.000 A 
ATOM      6  C   UNL     1       5.322   4.196  15.788  0.00  0.00    +0.000 A 
ENDROOT
BRANCH   6   7
ATOM      7  C   UNL     1       4.434   4.147  16.992  0.00  0.00    +0.000 A 
ATOM      8  C   UNL     1       4.099   2.928  17.617  0.00  0.00    +0.000 A 
ATOM      9  C   UNL     1       3.234   2.869  18.721  0.00  0.00    +0.000 A 
ATOM     10  C   UNL     1       2.697   4.037  19.267  0.00  0.00    +0.000 A 
ATOM     11  C   UNL     1       3.015   5.257  18.663  0.00  0.00    +0.000 A 
ATOM     12  C   UNL     1       3.839   5.303  17.530  0.00  0.00    +0.000 A 
BRANCH  10  13
ATOM     13  C   UNL     1       1.806   4.004  20.483  0.00  0.00    +0.000 C 
ATOM     14  F   UNL     1       1.791   2.798  21.117  0.00  0.00    +0.000 F 
ATOM     15  F   UNL     1       2.174   4.917  21.425  0.00  0.00    +0.000 F 
ATOM     16  F   UNL     1       0.506   4.281  20.185  0.00  0.00    +0.000 F 
ENDBRANCH  10  13
ENDBRANCH   6   7
BRANCH   1  18
ATOM     17  N   UNL     1       7.345   6.407  17.380  0.00  0.00    +0.000 N 
ATOM     18  C   UNL     1       7.398   5.083  16.999  0.00  0.00    +0.000 C 
ATOM     19  O   UNL     1       8.040   4.235  17.611  0.00  0.00    +0.000 OA
ATOM     20  H   UNL     1       6.721   7.052  16.912  0.00  0.00    +0.000 HD
BRANCH  17  21
ATOM     21  C   UNL     1       8.014   6.880  18.573  0.00  0.00    +0.000 C 
BRANCH  21  25
ATOM     22  C   UNL     1       9.224  10.230  19.060  0.00  0.00    +0.000 A 
ATOM     23  C   UNL     1       8.473  10.504  17.931  0.00  0.00    +0.000 A 
ATOM     24  C   UNL     1       7.881   9.288  17.523  0.00  0.00    +0.000 A 
ATOM     25  C   UNL     1       8.299   8.330  18.422  0.00  0.00    +0.000 A 
ATOM     26  O   UNL     1       9.125   8.891  19.349  0.00  0.00    +0.000 OA
BRANCH  22  27
ATOM     27  C   UNL     1      10.016  11.100  19.903  0.00  0.00    +0.000 C 
ATOM     28  O   UNL     1      11.025  11.701  19.548  0.00  0.00    +0.000 OA
BRANCH  27  30
ATOM     29  C   UNL     1       9.346  12.484  21.681  0.00  0.00    +0.000 C 
ATOM     30  O   UNL     1       9.477  11.165  21.154  0.00  0.00    +0.000 OA
ENDBRANCH  27  30
ENDBRANCH  22  27
ENDBRANCH  21  25
ENDBRANCH  17  21
ENDBRANCH   1  18
TORSDOF 7
ENDMDL
MODEL 4
REMARK VINA RESULT:      -8.1      0.749      1.366
REMARK  Name = 
REMARK  8 active torsions:
REMARK  status: ('A' for Active; 'I' for Inactive)
REMARK    1  A    between atoms: C_1  and  O_2
REMARK    2  A    between atoms: O_2  and  C_3
REMARK    3  A    between atoms: C_3  and  C_5
REMARK    4  A    between atoms: C_8  and  C_9
REMARK    5  A    between atoms: C_9  and  N_10
REMARK    6  A    between atoms: C_11  and  C_13
REMARK    7  A    between atoms: C_18  and  C_19
REMARK    8  A    between atoms: C_22  and  C_23
REMARK                            x       y       z     vdW  Elec       q    Type
REMARK                         _______ _______ _______ _____ _____    ______ ____
ROOT
ATOM      1  C   UNL     1       6.717   5.101  16.339  0.00  0.00    +0.000 A 
ATOM      2  C   UNL     1       7.418   5.307  15.130  0.00  0.00    +0.000 A 
ATOM      3  C   UNL     1       6.937   4.797  13.927  0.00  0.00    +0.000 A 
ATOM      4  C   UNL     1       5.764   4.060  13.922  0.00  0.00    +0.000 A 
ATOM      5  C   UNL     1       5.046   3.880  15.109  0.00  0.00    +0.000 A 
ATOM      6  C   UNL     1       5.479   4.403  16.353  0.00  0.00    +0.000 A 
ENDROOT
BRANCH   6   7
ATOM      7  C   UNL     1       4.600   4.231  17.552  0.00  0.00    +0.000 A 
ATOM      8  C   UNL     1       4.043   2.980  17.890  0.00  0.00    +0.000 A 
ATOM      9  C   UNL     1       3.184   2.817  18.988  0.00  0.00    +0.000 A 
ATOM     10  C   UNL     1       2.875   3.899  19.816  0.00  0.00    +0.000 A 
ATOM     11  C   UNL     1       3.414   5.150  19.498  0.00  0.00    +0.000 A 
ATOM     12  C   UNL     1       4.231   5.313  18.372  0.00  0.00    +0.000 A 
BRANCH  10  13
ATOM     13  C   UNL     1       1.995   3.740  21.030  0.00  0.00    +0.000 C 
ATOM     14  F   UNL     1       2.130   2.534  21.648  0.00  0.00    +0.000 F 
ATOM     15  F   UNL     1       2.247   4.680  21.984  0.00  0.00    +0.000 F 
ATOM     16  F   UNL     1       0.671   3.858  20.733  0.00  0.00    +0.000 F 
ENDBRANCH  10  13
ENDBRANCH   6   7
BRANCH   1  18
ATOM     17  N   UNL     1       7.691   6.897  17.667  0.00  0.00    +0.000 N 
ATOM     18  C   UNL     1       7.414   5.549  17.581  0.00  0.00    +0.000 C 
ATOM     19  O   UNL     1       7.731   4.743  18.449  0.00  0.00    +0.000 OA
ATOM     20  H   UNL     1       7.321   7.543  16.982  0.00  0.00    +0.000 HD
BRANCH  17  21
ATOM     21  C   UNL     1       8.341   7.465  18.829  0.00  0.00    +0.000 C 
BRANCH  21  25
ATOM     22  C   UNL     1       9.332  10.903  19.169  0.00  0.00    +0.000 A 
ATOM     23  C   UNL     1       8.742  11.039  17.925  0.00  0.00    +0.000 A 
ATOM     24  C   UNL     1       8.265   9.763  17.552  0.00  0.00    +0.000 A 
ATOM     25  C   UNL     1       8.586   8.909  18.586  0.00  0.00    +0.000 A 
ATOM     26  O   UNL     1       9.246   9.591  19.564  0.00  0.00    +0.000 OA
BRANCH  22  27
ATOM     27  C   UNL     1       9.958  11.883  20.031  0.00  0.00    +0.000 C 
ATOM     28  O   UNL     1       9.459  12.954  20.363  0.00  0.00    +0.000 OA
BRANCH  27  30
ATOM     29  C   UNL     1      12.255  11.770  19.545  0.00  0.00    +0.000 C 
ATOM     30  O   UNL     1      11.186  11.444  20.432  0.00  0.00    +0.000 OA
ENDBRANCH  27  30
ENDBRANCH  22  27
ENDBRANCH  21  25
ENDBRANCH  17  21
ENDBRANCH   1  18
TORSDOF 7
ENDMDL
MODEL 5
REMARK VINA RESULT:      -8.0      4.756      7.486
REMARK  Name = 
REMARK  8 active torsions:
REMARK  status: ('A' for Active; 'I' for Inactive)
REMARK    1  A    between atoms: C_1  and  O_2
REMARK    2  A    between atoms: O_2  and  C_3
REMARK    3  A    between atoms: C_3  and  C_5
REMARK    4  A    between atoms: C_8  and  C_9
REMARK    5  A    between atoms: C_9  and  N_10
REMARK    6  A    between atoms: C_11  and  C_13
REMARK    7  A    between atoms: C_18  and  C_19
REMARK    8  A    between atoms: C_22  and  C_23
REMARK                            x       y       z     vdW  Elec       q    Type
REMARK                         _______ _______ _______ _____ _____    ______ ____
ROOT
ATOM      1  C   UNL     1       3.712   3.903  18.275  0.00  0.00    +0.000 A 
ATOM      2  C   UNL     1       3.859   2.499  18.208  0.00  0.00    +0.000 A 
ATOM      3  C   UNL     1       2.901   1.650  18.755  0.00  0.00    +0.000 A 
ATOM      4  C   UNL     1       1.797   2.194  19.393  0.00  0.00    +0.000 A 
ATOM      5  C   UNL     1       1.627   3.582  19.436  0.00  0.00    +0.000 A 
ATOM      6  C   UNL     1       2.560   4.486  18.869  0.00  0.00    +0.000 A 
ENDROOT
BRANCH   6   7
ATOM      7  C   UNL     1       2.247   5.949  18.889  0.00  0.00    +0.000 A 
ATOM      8  C   UNL     1       2.298   6.735  17.719  0.00  0.00    +0.000 A 
ATOM      9  C   UNL     1       2.048   8.116  17.735  0.00  0.00    +0.000 A 
ATOM     10  C   UNL     1       1.699   8.761  18.924  0.00  0.00    +0.000 A 
ATOM     11  C   UNL     1       1.644   8.002  20.097  0.00  0.00    +0.000 A 
ATOM     12  C   UNL     1       1.944   6.634  20.080  0.00  0.00    +0.000 A 
BRANCH  10  13
ATOM     13  C   UNL     1       1.376  10.233  18.959  0.00  0.00    +0.000 C 
ATOM     14  F   UNL     1       0.139  10.533  18.472  0.00  0.00    +0.000 F 
ATOM     15  F   UNL     1       1.416  10.747  20.220  0.00  0.00    +0.000 F 
ATOM     16  F   UNL     1       2.252  10.977  18.226  0.00  0.00    +0.000 F 
ENDBRANCH  10  13
ENDBRANCH   6   7
BRANCH   1  18
ATOM     17  N   UNL     1       5.079   4.741  16.442  0.00  0.00    +0.000 N 
ATOM     18  C   UNL     1       4.880   4.704  17.805  0.00  0.00    +0.000 C 
ATOM     19  O   UNL     1       5.618   5.268  18.605  0.00  0.00    +0.000 OA
ATOM     20  H   UNL     1       4.390   4.352  15.810  0.00  0.00    +0.000 HD
BRANCH  17  21
ATOM     21  C   UNL     1       6.161   5.502  15.853  0.00  0.00    +0.000 C 
BRANCH  21  25
ATOM     22  C   UNL     1       5.996   3.714  12.739  0.00  0.00    +0.000 A 
ATOM     23  C   UNL     1       7.249   4.263  12.531  0.00  0.00    +0.000 A 
ATOM     24  C   UNL     1       7.546   5.054  13.663  0.00  0.00    +0.000 A 
ATOM     25  C   UNL     1       6.462   4.950  14.507  0.00  0.00    +0.000 A 
ATOM     26  O   UNL     1       5.511   4.150  13.947  0.00  0.00    +0.000 OA
BRANCH  22  27
ATOM     27  C   UNL     1       5.213   2.811  11.924  0.00  0.00    +0.000 C 
ATOM     28  O   UNL     1       5.632   1.779  11.409  0.00  0.00    +0.000 OA
BRANCH  27  30
ATOM     29  C   UNL     1       3.423   3.298  10.479  0.00  0.00    +0.000 C 
ATOM     30  O   UNL     1       3.932   3.266  11.812  0.00  0.00    +0.000 OA
ENDBRANCH  27  30
ENDBRANCH  22  27
ENDBRANCH  21  25
ENDBRANCH  17  21
ENDBRANCH   1  18
TORSDOF 7
ENDMDL
MODEL 6
REMARK VINA RESULT:      -7.9      4.831      7.436
REMARK  Name = 
REMARK  8 active torsions:
REMARK  status: ('A' for Active; 'I' for Inactive)
REMARK    1  A    between atoms: C_1  and  O_2
REMARK    2  A    between atoms: O_2  and  C_3
REMARK    3  A    between atoms: C_3  and  C_5
REMARK    4  A    between atoms: C_8  and  C_9
REMARK    5  A    between atoms: C_9  and  N_10
REMARK    6  A    between atoms: C_11  and  C_13
REMARK    7  A    between atoms: C_18  and  C_19
REMARK    8  A    between atoms: C_22  and  C_23
REMARK                            x       y       z     vdW  Elec       q    Type
REMARK                         _______ _______ _______ _____ _____    ______ ____
ROOT
ATOM      1  C   UNL     1       3.708   3.902  18.133  0.00  0.00    +0.000 A 
ATOM      2  C   UNL     1       3.813   2.496  18.040  0.00  0.00    +0.000 A 
ATOM      3  C   UNL     1       2.822   1.667  18.558  0.00  0.00    +0.000 A 
ATOM      4  C   UNL     1       1.727   2.232  19.192  0.00  0.00    +0.000 A 
ATOM      5  C   UNL     1       1.599   3.624  19.260  0.00  0.00    +0.000 A 
ATOM      6  C   UNL     1       2.567   4.509  18.723  0.00  0.00    +0.000 A 
ENDROOT
BRANCH   6   7
ATOM      7  C   UNL     1       2.299   5.981  18.767  0.00  0.00    +0.000 A 
ATOM      8  C   UNL     1       2.106   6.663  19.987  0.00  0.00    +0.000 A 
ATOM      9  C   UNL     1       1.814   8.034  20.037  0.00  0.00    +0.000 A 
ATOM     10  C   UNL     1       1.738   8.789  18.864  0.00  0.00    +0.000 A 
ATOM     11  C   UNL     1       1.924   8.133  17.643  0.00  0.00    +0.000 A 
ATOM     12  C   UNL     1       2.166   6.754  17.599  0.00  0.00    +0.000 A 
BRANCH  10  13
ATOM     13  C   UNL     1       1.475  10.273  18.893  0.00  0.00    +0.000 C 
ATOM     14  F   UNL     1       1.462  10.800  20.149  0.00  0.00    +0.000 F 
ATOM     15  F   UNL     1       2.408  10.983  18.200  0.00  0.00    +0.000 F 
ATOM     16  F   UNL     1       0.273  10.601  18.342  0.00  0.00    +0.000 F 
ENDBRANCH  10  13
ENDBRANCH   6   7
BRANCH   1  18
ATOM     17  N   UNL     1       5.722   4.056  16.771  0.00  0.00    +0.000 N 
ATOM     18  C   UNL     1       4.907   4.675  17.694  0.00  0.00    +0.000 C 
ATOM     19  O   UNL     1       5.144   5.786  18.157  0.00  0.00    +0.000 OA
ATOM     20  H   UNL     1       5.438   3.188  16.334  0.00  0.00    +0.000 HD
BRANCH  17  21
ATOM     21  C   UNL     1       6.902   4.707  16.243  0.00  0.00    +0.000 C 
BRANCH  21  25
ATOM     22  C   UNL     1       6.173   3.740  12.859  0.00  0.00    +0.000 A 
ATOM     23  C   UNL     1       7.180   4.635  12.545  0.00  0.00    +0.000 A 
ATOM     24  C   UNL     1       7.641   5.182  13.764  0.00  0.00    +0.000 A 
ATOM     25  C   UNL     1       6.893   4.594  14.762  0.00  0.00    +0.000 A 
ATOM     26  O   UNL     1       5.991   3.729  14.219  0.00  0.00    +0.000 OA
BRANCH  22  27
ATOM     27  C   UNL     1       5.371   2.884  12.010  0.00  0.00    +0.000 C 
ATOM     28  O   UNL     1       5.752   1.834  11.503  0.00  0.00    +0.000 OA
BRANCH  27  30
ATOM     29  C   UNL     1       3.533   3.188  10.576  0.00  0.00    +0.000 C 
ATOM     30  O   UNL     1       4.121   3.409  11.857  0.00  0.00    +0.000 OA
ENDBRANCH  27  30
ENDBRANCH  22  27
ENDBRANCH  21  25
ENDBRANCH  17  21
ENDBRANCH   1  18
TORSDOF 7
ENDMDL
MODEL 7
REMARK VINA RESULT:      -7.8      3.907      5.526
REMARK  Name = 
REMARK  8 active torsions:
REMARK  status: ('A' for Active; 'I' for Inactive)
REMARK    1  A    between atoms: C_1  and  O_2
REMARK    2  A    between atoms: O_2  and  C_3
REMARK    3  A    between atoms: C_3  and  C_5
REMARK    4  A    between atoms: C_8  and  C_9
REMARK    5  A    between atoms: C_9  and  N_10
REMARK    6  A    between atoms: C_11  and  C_13
REMARK    7  A    between atoms: C_18  and  C_19
REMARK    8  A    between atoms: C_22  and  C_23
REMARK                            x       y       z     vdW  Elec       q    Type
REMARK                         _______ _______ _______ _____ _____    ______ ____
ROOT
ATOM      1  C   UNL     1       5.135   5.682  16.155  0.00  0.00    +0.000 A 
ATOM      2  C   UNL     1       5.798   5.953  14.937  0.00  0.00    +0.000 A 
ATOM      3  C   UNL     1       6.304   4.922  14.151  0.00  0.00    +0.000 A 
ATOM      4  C   UNL     1       6.173   3.612  14.582  0.00  0.00    +0.000 A 
ATOM      5  C   UNL     1       5.488   3.332  15.770  0.00  0.00    +0.000 A 
ATOM      6  C   UNL     1       4.930   4.344  16.590  0.00  0.00    +0.000 A 
ENDROOT
BRANCH   6   7
ATOM      7  C   UNL     1       4.142   3.941  17.796  0.00  0.00    +0.000 A 
ATOM      8  C   UNL     1       2.754   3.698  17.729  0.00  0.00    +0.000 A 
ATOM      9  C   UNL     1       2.000   3.359  18.862  0.00  0.00    +0.000 A 
ATOM     10  C   UNL     1       2.613   3.214  20.108  0.00  0.00    +0.000 A 
ATOM     11  C   UNL     1       3.988   3.452  20.200  0.00  0.00    +0.000 A 
ATOM     12  C   UNL     1       4.726   3.838  19.072  0.00  0.00    +0.000 A 
BRANCH  10  13
ATOM     13  C   UNL     1       1.834   2.803  21.331  0.00  0.00    +0.000 C 
ATOM     14  F   UNL     1       0.483   2.828  21.152  0.00  0.00    +0.000 F 
ATOM     15  F   UNL     1       2.133   1.538  21.740  0.00  0.00    +0.000 F 
ATOM     16  F   UNL     1       2.080   3.608  22.402  0.00  0.00    +0.000 F 
ENDBRANCH  10  13
ENDBRANCH   6   7
BRANCH   1  18
ATOM     17  N   UNL     1       3.466   7.263  16.960  0.00  0.00    +0.000 N 
ATOM     18  C   UNL     1       4.787   6.871  16.987  0.00  0.00    +0.000 C 
ATOM     19  O   UNL     1       5.648   7.461  17.631  0.00  0.00    +0.000 OA
ATOM     20  H   UNL     1       2.768   6.690  16.503  0.00  0.00    +0.000 HD
BRANCH  17  21
ATOM     21  C   UNL     1       2.991   8.385  17.742  0.00  0.00    +0.000 C 
BRANCH  21  25
ATOM     22  C   UNL     1       1.112   8.104  20.793  0.00  0.00    +0.000 A 
ATOM     23  C   UNL     1       1.586   6.803  20.788  0.00  0.00    +0.000 A 
ATOM     24  C   UNL     1       2.377   6.657  19.627  0.00  0.00    +0.000 A 
ATOM     25  C   UNL     1       2.349   7.874  18.980  0.00  0.00    +0.000 A 
ATOM     26  O   UNL     1       1.572   8.752  19.674  0.00  0.00    +0.000 OA
BRANCH  22  27
ATOM     27  C   UNL     1       0.281   8.803  21.750  0.00  0.00    +0.000 C 
ATOM     28  O   UNL     1      -0.739   8.353  22.262  0.00  0.00    +0.000 OA
BRANCH  27  30
ATOM     29  C   UNL     1      -0.117  11.119  21.837  0.00  0.00    +0.000 C 
ATOM     30  O   UNL     1       0.799  10.038  22.011  0.00  0.00    +0.000 OA
ENDBRANCH  27  30
ENDBRANCH  22  27
ENDBRANCH  21  25
ENDBRANCH  17  21
ENDBRANCH   1  18
TORSDOF 7
ENDMDL
MODEL 8
REMARK VINA RESULT:      -7.8      3.907      5.506
REMARK  Name = 
REMARK  8 active torsions:
REMARK  status: ('A' for Active; 'I' for Inactive)
REMARK    1  A    between atoms: C_1  and  O_2
REMARK    2  A    between atoms: O_2  and  C_3
REMARK    3  A    between atoms: C_3  and  C_5
REMARK    4  A    between atoms: C_8  and  C_9
REMARK    5  A    between atoms: C_9  and  N_10
REMARK    6  A    between atoms: C_11  and  C_13
REMARK    7  A    between atoms: C_18  and  C_19
REMARK    8  A    between atoms: C_22  and  C_23
REMARK                            x       y       z     vdW  Elec       q    Type
REMARK                         _______ _______ _______ _____ _____    ______ ____
ROOT
ATOM      1  C   UNL     1       5.180   5.657  16.065  0.00  0.00    +0.000 A 
ATOM      2  C   UNL     1       5.826   5.905  14.833  0.00  0.00    +0.000 A 
ATOM      3  C   UNL     1       6.328   4.860  14.064  0.00  0.00    +0.000 A 
ATOM      4  C   UNL     1       6.210   3.559  14.526  0.00  0.00    +0.000 A 
ATOM      5  C   UNL     1       5.543   3.302  15.729  0.00  0.00    +0.000 A 
ATOM      6  C   UNL     1       4.990   4.329  16.533  0.00  0.00    +0.000 A 
ENDROOT
BRANCH   6   7
ATOM      7  C   UNL     1       4.220   3.948  17.758  0.00  0.00    +0.000 A 
ATOM      8  C   UNL     1       4.849   3.791  19.011  0.00  0.00    +0.000 A 
ATOM      9  C   UNL     1       4.143   3.394  20.156  0.00  0.00    +0.000 A 
ATOM     10  C   UNL     1       2.765   3.172  20.101  0.00  0.00    +0.000 A 
ATOM     11  C   UNL     1       2.120   3.319  18.870  0.00  0.00    +0.000 A 
ATOM     12  C   UNL     1       2.842   3.668  17.720  0.00  0.00    +0.000 A 
BRANCH  10  13
ATOM     13  C   UNL     1       1.975   2.793  21.329  0.00  0.00    +0.000 C 
ATOM     14  F   UNL     1       2.001   3.740  22.308  0.00  0.00    +0.000 F 
ATOM     15  F   UNL     1       0.659   2.573  21.055  0.00  0.00    +0.000 F 
ATOM     16  F   UNL     1       2.431   1.648  21.909  0.00  0.00    +0.000 F 
ENDBRANCH  10  13
ENDBRANCH   6   7
BRANCH   1  18
ATOM     17  N   UNL     1       3.500   7.201  16.919  0.00  0.00    +0.000 N 
ATOM     18  C   UNL     1       4.835   6.863  16.875  0.00  0.00    +0.000 C 
ATOM     19  O   UNL     1       5.709   7.511  17.440  0.00  0.00    +0.000 OA
ATOM     20  H   UNL     1       2.799   6.583  16.529  0.00  0.00    +0.000 HD
BRANCH  17  21
ATOM     21  C   UNL     1       3.029   8.333  17.689  0.00  0.00    +0.000 C 
BRANCH  21  25
ATOM     22  C   UNL     1       1.167   8.081  20.753  0.00  0.00    +0.000 A 
ATOM     23  C   UNL     1       1.677   6.795  20.781  0.00  0.00    +0.000 A 
ATOM     24  C   UNL     1       2.469   6.640  19.622  0.00  0.00    +0.000 A 
ATOM     25  C   UNL     1       2.404   7.837  18.942  0.00  0.00    +0.000 A 
ATOM     26  O   UNL     1       1.605   8.711  19.615  0.00  0.00    +0.000 OA
BRANCH  22  27
ATOM     27  C   UNL     1       0.318   8.782  21.693  0.00  0.00    +0.000 C 
ATOM     28  O   UNL     1      -0.740   8.356  22.144  0.00  0.00    +0.000 OA
BRANCH  27  30
ATOM     29  C   UNL     1       0.062  11.120  21.686  0.00  0.00    +0.000 C 
ATOM     30  O   UNL     1       0.867   9.989  22.016  0.00  0.00    +0.000 OA
ENDBRANCH  27  30
ENDBRANCH  22  27
ENDBRANCH  21  25
ENDBRANCH  17  21
ENDBRANCH   1  18
TORSDOF 7
ENDMDL
MODEL 9
REMARK VINA RESULT:      -7.8      4.834      7.274
REMARK  Name = 
REMARK  8 active torsions:
REMARK  status: ('A' for Active; 'I' for Inactive)
REMARK    1  A    between atoms: C_1  and  O_2
REMARK    2  A    between atoms: O_2  and  C_3
REMARK    3  A    between atoms: C_3  and  C_5
REMARK    4  A    between atoms: C_8  and  C_9
REMARK    5  A    between atoms: C_9  and  N_10
REMARK    6  A    between atoms: C_11  and  C_13
REMARK    7  A    between atoms: C_18  and  C_19
REMARK    8  A    between atoms: C_22  and  C_23
REMARK                            x       y       z     vdW  Elec       q    Type
REMARK                         _______ _______ _______ _____ _____    ______ ____
ROOT
ATOM      1  C   UNL     1       3.677   3.924  19.985  0.00  0.00    +0.000 A 
ATOM      2  C   UNL     1       3.803   2.578  20.397  0.00  0.00    +0.000 A 
ATOM      3  C   UNL     1       2.805   1.960  21.144  0.00  0.00    +0.000 A 
ATOM      4  C   UNL     1       1.681   2.685  21.506  0.00  0.00    +0.000 A 
ATOM      5  C   UNL     1       1.532   4.008  21.076  0.00  0.00    +0.000 A 
ATOM      6  C   UNL     1       2.507   4.671  20.289  0.00  0.00    +0.000 A 
ENDROOT
BRANCH   6   7
ATOM      7  C   UNL     1       2.219   6.058  19.805  0.00  0.00    +0.000 A 
ATOM      8  C   UNL     1       2.397   6.424  18.454  0.00  0.00    +0.000 A 
ATOM      9  C   UNL     1       2.169   7.731  17.999  0.00  0.00    +0.000 A 
ATOM     10  C   UNL     1       1.718   8.721  18.875  0.00  0.00    +0.000 A 
ATOM     11  C   UNL     1       1.536   8.382  20.219  0.00  0.00    +0.000 A 
ATOM     12  C   UNL     1       1.813   7.086  20.675  0.00  0.00    +0.000 A 
BRANCH  10  13
ATOM     13  C   UNL     1       1.418  10.120  18.400  0.00  0.00    +0.000 C 
ATOM     14  F   UNL     1       2.353  10.618  17.544  0.00  0.00    +0.000 F 
ATOM     15  F   UNL     1       0.227  10.205  17.744  0.00  0.00    +0.000 F 
ATOM     16  F   UNL     1       1.342  11.014  19.426  0.00  0.00    +0.000 F 
ENDBRANCH  10  13
ENDBRANCH   6   7
BRANCH   1  18
ATOM     17  N   UNL     1       5.499   3.750  18.378  0.00  0.00    +0.000 N 
ATOM     18  C   UNL     1       4.881   4.523  19.337  0.00  0.00    +0.000 C 
ATOM     19  O   UNL     1       5.289   5.630  19.670  0.00  0.00    +0.000 OA
ATOM     20  H   UNL     1       5.073   2.890  18.057  0.00  0.00    +0.000 HD
BRANCH  17  21
ATOM     21  C   UNL     1       6.661   4.223  17.655  0.00  0.00    +0.000 C 
BRANCH  21  25
ATOM     22  C   UNL     1       6.133   4.446  14.107  0.00  0.00    +0.000 A 
ATOM     23  C   UNL     1       5.506   5.637  14.427  0.00  0.00    +0.000 A 
ATOM     24  C   UNL     1       5.574   5.775  15.831  0.00  0.00    +0.000 A 
ATOM     25  C   UNL     1       6.240   4.663  16.301  0.00  0.00    +0.000 A 
ATOM     26  O   UNL     1       6.569   3.845  15.262  0.00  0.00    +0.000 OA
BRANCH  22  27
ATOM     27  C   UNL     1       6.375   3.820  12.824  0.00  0.00    +0.000 C 
ATOM     28  O   UNL     1       7.270   4.129  12.045  0.00  0.00    +0.000 OA
BRANCH  27  30
ATOM     29  C   UNL     1       5.696   2.057  11.425  0.00  0.00    +0.000 C 
ATOM     30  O   UNL     1       5.466   2.826  12.605  0.00  0.00    +0.000 OA
ENDBRANCH  27  30
ENDBRANCH  22  27
ENDBRANCH  21  25
ENDBRANCH  17  21
ENDBRANCH   1  18
TORSDOF 7
ENDMDL
