MODEL 1
REMARK VINA RESULT:      -9.3      0.000      0.000
REMARK  Name = 
REMARK  2 active torsions:
REMARK  status: ('A' for Active; 'I' for Inactive)
REMARK    1  A    between atoms: C_2  and  C_3
REMARK    2  A    between atoms: C_9  and  C_10
REMARK                            x       y       z     vdW  Elec       q    Type
REMARK                         _______ _______ _______ _____ _____    ______ ____
ROOT
ATOM      1  C   UNL     1       2.352   6.761  19.505  0.00  0.00    +0.000 A 
ATOM      2  C   UNL     1       1.727   6.093  20.607  0.00  0.00    +0.000 A 
ATOM      3  C   UNL     1       2.027   4.747  20.971  0.00  0.00    +0.000 A 
ATOM      4  C   UNL     1       2.994   4.137  20.143  0.00  0.00    +0.000 A 
ATOM      5  N   UNL     1       3.497   2.885  20.128  0.00  0.00    +0.000 NA
ATOM      6  O   UNL     1       4.389   2.829  19.050  0.00  0.00    +0.000 OA
ATOM      7  C   UNL     1       4.459   4.040  18.433  0.00  0.00    +0.000 A 
ATOM      8  C   UNL     1       3.590   4.879  19.084  0.00  0.00    +0.000 A 
ATOM      9  C   UNL     1       3.312   6.160  18.670  0.00  0.00    +0.000 A 
ENDROOT
BRANCH   1  11
ATOM     10  O   UNL     1       2.115   8.473  17.967  0.00  0.00    +0.000 OA
ATOM     11  C   UNL     1       1.883   8.111  19.106  0.00  0.00    +0.000 C 
ATOM     12  N   UNL     1       1.311   8.865  20.119  0.00  0.00    +0.000 N 
ATOM     13  C   UNL     1       0.544   8.372  21.301  0.00  0.00    +0.000 C 
ATOM     14  C   UNL     1       0.618   9.543  22.274  0.00  0.00    +0.000 C 
ATOM     15  C   UNL     1       0.353  10.595  21.245  0.00  0.00    +0.000 A 
ATOM     16  C   UNL     1      -0.562  11.623  21.290  0.00  0.00    +0.000 A 
ATOM     17  C   UNL     1      -0.809  12.301  20.096  0.00  0.00    +0.000 A 
ATOM     18  C   UNL     1      -0.053  12.043  18.934  0.00  0.00    +0.000 A 
ATOM     19  C   UNL     1       0.882  11.013  18.904  0.00  0.00    +0.000 A 
ATOM     20  C   UNL     1       0.954  10.227  20.029  0.00  0.00    +0.000 A 
ENDBRANCH   1  11
BRANCH   7  21
ATOM     21  C   UNL     1       5.340   4.182  17.278  0.00  0.00    +0.000 A 
ATOM     22  C   UNL     1       4.830   4.049  15.984  0.00  0.00    +0.000 A 
ATOM     23  C   UNL     1       5.632   4.336  14.878  0.00  0.00    +0.000 A 
ATOM     24  C   UNL     1       6.949   4.761  15.052  0.00  0.00    +0.000 A 
ATOM     25  C   UNL     1       7.468   4.893  16.334  0.00  0.00    +0.000 A 
ATOM     26  C   UNL     1       6.672   4.601  17.445  0.00  0.00    +0.000 A 
ENDBRANCH   7  21
TORSDOF 2
ENDMDL
MODEL 2
REMARK VINA RESULT:      -9.2      0.373      1.015
REMARK  Name = 
REMARK  2 active torsions:
REMARK  status: ('A' for Active; 'I' for Inactive)
REMARK    1  A    between atoms: C_2  and  C_3
REMARK    2  A    between atoms: C_9  and  C_10
REMARK                            x       y       z     vdW  Elec       q    Type
REMARK                         _______ _______ _______ _____ _____    ______ ____
ROOT
ATOM      1  C   UNL     1       2.224   6.826  19.714  0.00  0.00    +0.000 A 
ATOM      2  C   UNL     1       1.580   6.066  20.743  0.00  0.00    +0.000 A 
ATOM      3  C   UNL     1       1.868   4.691  20.989  0.00  0.00    +0.000 A 
ATOM      4  C   UNL     1       2.844   4.151  20.124  0.00  0.00    +0.000 A 
ATOM      5  N   UNL     1       3.342   2.903  20.005  0.00  0.00    +0.000 NA
ATOM      6  O   UNL     1       4.249   2.938  18.939  0.00  0.00    +0.000 OA
ATOM      7  C   UNL     1       4.334   4.198  18.433  0.00  0.00    +0.000 A 
ATOM      8  C   UNL     1       3.459   4.981  19.144  0.00  0.00    +0.000 A 
ATOM      9  C   UNL     1       3.194   6.296  18.842  0.00  0.00    +0.000 A 
ENDROOT
BRANCH   1  11
ATOM     10  O   UNL     1       2.042   8.679  18.341  0.00  0.00    +0.000 OA
ATOM     11  C   UNL     1       1.767   8.209  19.430  0.00  0.00    +0.000 C 
ATOM     12  N   UNL     1       1.155   8.862  20.489  0.00  0.00    +0.000 N 
ATOM     13  C   UNL     1       0.344   8.257  21.587  0.00  0.00    +0.000 C 
ATOM     14  C   UNL     1       0.378   9.327  22.672  0.00  0.00    +0.000 C 
ATOM     15  C   UNL     1       0.150  10.475  21.740  0.00  0.00    +0.000 A 
ATOM     16  C   UNL     1      -0.769  11.495  21.849  0.00  0.00    +0.000 A 
ATOM     17  C   UNL     1      -0.971  12.285  20.718  0.00  0.00    +0.000 A 
ATOM     18  C   UNL     1      -0.171  12.141  19.567  0.00  0.00    +0.000 A 
ATOM     19  C   UNL     1       0.768  11.118  19.472  0.00  0.00    +0.000 A 
ATOM     20  C   UNL     1       0.798  10.226  20.518  0.00  0.00    +0.000 A 
ENDBRANCH   1  11
BRANCH   7  21
ATOM     21  C   UNL     1       5.232   4.438  17.308  0.00  0.00    +0.000 A 
ATOM     22  C   UNL     1       6.591   4.670  17.531  0.00  0.00    +0.000 A 
ATOM     23  C   UNL     1       7.478   4.746  16.455  0.00  0.00    +0.000 A 
ATOM     24  C   UNL     1       7.018   4.588  15.148  0.00  0.00    +0.000 A 
ATOM     25  C   UNL     1       5.667   4.361  14.914  0.00  0.00    +0.000 A 
ATOM     26  C   UNL     1       4.773   4.290  15.987  0.00  0.00    +0.000 A 
ENDBRANCH   7  21
TORSDOF 2
ENDMDL
MODEL 3
REMARK VINA RESULT:      -8.8      1.430      2.353
REMARK  Name = 
REMARK  2 active torsions:
REMARK  status: ('A' for Active; 'I' for Inactive)
REMARK    1  A    between atoms: C_2  and  C_3
REMARK    2  A    between atoms: C_9  and  C_10
REMARK                            x       y       z     vdW  Elec       q    Type
REMARK                         _______ _______ _______ _____ _____    ______ ____
ROOT
ATOM      1  C   UNL     1       1.879   5.655  20.222  0.00  0.00    +0.000 A 
ATOM      2  C   UNL     1       1.038   4.596  20.695  0.00  0.00    +0.000 A 
ATOM      3  C   UNL     1       1.198   3.238  20.291  0.00  0.00    +0.000 A 
ATOM      4  C   UNL     1       2.259   3.036  19.382  0.00  0.00    +0.000 A 
ATOM      5  N   UNL     1       2.689   1.930  18.740  0.00  0.00    +0.000 NA
ATOM      6  O   UNL     1       3.749   2.335  17.920  0.00  0.00    +0.000 OA
ATOM      7  C   UNL     1       3.990   3.664  18.082  0.00  0.00    +0.000 A 
ATOM      8  C   UNL     1       3.067   4.137  18.982  0.00  0.00    +0.000 A 
ATOM      9  C   UNL     1       2.935   5.466  19.311  0.00  0.00    +0.000 A 
ENDROOT
BRANCH   1  11
ATOM     10  O   UNL     1       1.170   7.276  21.712  0.00  0.00    +0.000 OA
ATOM     11  C   UNL     1       1.559   7.059  20.579  0.00  0.00    +0.000 C 
ATOM     12  N   UNL     1       1.643   7.971  19.539  0.00  0.00    +0.000 N 
ATOM     13  C   UNL     1       2.556   7.925  18.358  0.00  0.00    +0.000 C 
ATOM     14  C   UNL     1       1.872   8.848  17.356  0.00  0.00    +0.000 C 
ATOM     15  C   UNL     1       1.537   9.910  18.353  0.00  0.00    +0.000 A 
ATOM     16  C   UNL     1       1.766  11.265  18.268  0.00  0.00    +0.000 A 
ATOM     17  C   UNL     1       1.615  12.006  19.440  0.00  0.00    +0.000 A 
ATOM     18  C   UNL     1       1.110  11.422  20.620  0.00  0.00    +0.000 A 
ATOM     19  C   UNL     1       0.865  10.054  20.691  0.00  0.00    +0.000 A 
ATOM     20  C   UNL     1       1.223   9.316  19.587  0.00  0.00    +0.000 A 
ENDBRANCH   1  11
BRANCH   7  21
ATOM     21  C   UNL     1       5.063   4.277  17.306  0.00  0.00    +0.000 A 
ATOM     22  C   UNL     1       6.282   4.588  17.914  0.00  0.00    +0.000 A 
ATOM     23  C   UNL     1       7.360   5.030  17.145  0.00  0.00    +0.000 A 
ATOM     24  C   UNL     1       7.233   5.163  15.762  0.00  0.00    +0.000 A 
ATOM     25  C   UNL     1       6.024   4.861  15.147  0.00  0.00    +0.000 A 
ATOM     26  C   UNL     1       4.939   4.424  15.913  0.00  0.00    +0.000 A 
ENDBRANCH   7  21
TORSDOF 2
ENDMDL
MODEL 4
REMARK VINA RESULT:      -8.7      4.358      6.517
REMARK  Name = 
REMARK  2 active torsions:
REMARK  status: ('A' for Active; 'I' for Inactive)
REMARK    1  A    between atoms: C_2  and  C_3
REMARK    2  A    between atoms: C_9  and  C_10
REMARK                            x       y       z     vdW  Elec       q    Type
REMARK                         _______ _______ _______ _____ _____    ______ ____
ROOT
ATOM      1  C   UNL     1       5.790   4.519  17.265  0.00  0.00    +0.000 A 
ATOM      2  C   UNL     1       6.721   5.539  17.643  0.00  0.00    +0.000 A 
ATOM      3  C   UNL     1       7.577   6.194  16.709  0.00  0.00    +0.000 A 
ATOM      4  C   UNL     1       7.423   5.740  15.381  0.00  0.00    +0.000 A 
ATOM      5  N   UNL     1       8.072   6.065  14.243  0.00  0.00    +0.000 NA
ATOM      6  O   UNL     1       7.532   5.257  13.235  0.00  0.00    +0.000 OA
ATOM      7  C   UNL     1       6.541   4.472  13.739  0.00  0.00    +0.000 A 
ATOM      8  C   UNL     1       6.454   4.740  15.082  0.00  0.00    +0.000 A 
ATOM      9  C   UNL     1       5.632   4.055  15.946  0.00  0.00    +0.000 A 
ENDROOT
BRANCH   1  11
ATOM     10  O   UNL     1       5.661   3.021  19.023  0.00  0.00    +0.000 OA
ATOM     11  C   UNL     1       5.037   3.790  18.315  0.00  0.00    +0.000 C 
ATOM     12  N   UNL     1       3.666   3.990  18.311  0.00  0.00    +0.000 N 
ATOM     13  C   UNL     1       2.925   5.217  17.890  0.00  0.00    +0.000 C 
ATOM     14  C   UNL     1       1.517   4.695  17.622  0.00  0.00    +0.000 C 
ATOM     15  C   UNL     1       1.458   3.826  18.837  0.00  0.00    +0.000 A 
ATOM     16  C   UNL     1       0.465   3.754  19.788  0.00  0.00    +0.000 A 
ATOM     17  C   UNL     1       0.767   3.072  20.967  0.00  0.00    +0.000 A 
ATOM     18  C   UNL     1       1.978   2.366  21.117  0.00  0.00    +0.000 A 
ATOM     19  C   UNL     1       2.969   2.430  20.143  0.00  0.00    +0.000 A 
ATOM     20  C   UNL     1       2.728   3.280  19.089  0.00  0.00    +0.000 A 
ENDBRANCH   1  11
BRANCH   7  21
ATOM     21  C   UNL     1       5.854   3.553  12.837  0.00  0.00    +0.000 A 
ATOM     22  C   UNL     1       4.581   3.864  12.353  0.00  0.00    +0.000 A 
ATOM     23  C   UNL     1       3.986   3.066  11.374  0.00  0.00    +0.000 A 
ATOM     24  C   UNL     1       4.657   1.954  10.866  0.00  0.00    +0.000 A 
ATOM     25  C   UNL     1       5.922   1.633  11.342  0.00  0.00    +0.000 A 
ATOM     26  C   UNL     1       6.520   2.424  12.328  0.00  0.00    +0.000 A 
ENDBRANCH   7  21
TORSDOF 2
ENDMDL
MODEL 5
REMARK VINA RESULT:      -8.7      1.694      2.365
REMARK  Name = 
REMARK  2 active torsions:
REMARK  status: ('A' for Active; 'I' for Inactive)
REMARK    1  A    between atoms: C_2  and  C_3
REMARK    2  A    between atoms: C_9  and  C_10
REMARK                            x       y       z     vdW  Elec       q    Type
REMARK                         _______ _______ _______ _____ _____    ______ ____
ROOT
ATOM      1  C   UNL     1       1.802   6.317  20.446  0.00  0.00    +0.000 A 
ATOM      2  C   UNL     1       0.935   5.179  20.506  0.00  0.00    +0.000 A 
ATOM      3  C   UNL     1       1.295   3.900  19.988  0.00  0.00    +0.000 A 
ATOM      4  C   UNL     1       2.583   3.862  19.411  0.00  0.00    +0.000 A 
ATOM      5  N   UNL     1       3.253   2.875  18.781  0.00  0.00    +0.000 NA
ATOM      6  O   UNL     1       4.473   3.424  18.368  0.00  0.00    +0.000 OA
ATOM      7  C   UNL     1       4.567   4.721  18.770  0.00  0.00    +0.000 A 
ATOM      8  C   UNL     1       3.395   5.031  19.415  0.00  0.00    +0.000 A 
ATOM      9  C   UNL     1       3.084   6.293  19.867  0.00  0.00    +0.000 A 
ENDROOT
BRANCH   1  11
ATOM     10  O   UNL     1       0.970   7.768  22.044  0.00  0.00    +0.000 OA
ATOM     11  C   UNL     1       1.299   7.644  20.878  0.00  0.00    +0.000 C 
ATOM     12  N   UNL     1       1.161   8.585  19.870  0.00  0.00    +0.000 N 
ATOM     13  C   UNL     1       1.976   8.713  18.625  0.00  0.00    +0.000 C 
ATOM     14  C   UNL     1       1.083   9.545  17.711  0.00  0.00    +0.000 C 
ATOM     15  C   UNL     1       0.667  10.515  18.770  0.00  0.00    +0.000 A 
ATOM     16  C   UNL     1       0.678  11.891  18.720  0.00  0.00    +0.000 A 
ATOM     17  C   UNL     1       0.505  12.568  19.927  0.00  0.00    +0.000 A 
ATOM     18  C   UNL     1       0.190  11.881  21.117  0.00  0.00    +0.000 A 
ATOM     19  C   UNL     1       0.164  10.490  21.154  0.00  0.00    +0.000 A 
ATOM     20  C   UNL     1       0.544   9.846  20.000  0.00  0.00    +0.000 A 
ENDBRANCH   1  11
BRANCH   7  21
ATOM     21  C   UNL     1       5.772   5.469  18.431  0.00  0.00    +0.000 A 
ATOM     22  C   UNL     1       5.762   6.372  17.365  0.00  0.00    +0.000 A 
ATOM     23  C   UNL     1       6.862   7.201  17.134  0.00  0.00    +0.000 A 
ATOM     24  C   UNL     1       7.980   7.139  17.966  0.00  0.00    +0.000 A 
ATOM     25  C   UNL     1       8.002   6.242  19.027  0.00  0.00    +0.000 A 
ATOM     26  C   UNL     1       6.907   5.405  19.259  0.00  0.00    +0.000 A 
ENDBRANCH   7  21
TORSDOF 2
ENDMDL
MODEL 6
REMARK VINA RESULT:      -8.6      3.663      6.474
REMARK  Name = 
REMARK  2 active torsions:
REMARK  status: ('A' for Active; 'I' for Inactive)
REMARK    1  A    between atoms: C_2  and  C_3
REMARK    2  A    between atoms: C_9  and  C_10
REMARK                            x       y       z     vdW  Elec       q    Type
REMARK                         _______ _______ _______ _____ _____    ______ ____
ROOT
ATOM      1  C   UNL     1       5.343   4.116  16.749  0.00  0.00    +0.000 A 
ATOM      2  C   UNL     1       6.295   5.031  17.303  0.00  0.00    +0.000 A 
ATOM      3  C   UNL     1       7.305   5.668  16.524  0.00  0.00    +0.000 A 
ATOM      4  C   UNL     1       7.279   5.311  15.159  0.00  0.00    +0.000 A 
ATOM      5  N   UNL     1       8.084   5.650  14.129  0.00  0.00    +0.000 NA
ATOM      6  O   UNL     1       7.612   4.954  13.011  0.00  0.00    +0.000 OA
ATOM      7  C   UNL     1       6.511   4.224  13.339  0.00  0.00    +0.000 A 
ATOM      8  C   UNL     1       6.282   4.415  14.679  0.00  0.00    +0.000 A 
ATOM      9  C   UNL     1       5.312   3.749  15.391  0.00  0.00    +0.000 A 
ENDROOT
BRANCH   1  11
ATOM     10  O   UNL     1       4.325   2.183  17.509  0.00  0.00    +0.000 OA
ATOM     11  C   UNL     1       4.416   3.389  17.650  0.00  0.00    +0.000 C 
ATOM     12  N   UNL     1       3.668   4.186  18.502  0.00  0.00    +0.000 N 
ATOM     13  C   UNL     1       4.056   5.499  19.098  0.00  0.00    +0.000 C 
ATOM     14  C   UNL     1       2.716   6.108  19.495  0.00  0.00    +0.000 C 
ATOM     15  C   UNL     1       2.155   4.846  20.069  0.00  0.00    +0.000 A 
ATOM     16  C   UNL     1       1.552   4.658  21.293  0.00  0.00    +0.000 A 
ATOM     17  C   UNL     1       1.365   3.340  21.708  0.00  0.00    +0.000 A 
ATOM     18  C   UNL     1       1.645   2.253  20.855  0.00  0.00    +0.000 A 
ATOM     19  C   UNL     1       2.239   2.454  19.613  0.00  0.00    +0.000 A 
ATOM     20  C   UNL     1       2.605   3.746  19.318  0.00  0.00    +0.000 A 
ENDBRANCH   1  11
BRANCH   7  21
ATOM     21  C   UNL     1       5.871   3.423  12.302  0.00  0.00    +0.000 A 
ATOM     22  C   UNL     1       6.459   2.231  11.871  0.00  0.00    +0.000 A 
ATOM     23  C   UNL     1       5.777   1.386  10.993  0.00  0.00    +0.000 A 
ATOM     24  C   UNL     1       4.502   1.720  10.539  0.00  0.00    +0.000 A 
ATOM     25  C   UNL     1       3.908   2.905  10.958  0.00  0.00    +0.000 A 
ATOM     26  C   UNL     1       4.589   3.758  11.831  0.00  0.00    +0.000 A 
ENDBRANCH   7  21
TORSDOF 2
ENDMDL
MODEL 7
REMARK VINA RESULT:      -8.5      2.496      8.016
REMARK  Name = 
REMARK  2 active torsions:
REMARK  status: ('A' for Active; 'I' for Inactive)
REMARK    1  A    between atoms: C_2  and  C_3
REMARK    2  A    between atoms: C_9  and  C_10
REMARK                            x       y       z     vdW  Elec       q    Type
REMARK                         _______ _______ _______ _____ _____    ______ ____
ROOT
ATOM      1  C   UNL     1       1.452   8.309  19.879  0.00  0.00    +0.000 A 
ATOM      2  C   UNL     1       1.846   8.620  21.220  0.00  0.00    +0.000 A 
ATOM      3  C   UNL     1       1.199   9.618  22.008  0.00  0.00    +0.000 A 
ATOM      4  C   UNL     1       0.139  10.269  21.342  0.00  0.00    +0.000 A 
ATOM      5  N   UNL     1      -0.667  11.283  21.720  0.00  0.00    +0.000 NA
ATOM      6  O   UNL     1      -1.504  11.552  20.631  0.00  0.00    +0.000 OA
ATOM      7  C   UNL     1      -1.241  10.692  19.610  0.00  0.00    +0.000 A 
ATOM      8  C   UNL     1      -0.210   9.882  20.017  0.00  0.00    +0.000 A 
ATOM      9  C   UNL     1       0.401   8.957  19.203  0.00  0.00    +0.000 A 
ENDROOT
BRANCH   1  11
ATOM     10  O   UNL     1       3.004   7.828  18.232  0.00  0.00    +0.000 OA
ATOM     11  C   UNL     1       2.264   7.360  19.079  0.00  0.00    +0.000 C 
ATOM     12  N   UNL     1       2.015   6.017  19.316  0.00  0.00    +0.000 N 
ATOM     13  C   UNL     1       1.577   5.384  20.596  0.00  0.00    +0.000 C 
ATOM     14  C   UNL     1       0.995   4.051  20.140  0.00  0.00    +0.000 C 
ATOM     15  C   UNL     1       2.089   3.748  19.167  0.00  0.00    +0.000 A 
ATOM     16  C   UNL     1       2.820   2.588  19.036  0.00  0.00    +0.000 A 
ATOM     17  C   UNL     1       3.965   2.650  18.242  0.00  0.00    +0.000 A 
ATOM     18  C   UNL     1       4.279   3.802  17.492  0.00  0.00    +0.000 A 
ATOM     19  C   UNL     1       3.524   4.963  17.617  0.00  0.00    +0.000 A 
ATOM     20  C   UNL     1       2.528   4.940  18.565  0.00  0.00    +0.000 A 
ENDBRANCH   1  11
BRANCH   7  21
ATOM     21  C   UNL     1      -2.014  10.815  18.379  0.00  0.00    +0.000 A 
ATOM     22  C   UNL     1      -1.673  10.057  17.256  0.00  0.00    +0.000 A 
ATOM     23  C   UNL     1      -2.499  10.056  16.130  0.00  0.00    +0.000 A 
ATOM     24  C   UNL     1      -3.673  10.808  16.115  0.00  0.00    +0.000 A 
ATOM     25  C   UNL     1      -4.020  11.569  17.225  0.00  0.00    +0.000 A 
ATOM     26  C   UNL     1      -3.194  11.579  18.352  0.00  0.00    +0.000 A 
ENDBRANCH   7  21
TORSDOF 2
ENDMDL
MODEL 8
REMARK VINA RESULT:      -8.4      2.730      8.069
REMARK  Name = 
REMARK  2 active torsions:
REMARK  status: ('A' for Active; 'I' for Inactive)
REMARK    1  A    between atoms: C_2  and  C_3
REMARK    2  A    between atoms: C_9  and  C_10
REMARK                            x       y       z     vdW  Elec       q    Type
REMARK                         _______ _______ _______ _____ _____    ______ ____
ROOT
ATOM      1  C   UNL     1       1.214   8.999  19.559  0.00  0.00    +0.000 A 
ATOM      2  C   UNL     1       1.544   9.539  20.844  0.00  0.00    +0.000 A 
ATOM      3  C   UNL     1       0.747  10.523  21.500  0.00  0.00    +0.000 A 
ATOM      4  C   UNL     1      -0.393  10.914  20.765  0.00  0.00    +0.000 A 
ATOM      5  N   UNL     1      -1.346  11.837  21.015  0.00  0.00    +0.000 NA
ATOM      6  O   UNL     1      -2.203  11.831  19.909  0.00  0.00    +0.000 OA
ATOM      7  C   UNL     1      -1.804  10.892  19.007  0.00  0.00    +0.000 A 
ATOM      8  C   UNL     1      -0.666  10.308  19.506  0.00  0.00    +0.000 A 
ATOM      9  C   UNL     1       0.084   9.386  18.815  0.00  0.00    +0.000 A 
ENDROOT
BRANCH   1  11
ATOM     10  O   UNL     1       2.827   8.540  17.966  0.00  0.00    +0.000 OA
ATOM     11  C   UNL     1       2.168   8.085  18.883  0.00  0.00    +0.000 C 
ATOM     12  N   UNL     1       2.133   6.767  19.309  0.00  0.00    +0.000 N 
ATOM     13  C   UNL     1       1.796   6.258  20.672  0.00  0.00    +0.000 C 
ATOM     14  C   UNL     1       1.432   4.800  20.417  0.00  0.00    +0.000 C 
ATOM     15  C   UNL     1       2.562   4.538  19.474  0.00  0.00    +0.000 A 
ATOM     16  C   UNL     1       3.467   3.500  19.491  0.00  0.00    +0.000 A 
ATOM     17  C   UNL     1       4.591   3.628  18.674  0.00  0.00    +0.000 A 
ATOM     18  C   UNL     1       4.721   4.699  17.766  0.00  0.00    +0.000 A 
ATOM     19  C   UNL     1       3.793   5.734  17.743  0.00  0.00    +0.000 A 
ATOM     20  C   UNL     1       2.810   5.688  18.704  0.00  0.00    +0.000 A 
ENDBRANCH   1  11
BRANCH   7  21
ATOM     21  C   UNL     1      -2.574  10.735  17.778  0.00  0.00    +0.000 A 
ATOM     22  C   UNL     1      -3.764  11.445  17.598  0.00  0.00    +0.000 A 
ATOM     23  C   UNL     1      -4.421  11.416  16.367  0.00  0.00    +0.000 A 
ATOM     24  C   UNL     1      -3.898  10.681  15.304  0.00  0.00    +0.000 A 
ATOM     25  C   UNL     1      -2.718   9.967  15.472  0.00  0.00    +0.000 A 
ATOM     26  C   UNL     1      -2.058   9.987  16.705  0.00  0.00    +0.000 A 
ENDBRANCH   7  21
TORSDOF 2
ENDMDL
MODEL 9
REMARK VINA RESULT:      -8.4      2.198      3.083
REMARK  Name = 
REMARK  2 active torsions:
REMARK  status: ('A' for Active; 'I' for Inactive)
REMARK    1  A    between atoms: C_2  and  C_3
REMARK    2  A    between atoms: C_9  and  C_10
REMARK                            x       y       z     vdW  Elec       q    Type
REMARK                         _______ _______ _______ _____ _____    ______ ____
ROOT
ATOM      1  C   UNL     1       2.396   5.619  19.256  0.00  0.00    +0.000 A 
ATOM      2  C   UNL     1       1.688   4.578  18.574  0.00  0.00    +0.000 A 
ATOM      3  C   UNL     1       2.267   3.800  17.529  0.00  0.00    +0.000 A 
ATOM      4  C   UNL     1       3.599   4.155  17.228  0.00  0.00    +0.000 A 
ATOM      5  N   UNL     1       4.456   3.702  16.289  0.00  0.00    +0.000 NA
ATOM      6  O   UNL     1       5.627   4.457  16.422  0.00  0.00    +0.000 OA
ATOM      7  C   UNL     1       5.505   5.338  17.452  0.00  0.00    +0.000 A 
ATOM      8  C   UNL     1       4.243   5.184  17.971  0.00  0.00    +0.000 A 
ATOM      9  C   UNL     1       3.722   5.985  18.960  0.00  0.00    +0.000 A 
ENDROOT
BRANCH   1  11
ATOM     10  O   UNL     1       1.366   5.971  21.297  0.00  0.00    +0.000 OA
ATOM     11  C   UNL     1       1.678   6.474  20.233  0.00  0.00    +0.000 C 
ATOM     12  N   UNL     1       1.347   7.743  19.783  0.00  0.00    +0.000 N 
ATOM     13  C   UNL     1       2.091   8.583  18.798  0.00  0.00    +0.000 C 
ATOM     14  C   UNL     1       1.039   9.584  18.334  0.00  0.00    +0.000 C 
ATOM     15  C   UNL     1       0.488   9.847  19.698  0.00  0.00    +0.000 A 
ATOM     16  C   UNL     1       0.253  11.061  20.305  0.00  0.00    +0.000 A 
ATOM     17  C   UNL     1      -0.002  11.043  21.677  0.00  0.00    +0.000 A 
ATOM     18  C   UNL     1      -0.156   9.830  22.380  0.00  0.00    +0.000 A 
ATOM     19  C   UNL     1       0.065   8.608  21.754  0.00  0.00    +0.000 A 
ATOM     20  C   UNL     1       0.521   8.665  20.457  0.00  0.00    +0.000 A 
ENDBRANCH   1  11
BRANCH   7  21
ATOM     21  C   UNL     1       6.627   6.222  17.749  0.00  0.00    +0.000 A 
ATOM     22  C   UNL     1       6.738   7.458  17.108  0.00  0.00    +0.000 A 
ATOM     23  C   UNL     1       7.721   8.369  17.500  0.00  0.00    +0.000 A 
ATOM     24  C   UNL     1       8.599   8.057  18.537  0.00  0.00    +0.000 A 
ATOM     25  C   UNL     1       8.501   6.829  19.180  0.00  0.00    +0.000 A 
ATOM     26  C   UNL     1       7.524   5.910  18.787  0.00  0.00    +0.000 A 
ENDBRANCH   7  21
TORSDOF 2
ENDMDL
