MODEL 1
REMARK VINA RESULT:      -8.7      0.000      0.000
REMARK  Name = 
REMARK  6 active torsions:
REMARK  status: ('A' for Active; 'I' for Inactive)
REMARK    1  A    between atoms: C_2  and  C_17
REMARK    2  A    between atoms: N_3  and  C_4
REMARK    3  A    between atoms: C_9  and  N_10
REMARK    4  A    between atoms: C_11  and  C_13
REMARK    5  A    between atoms: C_21  and  N_22
REMARK    6  A    between atoms: C_23  and  C_25
REMARK                            x       y       z     vdW  Elec       q    Type
REMARK                         _______ _______ _______ _____ _____    ______ ____
ROOT
ATOM      1  O   UNL     1       2.219   7.638  19.103  0.00  0.00    +0.000 OA
ATOM      2  C   UNL     1       1.760   7.505  20.232  0.00  0.00    +0.000 C 
ATOM      3  N   UNL     1       1.778   6.344  21.007  0.00  0.00    +0.000 N 
ATOM      4  H   UNL     1       1.169   6.320  21.816  0.00  0.00    +0.000 HD
ENDROOT
BRANCH   3   5
ATOM      5  C   UNL     1       2.413   5.127  20.646  0.00  0.00    +0.000 A 
ATOM      6  C   UNL     1       2.004   3.906  21.181  0.00  0.00    +0.000 A 
ATOM      7  C   UNL     1       2.702   2.737  20.895  0.00  0.00    +0.000 A 
ATOM      8  C   UNL     1       3.801   2.770  20.047  0.00  0.00    +0.000 A 
ATOM      9  F   UNL     1       4.515   1.641  19.956  0.00  0.00    +0.000 F 
ATOM     10  C   UNL     1       4.192   3.954  19.409  0.00  0.00    +0.000 A 
ATOM     11  C   UNL     1       3.491   5.140  19.731  0.00  0.00    +0.000 A 
BRANCH  10  12
ATOM     12  N   UNL     1       5.292   4.036  18.509  0.00  0.00    +0.000 N 
ATOM     13  C   UNL     1       6.479   4.719  18.730  0.00  0.00    +0.000 C 
ATOM     14  O   UNL     1       6.857   5.222  19.777  0.00  0.00    +0.000 OA
ATOM     15  H   UNL     1       5.237   3.484  17.665  0.00  0.00    +0.000 HD
BRANCH  13  16
ATOM     16  C   UNL     1       7.383   4.774  17.536  0.00  0.00    +0.000 C 
ATOM     17  C   UNL     1       7.193   5.851  16.484  0.00  0.00    +0.000 C 
ATOM     18  C   UNL     1       6.831   4.432  16.168  0.00  0.00    +0.000 C 
ENDBRANCH  13  16
ENDBRANCH  10  12
ENDBRANCH   3   5
BRANCH   2  19
ATOM     19  C   UNL     1       1.049   8.677  20.818  0.00  0.00    +0.000 A 
ATOM     20  C   UNL     1       0.450   8.572  22.077  0.00  0.00    +0.000 A 
ATOM     21  C   UNL     1      -0.225   9.668  22.599  0.00  0.00    +0.000 A 
ATOM     22  C   UNL     1      -0.283  10.863  21.883  0.00  0.00    +0.000 A 
ATOM     23  C   UNL     1       0.358  11.015  20.648  0.00  0.00    +0.000 A 
ATOM     24  C   UNL     1       1.026   9.905  20.117  0.00  0.00    +0.000 A 
BRANCH  23  25
ATOM     25  N   UNL     1       0.356  12.241  19.932  0.00  0.00    +0.000 N 
ATOM     26  C   UNL     1       1.118  13.365  20.226  0.00  0.00    +0.000 C 
ATOM     27  O   UNL     1       1.917  13.462  21.159  0.00  0.00    +0.000 OA
ATOM     28  H   UNL     1      -0.275  12.333  19.133  0.00  0.00    +0.000 HD
BRANCH  26  29
ATOM     29  C   UNL     1       0.971  14.532  19.237  0.00  0.00    +0.000 C 
ATOM     30  C   UNL     1       1.648  15.776  19.811  0.00  0.00    +0.000 C 
ATOM     31  C   UNL     1       0.957  16.894  19.084  0.00  0.00    +0.000 C 
ATOM     32  C   UNL     1      -0.447  16.352  18.924  0.00  0.00    +0.000 C 
ATOM     33  O   UNL     1      -0.364  14.915  18.902  0.00  0.00    +0.000 OA
ENDBRANCH  26  29
ENDBRANCH  23  25
ENDBRANCH   2  19
TORSDOF 6
ENDMDL
MODEL 2
REMARK VINA RESULT:      -8.7      3.824     10.045
REMARK  Name = 
REMARK  6 active torsions:
REMARK  status: ('A' for Active; 'I' for Inactive)
REMARK    1  A    between atoms: C_2  and  C_17
REMARK    2  A    between atoms: N_3  and  C_4
REMARK    3  A    between atoms: C_9  and  N_10
REMARK    4  A    between atoms: C_11  and  C_13
REMARK    5  A    between atoms: C_21  and  N_22
REMARK    6  A    between atoms: C_23  and  C_25
REMARK                            x       y       z     vdW  Elec       q    Type
REMARK                         _______ _______ _______ _____ _____    ______ ____
ROOT
ATOM      1  O   UNL     1       1.368   8.825  21.046  0.00  0.00    +0.000 OA
ATOM      2  C   UNL     1       1.576   8.370  19.927  0.00  0.00    +0.000 C 
ATOM      3  N   UNL     1       1.322   9.005  18.710  0.00  0.00    +0.000 N 
ATOM      4  H   UNL     1       1.331   8.427  17.878  0.00  0.00    +0.000 HD
ENDROOT
BRANCH   3   5
ATOM      5  C   UNL     1       0.849  10.335  18.561  0.00  0.00    +0.000 A 
ATOM      6  C   UNL     1       1.707  11.428  18.662  0.00  0.00    +0.000 A 
ATOM      7  C   UNL     1       1.211  12.727  18.617  0.00  0.00    +0.000 A 
ATOM      8  C   UNL     1      -0.149  12.948  18.440  0.00  0.00    +0.000 A 
ATOM      9  F   UNL     1      -0.566  14.213  18.574  0.00  0.00    +0.000 F 
ATOM     10  C   UNL     1      -1.038  11.885  18.237  0.00  0.00    +0.000 A 
ATOM     11  C   UNL     1      -0.523  10.570  18.315  0.00  0.00    +0.000 A 
BRANCH  10  12
ATOM     12  N   UNL     1      -2.434  12.059  18.024  0.00  0.00    +0.000 N 
ATOM     13  C   UNL     1      -3.414  12.078  19.005  0.00  0.00    +0.000 C 
ATOM     14  O   UNL     1      -3.248  12.117  20.215  0.00  0.00    +0.000 OA
ATOM     15  H   UNL     1      -2.733  12.265  17.081  0.00  0.00    +0.000 HD
BRANCH  13  16
ATOM     16  C   UNL     1      -4.815  12.103  18.469  0.00  0.00    +0.000 C 
ATOM     17  C   UNL     1      -5.671  10.851  18.512  0.00  0.00    +0.000 C 
ATOM     18  C   UNL     1      -5.139  11.344  17.200  0.00  0.00    +0.000 C 
ENDBRANCH  13  16
ENDBRANCH  10  12
ENDBRANCH   3   5
BRANCH   2  19
ATOM     19  C   UNL     1       2.088   6.973  19.847  0.00  0.00    +0.000 A 
ATOM     20  C   UNL     1       1.615   6.004  20.738  0.00  0.00    +0.000 A 
ATOM     21  C   UNL     1       2.118   4.711  20.662  0.00  0.00    +0.000 A 
ATOM     22  C   UNL     1       3.066   4.382  19.695  0.00  0.00    +0.000 A 
ATOM     23  C   UNL     1       3.513   5.316  18.752  0.00  0.00    +0.000 A 
ATOM     24  C   UNL     1       3.015   6.622  18.839  0.00  0.00    +0.000 A 
BRANCH  23  25
ATOM     25  N   UNL     1       4.436   4.984  17.726  0.00  0.00    +0.000 N 
ATOM     26  C   UNL     1       5.769   4.633  17.903  0.00  0.00    +0.000 C 
ATOM     27  O   UNL     1       6.350   4.556  18.988  0.00  0.00    +0.000 OA
ATOM     28  H   UNL     1       4.116   5.020  16.757  0.00  0.00    +0.000 HD
BRANCH  26  29
ATOM     29  C   UNL     1       6.522   4.249  16.619  0.00  0.00    +0.000 C 
ATOM     30  C   UNL     1       6.889   5.513  15.845  0.00  0.00    +0.000 C 
ATOM     31  C   UNL     1       7.061   5.005  14.443  0.00  0.00    +0.000 C 
ATOM     32  C   UNL     1       6.022   3.906  14.371  0.00  0.00    +0.000 C 
ATOM     33  O   UNL     1       5.822   3.402  15.705  0.00  0.00    +0.000 OA
ENDBRANCH  26  29
ENDBRANCH  23  25
ENDBRANCH   2  19
TORSDOF 6
ENDMDL
MODEL 3
REMARK VINA RESULT:      -8.6      0.937      1.032
REMARK  Name = 
REMARK  6 active torsions:
REMARK  status: ('A' for Active; 'I' for Inactive)
REMARK    1  A    between atoms: C_2  and  C_17
REMARK    2  A    between atoms: N_3  and  C_4
REMARK    3  A    between atoms: C_9  and  N_10
REMARK    4  A    between atoms: C_11  and  C_13
REMARK    5  A    between atoms: C_21  and  N_22
REMARK    6  A    between atoms: C_23  and  C_25
REMARK                            x       y       z     vdW  Elec       q    Type
REMARK                         _______ _______ _______ _____ _____    ______ ____
ROOT
ATOM      1  O   UNL     1       1.691   8.487  19.164  0.00  0.00    +0.000 OA
ATOM      2  C   UNL     1       1.370   8.243  20.323  0.00  0.00    +0.000 C 
ATOM      3  N   UNL     1       1.512   7.023  20.987  0.00  0.00    +0.000 N 
ATOM      4  H   UNL     1       1.001   6.909  21.854  0.00  0.00    +0.000 HD
ENDROOT
BRANCH   3   5
ATOM      5  C   UNL     1       2.135   5.866  20.452  0.00  0.00    +0.000 A 
ATOM      6  C   UNL     1       1.632   4.589  20.698  0.00  0.00    +0.000 A 
ATOM      7  C   UNL     1       2.313   3.461  20.253  0.00  0.00    +0.000 A 
ATOM      8  C   UNL     1       3.491   3.596  19.529  0.00  0.00    +0.000 A 
ATOM      9  F   UNL     1       4.169   2.469  19.283  0.00  0.00    +0.000 F 
ATOM     10  C   UNL     1       3.984   4.858  19.174  0.00  0.00    +0.000 A 
ATOM     11  C   UNL     1       3.297   5.996  19.659  0.00  0.00    +0.000 A 
BRANCH  10  12
ATOM     12  N   UNL     1       5.170   5.051  18.411  0.00  0.00    +0.000 N 
ATOM     13  C   UNL     1       6.435   5.309  18.918  0.00  0.00    +0.000 C 
ATOM     14  O   UNL     1       6.788   5.253  20.086  0.00  0.00    +0.000 OA
ATOM     15  H   UNL     1       5.101   4.912  17.413  0.00  0.00    +0.000 HD
BRANCH  13  16
ATOM     16  C   UNL     1       7.457   5.641  17.872  0.00  0.00    +0.000 C 
ATOM     17  C   UNL     1       7.591   7.062  17.359  0.00  0.00    +0.000 C 
ATOM     18  C   UNL     1       7.000   6.006  16.476  0.00  0.00    +0.000 C 
ENDBRANCH  13  16
ENDBRANCH  10  12
ENDBRANCH   3   5
BRANCH   2  19
ATOM     19  C   UNL     1       0.698   9.334  21.084  0.00  0.00    +0.000 A 
ATOM     20  C   UNL     1       0.070   9.052  22.301  0.00  0.00    +0.000 A 
ATOM     21  C   UNL     1      -0.568  10.077  22.988  0.00  0.00    +0.000 A 
ATOM     22  C   UNL     1      -0.561  11.375  22.478  0.00  0.00    +0.000 A 
ATOM     23  C   UNL     1       0.111  11.698  21.292  0.00  0.00    +0.000 A 
ATOM     24  C   UNL     1       0.742  10.660  20.595  0.00  0.00    +0.000 A 
BRANCH  23  25
ATOM     25  N   UNL     1       0.175  13.023  20.788  0.00  0.00    +0.000 N 
ATOM     26  C   UNL     1       1.221  13.920  20.968  0.00  0.00    +0.000 C 
ATOM     27  O   UNL     1       2.257  13.694  21.596  0.00  0.00    +0.000 OA
ATOM     28  H   UNL     1      -0.623  13.378  20.257  0.00  0.00    +0.000 HD
BRANCH  26  29
ATOM     29  C   UNL     1       1.059  15.268  20.247  0.00  0.00    +0.000 C 
ATOM     30  C   UNL     1       0.167  16.188  21.078  0.00  0.00    +0.000 C 
ATOM     31  C   UNL     1      -0.356  17.155  20.055  0.00  0.00    +0.000 C 
ATOM     32  C   UNL     1      -0.480  16.282  18.825  0.00  0.00    +0.000 C 
ATOM     33  O   UNL     1       0.486  15.221  18.938  0.00  0.00    +0.000 OA
ENDBRANCH  26  29
ENDBRANCH  23  25
ENDBRANCH   2  19
TORSDOF 6
ENDMDL
MODEL 4
REMARK VINA RESULT:      -8.6      3.912      5.454
REMARK  Name = 
REMARK  6 active torsions:
REMARK  status: ('A' for Active; 'I' for Inactive)
REMARK    1  A    between atoms: C_2  and  C_17
REMARK    2  A    between atoms: N_3  and  C_4
REMARK    3  A    between atoms: C_9  and  N_10
REMARK    4  A    between atoms: C_11  and  C_13
REMARK    5  A    between atoms: C_21  and  N_22
REMARK    6  A    between atoms: C_23  and  C_25
REMARK                            x       y       z     vdW  Elec       q    Type
REMARK                         _______ _______ _______ _____ _____    ______ ____
ROOT
ATOM      1  O   UNL     1       1.479   8.692  20.008  0.00  0.00    +0.000 OA
ATOM      2  C   UNL     1       1.475   9.232  18.907  0.00  0.00    +0.000 C 
ATOM      3  N   UNL     1       2.195   8.829  17.781  0.00  0.00    +0.000 N 
ATOM      4  H   UNL     1       2.269   9.493  17.019  0.00  0.00    +0.000 HD
ENDROOT
BRANCH   3   5
ATOM      5  C   UNL     1       3.002   7.664  17.695  0.00  0.00    +0.000 A 
ATOM      6  C   UNL     1       4.089   7.593  16.826  0.00  0.00    +0.000 A 
ATOM      7  C   UNL     1       4.805   6.410  16.681  0.00  0.00    +0.000 A 
ATOM      8  C   UNL     1       4.461   5.289  17.425  0.00  0.00    +0.000 A 
ATOM      9  F   UNL     1       5.087   4.150  17.107  0.00  0.00    +0.000 F 
ATOM     10  C   UNL     1       3.438   5.339  18.381  0.00  0.00    +0.000 A 
ATOM     11  C   UNL     1       2.700   6.540  18.497  0.00  0.00    +0.000 A 
BRANCH  10  12
ATOM     12  N   UNL     1       3.065   4.228  19.190  0.00  0.00    +0.000 N 
ATOM     13  C   UNL     1       1.982   3.388  18.973  0.00  0.00    +0.000 C 
ATOM     14  O   UNL     1       1.267   3.344  17.984  0.00  0.00    +0.000 OA
ATOM     15  H   UNL     1       3.687   3.980  19.946  0.00  0.00    +0.000 HD
BRANCH  13  16
ATOM     16  C   UNL     1       1.734   2.413  20.085  0.00  0.00    +0.000 C 
ATOM     17  C   UNL     1       1.128   2.884  21.394  0.00  0.00    +0.000 C 
ATOM     18  C   UNL     1       2.573   2.490  21.343  0.00  0.00    +0.000 C 
ENDBRANCH  13  16
ENDBRANCH  10  12
ENDBRANCH   3   5
BRANCH   2  19
ATOM     19  C   UNL     1       0.677  10.482  18.767  0.00  0.00    +0.000 A 
ATOM     20  C   UNL     1       1.320  11.723  18.761  0.00  0.00    +0.000 A 
ATOM     21  C   UNL     1       0.558  12.880  18.649  0.00  0.00    +0.000 A 
ATOM     22  C   UNL     1      -0.828  12.799  18.522  0.00  0.00    +0.000 A 
ATOM     23  C   UNL     1      -1.492  11.567  18.465  0.00  0.00    +0.000 A 
ATOM     24  C   UNL     1      -0.724  10.403  18.591  0.00  0.00    +0.000 A 
BRANCH  23  25
ATOM     25  N   UNL     1      -2.896  11.465  18.280  0.00  0.00    +0.000 N 
ATOM     26  C   UNL     1      -3.554  11.280  17.070  0.00  0.00    +0.000 C 
ATOM     27  O   UNL     1      -3.009  11.175  15.969  0.00  0.00    +0.000 OA
ATOM     28  H   UNL     1      -3.500  11.554  19.100  0.00  0.00    +0.000 HD
BRANCH  26  29
ATOM     29  C   UNL     1      -5.080  11.130  17.171  0.00  0.00    +0.000 C 
ATOM     30  C   UNL     1      -5.734  12.509  17.126  0.00  0.00    +0.000 C 
ATOM     31  C   UNL     1      -7.059  12.271  17.791  0.00  0.00    +0.000 C 
ATOM     32  C   UNL     1      -6.711  11.226  18.830  0.00  0.00    +0.000 C 
ATOM     33  O   UNL     1      -5.577  10.484  18.345  0.00  0.00    +0.000 OA
ENDBRANCH  26  29
ENDBRANCH  23  25
ENDBRANCH   2  19
TORSDOF 6
ENDMDL
MODEL 5
REMARK VINA RESULT:      -8.6      1.358      1.558
REMARK  Name = 
REMARK  6 active torsions:
REMARK  status: ('A' for Active; 'I' for Inactive)
REMARK    1  A    between atoms: C_2  and  C_17
REMARK    2  A    between atoms: N_3  and  C_4
REMARK    3  A    between atoms: C_9  and  N_10
REMARK    4  A    between atoms: C_11  and  C_13
REMARK    5  A    between atoms: C_21  and  N_22
REMARK    6  A    between atoms: C_23  and  C_25
REMARK                            x       y       z     vdW  Elec       q    Type
REMARK                         _______ _______ _______ _____ _____    ______ ____
ROOT
ATOM      1  O   UNL     1       1.490   8.650  19.196  0.00  0.00    +0.000 OA
ATOM      2  C   UNL     1       1.232   8.377  20.363  0.00  0.00    +0.000 C 
ATOM      3  N   UNL     1       1.451   7.153  20.999  0.00  0.00    +0.000 N 
ATOM      4  H   UNL     1       0.985   7.006  21.887  0.00  0.00    +0.000 HD
ENDROOT
BRANCH   3   5
ATOM      5  C   UNL     1       2.092   6.029  20.417  0.00  0.00    +0.000 A 
ATOM      6  C   UNL     1       1.590   4.739  20.580  0.00  0.00    +0.000 A 
ATOM      7  C   UNL     1       2.287   3.639  20.090  0.00  0.00    +0.000 A 
ATOM      8  C   UNL     1       3.482   3.819  19.405  0.00  0.00    +0.000 A 
ATOM      9  F   UNL     1       4.171   2.709  19.114  0.00  0.00    +0.000 F 
ATOM     10  C   UNL     1       3.977   5.100  19.132  0.00  0.00    +0.000 A 
ATOM     11  C   UNL     1       3.274   6.207  19.661  0.00  0.00    +0.000 A 
BRANCH  10  12
ATOM     12  N   UNL     1       5.180   5.339  18.410  0.00  0.00    +0.000 N 
ATOM     13  C   UNL     1       6.455   5.418  18.951  0.00  0.00    +0.000 C 
ATOM     14  O   UNL     1       6.793   5.138  20.091  0.00  0.00    +0.000 OA
ATOM     15  H   UNL     1       5.112   5.378  17.403  0.00  0.00    +0.000 HD
BRANCH  13  16
ATOM     16  C   UNL     1       7.507   5.853  17.974  0.00  0.00    +0.000 C 
ATOM     17  C   UNL     1       7.710   7.327  17.677  0.00  0.00    +0.000 C 
ATOM     18  C   UNL     1       7.088   6.438  16.642  0.00  0.00    +0.000 C 
ENDBRANCH  13  16
ENDBRANCH  10  12
ENDBRANCH   3   5
BRANCH   2  19
ATOM     19  C   UNL     1       0.555   9.429  21.173  0.00  0.00    +0.000 A 
ATOM     20  C   UNL     1      -0.127   9.079  22.342  0.00  0.00    +0.000 A 
ATOM     21  C   UNL     1      -0.769  10.069  23.074  0.00  0.00    +0.000 A 
ATOM     22  C   UNL     1      -0.713  11.399  22.657  0.00  0.00    +0.000 A 
ATOM     23  C   UNL     1       0.013  11.786  21.524  0.00  0.00    +0.000 A 
ATOM     24  C   UNL     1       0.648  10.784  20.780  0.00  0.00    +0.000 A 
BRANCH  23  25
ATOM     25  N   UNL     1       0.126  13.141  21.116  0.00  0.00    +0.000 N 
ATOM     26  C   UNL     1      -0.631  13.770  20.135  0.00  0.00    +0.000 C 
ATOM     27  O   UNL     1      -1.522  13.238  19.470  0.00  0.00    +0.000 OA
ATOM     28  H   UNL     1       0.841  13.722  21.560  0.00  0.00    +0.000 HD
BRANCH  26  29
ATOM     29  C   UNL     1      -0.347  15.268  19.948  0.00  0.00    +0.000 C 
ATOM     30  C   UNL     1      -1.632  16.063  20.167  0.00  0.00    +0.000 C 
ATOM     31  C   UNL     1      -1.366  17.338  19.418  0.00  0.00    +0.000 C 
ATOM     32  C   UNL     1      -0.529  16.854  18.253  0.00  0.00    +0.000 C 
ATOM     33  O   UNL     1       0.161  15.662  18.671  0.00  0.00    +0.000 OA
ENDBRANCH  26  29
ENDBRANCH  23  25
ENDBRANCH   2  19
TORSDOF 6
ENDMDL
MODEL 6
REMARK VINA RESULT:      -8.4      1.284      1.385
REMARK  Name = 
REMARK  6 active torsions:
REMARK  status: ('A' for Active; 'I' for Inactive)
REMARK    1  A    between atoms: C_2  and  C_17
REMARK    2  A    between atoms: N_3  and  C_4
REMARK    3  A    between atoms: C_9  and  N_10
REMARK    4  A    between atoms: C_11  and  C_13
REMARK    5  A    between atoms: C_21  and  N_22
REMARK    6  A    between atoms: C_23  and  C_25
REMARK                            x       y       z     vdW  Elec       q    Type
REMARK                         _______ _______ _______ _____ _____    ______ ____
ROOT
ATOM      1  O   UNL     1       2.248   7.628  19.120  0.00  0.00    +0.000 OA
ATOM      2  C   UNL     1       1.794   7.483  20.250  0.00  0.00    +0.000 C 
ATOM      3  N   UNL     1       1.820   6.315  21.014  0.00  0.00    +0.000 N 
ATOM      4  H   UNL     1       1.214   6.282  21.825  0.00  0.00    +0.000 HD
ENDROOT
BRANCH   3   5
ATOM      5  C   UNL     1       2.456   5.103  20.638  0.00  0.00    +0.000 A 
ATOM      6  C   UNL     1       2.123   3.890  21.239  0.00  0.00    +0.000 A 
ATOM      7  C   UNL     1       2.827   2.730  20.932  0.00  0.00    +0.000 A 
ATOM      8  C   UNL     1       3.855   2.763  19.999  0.00  0.00    +0.000 A 
ATOM      9  F   UNL     1       4.589   1.650  19.885  0.00  0.00    +0.000 F 
ATOM     10  C   UNL     1       4.163   3.937  19.299  0.00  0.00    +0.000 A 
ATOM     11  C   UNL     1       3.458   5.114  19.642  0.00  0.00    +0.000 A 
BRANCH  10  12
ATOM     12  N   UNL     1       5.187   4.017  18.313  0.00  0.00    +0.000 N 
ATOM     13  C   UNL     1       5.003   3.963  16.939  0.00  0.00    +0.000 C 
ATOM     14  O   UNL     1       3.944   4.004  16.333  0.00  0.00    +0.000 OA
ATOM     15  H   UNL     1       6.124   4.209  18.638  0.00  0.00    +0.000 HD
BRANCH  13  16
ATOM     16  C   UNL     1       6.280   3.897  16.155  0.00  0.00    +0.000 C 
ATOM     17  C   UNL     1       6.815   5.135  15.461  0.00  0.00    +0.000 C 
ATOM     18  C   UNL     1       6.233   4.020  14.647  0.00  0.00    +0.000 C 
ENDBRANCH  13  16
ENDBRANCH  10  12
ENDBRANCH   3   5
BRANCH   2  19
ATOM     19  C   UNL     1       1.083   8.648  20.849  0.00  0.00    +0.000 A 
ATOM     20  C   UNL     1       0.408   8.502  22.065  0.00  0.00    +0.000 A 
ATOM     21  C   UNL     1      -0.266   9.593  22.600  0.00  0.00    +0.000 A 
ATOM     22  C   UNL     1      -0.249  10.821  21.940  0.00  0.00    +0.000 A 
ATOM     23  C   UNL     1       0.468  11.011  20.752  0.00  0.00    +0.000 A 
ATOM     24  C   UNL     1       1.135   9.907  20.208  0.00  0.00    +0.000 A 
BRANCH  23  25
ATOM     25  N   UNL     1       0.541  12.268  20.097  0.00  0.00    +0.000 N 
ATOM     26  C   UNL     1       1.508  13.245  20.302  0.00  0.00    +0.000 C 
ATOM     27  O   UNL     1       2.453  13.162  21.088  0.00  0.00    +0.000 OA
ATOM     28  H   UNL     1      -0.189  12.505  19.422  0.00  0.00    +0.000 HD
BRANCH  26  29
ATOM     29  C   UNL     1       1.387  14.484  19.400  0.00  0.00    +0.000 C 
ATOM     30  C   UNL     1       2.616  14.582  18.499  0.00  0.00    +0.000 C 
ATOM     31  C   UNL     1       2.650  16.040  18.140  0.00  0.00    +0.000 C 
ATOM     32  C   UNL     1       2.130  16.691  19.404  0.00  0.00    +0.000 C 
ATOM     33  O   UNL     1       1.272  15.743  20.067  0.00  0.00    +0.000 OA
ENDBRANCH  26  29
ENDBRANCH  23  25
ENDBRANCH   2  19
TORSDOF 6
ENDMDL
MODEL 7
REMARK VINA RESULT:      -8.4      3.205      9.469
REMARK  Name = 
REMARK  6 active torsions:
REMARK  status: ('A' for Active; 'I' for Inactive)
REMARK    1  A    between atoms: C_2  and  C_17
REMARK    2  A    between atoms: N_3  and  C_4
REMARK    3  A    between atoms: C_9  and  N_10
REMARK    4  A    between atoms: C_11  and  C_13
REMARK    5  A    between atoms: C_21  and  N_22
REMARK    6  A    between atoms: C_23  and  C_25
REMARK                            x       y       z     vdW  Elec       q    Type
REMARK                         _______ _______ _______ _____ _____    ______ ____
ROOT
ATOM      1  O   UNL     1       1.423   8.600  21.260  0.00  0.00    +0.000 OA
ATOM      2  C   UNL     1       1.616   8.197  20.118  0.00  0.00    +0.000 C 
ATOM      3  N   UNL     1       1.345   8.887  18.935  0.00  0.00    +0.000 N 
ATOM      4  H   UNL     1       1.344   8.348  18.077  0.00  0.00    +0.000 HD
ENDROOT
BRANCH   3   5
ATOM      5  C   UNL     1       0.870  10.222  18.854  0.00  0.00    +0.000 A 
ATOM      6  C   UNL     1      -0.485  10.521  18.991  0.00  0.00    +0.000 A 
ATOM      7  C   UNL     1      -0.946  11.821  18.807  0.00  0.00    +0.000 A 
ATOM      8  C   UNL     1      -0.053  12.843  18.512  0.00  0.00    +0.000 A 
ATOM      9  F   UNL     1      -0.592  14.025  18.186  0.00  0.00    +0.000 F 
ATOM     10  C   UNL     1       1.326  12.610  18.459  0.00  0.00    +0.000 A 
ATOM     11  C   UNL     1       1.778  11.279  18.619  0.00  0.00    +0.000 A 
BRANCH  10  12
ATOM     12  N   UNL     1       2.285  13.627  18.188  0.00  0.00    +0.000 N 
ATOM     13  C   UNL     1       3.104  14.246  19.121  0.00  0.00    +0.000 C 
ATOM     14  O   UNL     1       3.270  13.923  20.288  0.00  0.00    +0.000 OA
ATOM     15  H   UNL     1       2.439  13.868  17.219  0.00  0.00    +0.000 HD
BRANCH  13  16
ATOM     16  C   UNL     1       3.888  15.401  18.575  0.00  0.00    +0.000 C 
ATOM     17  C   UNL     1       3.290  16.796  18.570  0.00  0.00    +0.000 C 
ATOM     18  C   UNL     1       3.450  16.051  17.280  0.00  0.00    +0.000 C 
ENDBRANCH  13  16
ENDBRANCH  10  12
ENDBRANCH   3   5
BRANCH   2  19
ATOM     19  C   UNL     1       2.129   6.806  19.967  0.00  0.00    +0.000 A 
ATOM     20  C   UNL     1       1.651   5.792  20.803  0.00  0.00    +0.000 A 
ATOM     21  C   UNL     1       2.154   4.504  20.662  0.00  0.00    +0.000 A 
ATOM     22  C   UNL     1       3.107   4.226  19.683  0.00  0.00    +0.000 A 
ATOM     23  C   UNL     1       3.559   5.209  18.793  0.00  0.00    +0.000 A 
ATOM     24  C   UNL     1       3.061   6.509  18.946  0.00  0.00    +0.000 A 
BRANCH  23  25
ATOM     25  N   UNL     1       4.487   4.931  17.756  0.00  0.00    +0.000 N 
ATOM     26  C   UNL     1       5.818   4.566  17.921  0.00  0.00    +0.000 C 
ATOM     27  O   UNL     1       6.392   4.427  19.003  0.00  0.00    +0.000 OA
ATOM     28  H   UNL     1       4.173   5.022  16.788  0.00  0.00    +0.000 HD
BRANCH  26  29
ATOM     29  C   UNL     1       6.577   4.251  16.622  0.00  0.00    +0.000 C 
ATOM     30  C   UNL     1       6.861   5.549  15.869  0.00  0.00    +0.000 C 
ATOM     31  C   UNL     1       7.047   5.078  14.455  0.00  0.00    +0.000 C 
ATOM     32  C   UNL     1       6.073   3.923  14.373  0.00  0.00    +0.000 C 
ATOM     33  O   UNL     1       5.918   3.382  15.698  0.00  0.00    +0.000 OA
ENDBRANCH  26  29
ENDBRANCH  23  25
ENDBRANCH   2  19
TORSDOF 6
ENDMDL
MODEL 8
REMARK VINA RESULT:      -8.4      2.751      9.510
REMARK  Name = 
REMARK  6 active torsions:
REMARK  status: ('A' for Active; 'I' for Inactive)
REMARK    1  A    between atoms: C_2  and  C_17
REMARK    2  A    between atoms: N_3  and  C_4
REMARK    3  A    between atoms: C_9  and  N_10
REMARK    4  A    between atoms: C_11  and  C_13
REMARK    5  A    between atoms: C_21  and  N_22
REMARK    6  A    between atoms: C_23  and  C_25
REMARK                            x       y       z     vdW  Elec       q    Type
REMARK                         _______ _______ _______ _____ _____    ______ ____
ROOT
ATOM      1  O   UNL     1       1.714   8.554  19.150  0.00  0.00    +0.000 OA
ATOM      2  C   UNL     1       1.698   7.804  20.120  0.00  0.00    +0.000 C 
ATOM      3  N   UNL     1       1.234   8.110  21.401  0.00  0.00    +0.000 N 
ATOM      4  H   UNL     1       1.491   7.474  22.148  0.00  0.00    +0.000 HD
ENDROOT
BRANCH   3   5
ATOM      5  C   UNL     1       0.619   9.331  21.781  0.00  0.00    +0.000 A 
ATOM      6  C   UNL     1      -0.257   9.399  22.863  0.00  0.00    +0.000 A 
ATOM      7  C   UNL     1      -0.930  10.580  23.158  0.00  0.00    +0.000 A 
ATOM      8  C   UNL     1      -0.712  11.717  22.391  0.00  0.00    +0.000 A 
ATOM      9  F   UNL     1      -1.517  12.759  22.634  0.00  0.00    +0.000 F 
ATOM     10  C   UNL     1       0.230  11.725  21.355  0.00  0.00    +0.000 A 
ATOM     11  C   UNL     1       0.884  10.510  21.048  0.00  0.00    +0.000 A 
BRANCH  10  12
ATOM     12  N   UNL     1       0.511  12.871  20.559  0.00  0.00    +0.000 N 
ATOM     13  C   UNL     1       1.228  13.989  20.960  0.00  0.00    +0.000 C 
ATOM     14  O   UNL     1       1.877  14.120  21.987  0.00  0.00    +0.000 OA
ATOM     15  H   UNL     1       0.230  12.837  19.589  0.00  0.00    +0.000 HD
BRANCH  13  16
ATOM     16  C   UNL     1       1.215  15.112  19.968  0.00  0.00    +0.000 C 
ATOM     17  C   UNL     1       2.171  15.102  18.789  0.00  0.00    +0.000 C 
ATOM     18  C   UNL     1       2.387  16.070  19.913  0.00  0.00    +0.000 C 
ENDBRANCH  13  16
ENDBRANCH  10  12
ENDBRANCH   3   5
BRANCH   2  19
ATOM     19  C   UNL     1       2.294   6.450  19.940  0.00  0.00    +0.000 A 
ATOM     20  C   UNL     1       1.927   5.407  20.796  0.00  0.00    +0.000 A 
ATOM     21  C   UNL     1       2.507   4.156  20.626  0.00  0.00    +0.000 A 
ATOM     22  C   UNL     1       3.427   3.942  19.600  0.00  0.00    +0.000 A 
ATOM     23  C   UNL     1       3.768   4.952  18.692  0.00  0.00    +0.000 A 
ATOM     24  C   UNL     1       3.193   6.216  18.874  0.00  0.00    +0.000 A 
BRANCH  23  25
ATOM     25  N   UNL     1       4.661   4.736  17.610  0.00  0.00    +0.000 N 
ATOM     26  C   UNL     1       6.027   4.503  17.706  0.00  0.00    +0.000 C 
ATOM     27  O   UNL     1       6.670   4.447  18.756  0.00  0.00    +0.000 OA
ATOM     28  H   UNL     1       4.286   4.772  16.660  0.00  0.00    +0.000 HD
BRANCH  26  29
ATOM     29  C   UNL     1       6.740   4.228  16.373  0.00  0.00    +0.000 C 
ATOM     30  C   UNL     1       6.917   5.538  15.608  0.00  0.00    +0.000 C 
ATOM     31  C   UNL     1       7.062   5.076  14.187  0.00  0.00    +0.000 C 
ATOM     32  C   UNL     1       6.149   3.869  14.150  0.00  0.00    +0.000 C 
ATOM     33  O   UNL     1       6.088   3.323  15.480  0.00  0.00    +0.000 OA
ENDBRANCH  26  29
ENDBRANCH  23  25
ENDBRANCH   2  19
TORSDOF 6
ENDMDL
MODEL 9
REMARK VINA RESULT:      -8.4      2.498      3.534
REMARK  Name = 
REMARK  6 active torsions:
REMARK  status: ('A' for Active; 'I' for Inactive)
REMARK    1  A    between atoms: C_2  and  C_17
REMARK    2  A    between atoms: N_3  and  C_4
REMARK    3  A    between atoms: C_9  and  N_10
REMARK    4  A    between atoms: C_11  and  C_13
REMARK    5  A    between atoms: C_21  and  N_22
REMARK    6  A    between atoms: C_23  and  C_25
REMARK                            x       y       z     vdW  Elec       q    Type
REMARK                         _______ _______ _______ _____ _____    ______ ____
ROOT
ATOM      1  O   UNL     1       1.988   8.649  17.401  0.00  0.00    +0.000 OA
ATOM      2  C   UNL     1       1.777   8.950  18.570  0.00  0.00    +0.000 C 
ATOM      3  N   UNL     1       1.832   8.095  19.673  0.00  0.00    +0.000 N 
ATOM      4  H   UNL     1       1.416   8.428  20.535  0.00  0.00    +0.000 HD
ENDROOT
BRANCH   3   5
ATOM      5  C   UNL     1       2.225   6.732  19.635  0.00  0.00    +0.000 A 
ATOM      6  C   UNL     1       1.868   5.843  20.647  0.00  0.00    +0.000 A 
ATOM      7  C   UNL     1       2.348   4.537  20.647  0.00  0.00    +0.000 A 
ATOM      8  C   UNL     1       3.170   4.096  19.618  0.00  0.00    +0.000 A 
ATOM      9  F   UNL     1       3.722   2.887  19.777  0.00  0.00    +0.000 F 
ATOM     10  C   UNL     1       3.478   4.922  18.530  0.00  0.00    +0.000 A 
ATOM     11  C   UNL     1       3.007   6.255  18.559  0.00  0.00    +0.000 A 
BRANCH  10  12
ATOM     12  N   UNL     1       4.291   4.509  17.437  0.00  0.00    +0.000 N 
ATOM     13  C   UNL     1       5.670   4.355  17.457  0.00  0.00    +0.000 C 
ATOM     14  O   UNL     1       6.402   4.380  18.435  0.00  0.00    +0.000 OA
ATOM     15  H   UNL     1       3.816   4.229  16.591  0.00  0.00    +0.000 HD
BRANCH  13  16
ATOM     16  C   UNL     1       6.273   4.079  16.113  0.00  0.00    +0.000 C 
ATOM     17  C   UNL     1       6.872   5.210  15.297  0.00  0.00    +0.000 C 
ATOM     18  C   UNL     1       5.579   4.588  14.867  0.00  0.00    +0.000 C 
ENDBRANCH  13  16
ENDBRANCH  10  12
ENDBRANCH   3   5
BRANCH   2  19
ATOM     19  C   UNL     1       1.353  10.352  18.844  0.00  0.00    +0.000 A 
ATOM     20  C   UNL     1       2.088  11.418  18.315  0.00  0.00    +0.000 A 
ATOM     21  C   UNL     1       1.690  12.720  18.596  0.00  0.00    +0.000 A 
ATOM     22  C   UNL     1       0.559  12.955  19.377  0.00  0.00    +0.000 A 
ATOM     23  C   UNL     1      -0.229  11.907  19.868  0.00  0.00    +0.000 A 
ATOM     24  C   UNL     1       0.181  10.597  19.596  0.00  0.00    +0.000 A 
BRANCH  23  25
ATOM     25  N   UNL     1      -1.414  12.130  20.618  0.00  0.00    +0.000 N 
ATOM     26  C   UNL     1      -1.505  12.226  22.001  0.00  0.00    +0.000 C 
ATOM     27  O   UNL     1      -0.560  12.132  22.788  0.00  0.00    +0.000 OA
ATOM     28  H   UNL     1      -2.299  12.210  20.112  0.00  0.00    +0.000 HD
BRANCH  26  29
ATOM     29  C   UNL     1      -2.906  12.545  22.545  0.00  0.00    +0.000 C 
ATOM     30  C   UNL     1      -2.951  13.995  23.022  0.00  0.00    +0.000 C 
ATOM     31  C   UNL     1      -4.089  13.987  24.002  0.00  0.00    +0.000 C 
ATOM     32  C   UNL     1      -3.974  12.607  24.614  0.00  0.00    +0.000 C 
ATOM     33  O   UNL     1      -3.358  11.744  23.640  0.00  0.00    +0.000 OA
ENDBRANCH  26  29
ENDBRANCH  23  25
ENDBRANCH   2  19
TORSDOF 6
ENDMDL
