MODEL 1
REMARK VINA RESULT:      -8.3      0.000      0.000
REMARK  Name = 
REMARK  5 active torsions:
REMARK  status: ('A' for Active; 'I' for Inactive)
REMARK    1  A    between atoms: C_2  and  C_3
REMARK    2  A    between atoms: C_3  and  C_4
REMARK    3  A    between atoms: N_13  and  C_14
REMARK    4  A    between atoms: C_17  and  O_18
REMARK    5  A    between atoms: O_18  and  C_19
REMARK                            x       y       z     vdW  Elec       q    Type
REMARK                         _______ _______ _______ _____ _____    ______ ____
ROOT
ATOM      1  O   UNL     1      -2.181  10.222  18.362  0.00  0.00    +0.000 OA
ATOM      2  C   UNL     1      -1.583  11.109  18.973  0.00  0.00    +0.000 C 
ATOM      3  N   UNL     1      -0.277  11.022  19.436  0.00  0.00    +0.000 N 
ATOM      4  H   UNL     1       0.059  11.791  20.018  0.00  0.00    +0.000 HD
ENDROOT
BRANCH   3   5
ATOM      5  C   UNL     1       0.581   9.907  19.314  0.00  0.00    +0.000 A 
ATOM      6  C   UNL     1       1.176   9.538  18.107  0.00  0.00    +0.000 A 
ATOM      7  C   UNL     1       1.972   8.395  18.021  0.00  0.00    +0.000 A 
ATOM      8  C   UNL     1       2.247   7.641  19.161  0.00  0.00    +0.000 A 
ATOM      9  C   UNL     1       1.656   7.999  20.373  0.00  0.00    +0.000 A 
ATOM     10  C   UNL     1       0.835   9.134  20.453  0.00  0.00    +0.000 A 
BRANCH   8  11
ATOM     11  O   UNL     1       3.036   6.512  19.169  0.00  0.00    +0.000 OA
BRANCH  11  12
ATOM     12  C   UNL     1       2.449   5.265  19.116  0.00  0.00    +0.000 A 
ATOM     13  C   UNL     1       2.057   4.635  17.928  0.00  0.00    +0.000 A 
ATOM     14  C   UNL     1       1.437   3.386  17.966  0.00  0.00    +0.000 A 
ATOM     15  C   UNL     1       1.268   2.731  19.185  0.00  0.00    +0.000 A 
ATOM     16  C   UNL     1       1.724   3.330  20.359  0.00  0.00    +0.000 A 
ATOM     17 CL   UNL     1       1.565   2.492  21.855  0.00  0.00    +0.000 Cl
ATOM     18  C   UNL     1       2.310   4.595  20.332  0.00  0.00    +0.000 A 
ENDBRANCH  11  12
ENDBRANCH   8  11
ENDBRANCH   3   5
BRANCH   2  19
ATOM     19  C   UNL     1      -2.284  12.435  19.192  0.00  0.00    +0.000 C 
BRANCH  19  20
ATOM     20  C   UNL     1      -2.983  12.529  20.490  0.00  0.00    +0.000 A 
ATOM     21  N   UNL     1      -4.332  12.759  20.559  0.00  0.00    +0.000 NA
ATOM     22  C   UNL     1      -4.588  12.720  21.849  0.00  0.00    +0.000 A 
ATOM     23  N   UNL     1      -5.783  12.857  22.496  0.00  0.00    +0.000 NA
ATOM     24  C   UNL     1      -5.734  12.783  23.790  0.00  0.00    +0.000 A 
ATOM     25  C   UNL     1      -4.508  12.584  24.621  0.00  0.00    +0.000 A 
ATOM     26  C   UNL     1      -3.369  12.449  23.930  0.00  0.00    +0.000 A 
ATOM     27  N   UNL     1      -3.389  12.507  22.542  0.00  0.00    +0.000 N 
ATOM     28  N   UNL     1      -2.368  12.378  21.668  0.00  0.00    +0.000 NA
ENDBRANCH  19  20
ENDBRANCH   2  19
TORSDOF 5
ENDMDL
MODEL 2
REMARK VINA RESULT:      -8.1      4.778      9.975
REMARK  Name = 
REMARK  5 active torsions:
REMARK  status: ('A' for Active; 'I' for Inactive)
REMARK    1  A    between atoms: C_2  and  C_3
REMARK    2  A    between atoms: C_3  and  C_4
REMARK    3  A    between atoms: N_13  and  C_14
REMARK    4  A    between atoms: C_17  and  O_18
REMARK    5  A    between atoms: O_18  and  C_19
REMARK                            x       y       z     vdW  Elec       q    Type
REMARK                         _______ _______ _______ _____ _____    ______ ____
ROOT
ATOM      1  O   UNL     1       0.857   5.320  20.356  0.00  0.00    +0.000 OA
ATOM      2  C   UNL     1       2.039   5.620  20.186  0.00  0.00    +0.000 C 
ATOM      3  N   UNL     1       2.512   6.900  19.929  0.00  0.00    +0.000 N 
ATOM      4  H   UNL     1       3.503   6.991  19.705  0.00  0.00    +0.000 HD
ENDROOT
BRANCH   3   5
ATOM      5  C   UNL     1       1.729   8.068  19.794  0.00  0.00    +0.000 A 
ATOM      6  C   UNL     1       0.945   8.578  20.828  0.00  0.00    +0.000 A 
ATOM      7  C   UNL     1       0.143   9.704  20.632  0.00  0.00    +0.000 A 
ATOM      8  C   UNL     1       0.170  10.384  19.415  0.00  0.00    +0.000 A 
ATOM      9  C   UNL     1       0.950   9.883  18.372  0.00  0.00    +0.000 A 
ATOM     10  C   UNL     1       1.736   8.736  18.564  0.00  0.00    +0.000 A 
BRANCH   8  11
ATOM     11  O   UNL     1      -0.573  11.512  19.143  0.00  0.00    +0.000 OA
BRANCH  11  12
ATOM     12  C   UNL     1      -1.810  11.390  18.548  0.00  0.00    +0.000 A 
ATOM     13  C   UNL     1      -3.002  11.852  19.120  0.00  0.00    +0.000 A 
ATOM     14  C   UNL     1      -4.219  11.657  18.465  0.00  0.00    +0.000 A 
ATOM     15  C   UNL     1      -4.241  11.059  17.206  0.00  0.00    +0.000 A 
ATOM     16  C   UNL     1      -3.045  10.664  16.608  0.00  0.00    +0.000 A 
ATOM     17 CL   UNL     1      -3.074   9.979  15.028  0.00  0.00    +0.000 Cl
ATOM     18  C   UNL     1      -1.830  10.822  17.274  0.00  0.00    +0.000 A 
ENDBRANCH  11  12
ENDBRANCH   8  11
ENDBRANCH   3   5
BRANCH   2  19
ATOM     19  C   UNL     1       3.089   4.536  20.327  0.00  0.00    +0.000 C 
BRANCH  19  20
ATOM     20  C   UNL     1       4.084   4.528  19.236  0.00  0.00    +0.000 A 
ATOM     21  N   UNL     1       5.427   4.615  19.495  0.00  0.00    +0.000 NA
ATOM     22  C   UNL     1       5.979   4.523  18.304  0.00  0.00    +0.000 A 
ATOM     23  N   UNL     1       7.302   4.520  17.963  0.00  0.00    +0.000 NA
ATOM     24  C   UNL     1       7.556   4.424  16.695  0.00  0.00    +0.000 A 
ATOM     25  C   UNL     1       6.551   4.335  15.594  0.00  0.00    +0.000 A 
ATOM     26  C   UNL     1       5.272   4.335  15.990  0.00  0.00    +0.000 A 
ATOM     27  N   UNL     1       4.965   4.420  17.342  0.00  0.00    +0.000 N 
ATOM     28  N   UNL     1       3.757   4.417  17.944  0.00  0.00    +0.000 NA
ENDBRANCH  19  20
ENDBRANCH   2  19
TORSDOF 5
ENDMDL
MODEL 3
REMARK VINA RESULT:      -8.0      4.992     10.137
REMARK  Name = 
REMARK  5 active torsions:
REMARK  status: ('A' for Active; 'I' for Inactive)
REMARK    1  A    between atoms: C_2  and  C_3
REMARK    2  A    between atoms: C_3  and  C_4
REMARK    3  A    between atoms: N_13  and  C_14
REMARK    4  A    between atoms: C_17  and  O_18
REMARK    5  A    between atoms: O_18  and  C_19
REMARK                            x       y       z     vdW  Elec       q    Type
REMARK                         _______ _______ _______ _____ _____    ______ ____
ROOT
ATOM      1  O   UNL     1       1.215   5.065  20.201  0.00  0.00    +0.000 OA
ATOM      2  C   UNL     1       2.365   5.418  19.936  0.00  0.00    +0.000 C 
ATOM      3  N   UNL     1       2.765   6.724  19.686  0.00  0.00    +0.000 N 
ATOM      4  H   UNL     1       3.727   6.862  19.377  0.00  0.00    +0.000 HD
ENDROOT
BRANCH   3   5
ATOM      5  C   UNL     1       1.931   7.864  19.665  0.00  0.00    +0.000 A 
ATOM      6  C   UNL     1       1.206   8.292  20.778  0.00  0.00    +0.000 A 
ATOM      7  C   UNL     1       0.350   9.392  20.696  0.00  0.00    +0.000 A 
ATOM      8  C   UNL     1       0.261  10.127  19.516  0.00  0.00    +0.000 A 
ATOM      9  C   UNL     1       0.979   9.708  18.395  0.00  0.00    +0.000 A 
ATOM     10  C   UNL     1       1.820   8.587  18.472  0.00  0.00    +0.000 A 
BRANCH   8  11
ATOM     11  O   UNL     1      -0.543  11.235  19.354  0.00  0.00    +0.000 OA
BRANCH  11  12
ATOM     12  C   UNL     1      -1.800  11.095  18.807  0.00  0.00    +0.000 A 
ATOM     13  C   UNL     1      -2.137  10.122  17.858  0.00  0.00    +0.000 A 
ATOM     14  C   UNL     1      -3.427  10.071  17.329  0.00  0.00    +0.000 A 
ATOM     15  C   UNL     1      -4.404  10.949  17.796  0.00  0.00    +0.000 A 
ATOM     16  C   UNL     1      -4.084  11.871  18.792  0.00  0.00    +0.000 A 
ATOM     17 CL   UNL     1      -5.309  12.914  19.406  0.00  0.00    +0.000 Cl
ATOM     18  C   UNL     1      -2.787  11.952  19.298  0.00  0.00    +0.000 A 
ENDBRANCH  11  12
ENDBRANCH   8  11
ENDBRANCH   3   5
BRANCH   2  19
ATOM     19  C   UNL     1       3.463   4.372  19.942  0.00  0.00    +0.000 C 
BRANCH  19  20
ATOM     20  C   UNL     1       4.367   4.456  18.777  0.00  0.00    +0.000 A 
ATOM     21  N   UNL     1       5.728   4.494  18.931  0.00  0.00    +0.000 NA
ATOM     22  C   UNL     1       6.180   4.510  17.696  0.00  0.00    +0.000 A 
ATOM     23  N   UNL     1       7.471   4.518  17.248  0.00  0.00    +0.000 NA
ATOM     24  C   UNL     1       7.619   4.544  15.960  0.00  0.00    +0.000 A 
ATOM     25  C   UNL     1       6.527   4.582  14.942  0.00  0.00    +0.000 A 
ATOM     26  C   UNL     1       5.285   4.564  15.440  0.00  0.00    +0.000 A 
ATOM     27  N   UNL     1       5.090   4.521  16.815  0.00  0.00    +0.000 N 
ATOM     28  N   UNL     1       3.934   4.478  17.512  0.00  0.00    +0.000 NA
ENDBRANCH  19  20
ENDBRANCH   2  19
TORSDOF 5
ENDMDL
MODEL 4
REMARK VINA RESULT:      -8.0      4.921     10.006
REMARK  Name = 
REMARK  5 active torsions:
REMARK  status: ('A' for Active; 'I' for Inactive)
REMARK    1  A    between atoms: C_2  and  C_3
REMARK    2  A    between atoms: C_3  and  C_4
REMARK    3  A    between atoms: N_13  and  C_14
REMARK    4  A    between atoms: C_17  and  O_18
REMARK    5  A    between atoms: O_18  and  C_19
REMARK                            x       y       z     vdW  Elec       q    Type
REMARK                         _______ _______ _______ _____ _____    ______ ____
ROOT
ATOM      1  O   UNL     1       1.068   5.201  20.625  0.00  0.00    +0.000 OA
ATOM      2  C   UNL     1       2.211   5.370  20.198  0.00  0.00    +0.000 C 
ATOM      3  N   UNL     1       2.715   6.569  19.710  0.00  0.00    +0.000 N 
ATOM      4  H   UNL     1       3.645   6.543  19.292  0.00  0.00    +0.000 HD
ENDROOT
BRANCH   3   5
ATOM      5  C   UNL     1       2.008   7.786  19.594  0.00  0.00    +0.000 A 
ATOM      6  C   UNL     1       1.919   8.499  18.398  0.00  0.00    +0.000 A 
ATOM      7  C   UNL     1       1.257   9.727  18.344  0.00  0.00    +0.000 A 
ATOM      8  C   UNL     1       0.608  10.228  19.471  0.00  0.00    +0.000 A 
ATOM      9  C   UNL     1       0.692   9.524  20.674  0.00  0.00    +0.000 A 
ATOM     10  C   UNL     1       1.379   8.302  20.733  0.00  0.00    +0.000 A 
BRANCH   8  11
ATOM     11  O   UNL     1      -0.083  11.419  19.500  0.00  0.00    +0.000 OA
BRANCH  11  12
ATOM     12  C   UNL     1      -1.409  11.451  19.124  0.00  0.00    +0.000 A 
ATOM     13  C   UNL     1      -1.938  10.711  18.059  0.00  0.00    +0.000 A 
ATOM     14  C   UNL     1      -3.287  10.828  17.723  0.00  0.00    +0.000 A 
ATOM     15  C   UNL     1      -4.126  11.633  18.490  0.00  0.00    +0.000 A 
ATOM     16  C   UNL     1      -3.612  12.314  19.593  0.00  0.00    +0.000 A 
ATOM     17 CL   UNL     1      -4.665  13.261  20.572  0.00  0.00    +0.000 Cl
ATOM     18  C   UNL     1      -2.256  12.231  19.912  0.00  0.00    +0.000 A 
ENDBRANCH  11  12
ENDBRANCH   8  11
ENDBRANCH   3   5
BRANCH   2  19
ATOM     19  C   UNL     1       3.186   4.211  20.260  0.00  0.00    +0.000 C 
BRANCH  19  20
ATOM     20  C   UNL     1       4.182   4.215  19.169  0.00  0.00    +0.000 A 
ATOM     21  N   UNL     1       3.826   3.934  17.876  0.00  0.00    +0.000 NA
ATOM     22  C   UNL     1       4.947   4.088  17.205  0.00  0.00    +0.000 A 
ATOM     23  N   UNL     1       5.174   3.964  15.863  0.00  0.00    +0.000 NA
ATOM     24  C   UNL     1       6.396   4.167  15.479  0.00  0.00    +0.000 A 
ATOM     25  C   UNL     1       7.558   4.501  16.355  0.00  0.00    +0.000 A 
ATOM     26  C   UNL     1       7.272   4.617  17.659  0.00  0.00    +0.000 A 
ATOM     27  N   UNL     1       5.970   4.421  18.102  0.00  0.00    +0.000 N 
ATOM     28  N   UNL     1       5.474   4.508  19.355  0.00  0.00    +0.000 NA
ENDBRANCH  19  20
ENDBRANCH   2  19
TORSDOF 5
ENDMDL
MODEL 5
REMARK VINA RESULT:      -7.9      1.855      2.429
REMARK  Name = 
REMARK  5 active torsions:
REMARK  status: ('A' for Active; 'I' for Inactive)
REMARK    1  A    between atoms: C_2  and  C_3
REMARK    2  A    between atoms: C_3  and  C_4
REMARK    3  A    between atoms: N_13  and  C_14
REMARK    4  A    between atoms: C_17  and  O_18
REMARK    5  A    between atoms: O_18  and  C_19
REMARK                            x       y       z     vdW  Elec       q    Type
REMARK                         _______ _______ _______ _____ _____    ______ ____
ROOT
ATOM      1  O   UNL     1       0.633  12.254  20.847  0.00  0.00    +0.000 OA
ATOM      2  C   UNL     1      -0.151  12.127  19.906  0.00  0.00    +0.000 C 
ATOM      3  N   UNL     1      -0.199  11.040  19.044  0.00  0.00    +0.000 N 
ATOM      4  H   UNL     1      -0.829  11.112  18.244  0.00  0.00    +0.000 HD
ENDROOT
BRANCH   3   5
ATOM      5  C   UNL     1       0.648   9.910  19.077  0.00  0.00    +0.000 A 
ATOM      6  C   UNL     1       1.366   9.470  17.964  0.00  0.00    +0.000 A 
ATOM      7  C   UNL     1       2.148   8.315  18.027  0.00  0.00    +0.000 A 
ATOM      8  C   UNL     1       2.282   7.620  19.228  0.00  0.00    +0.000 A 
ATOM      9  C   UNL     1       1.567   8.050  20.347  0.00  0.00    +0.000 A 
ATOM     10  C   UNL     1       0.762   9.197  20.275  0.00  0.00    +0.000 A 
BRANCH   8  11
ATOM     11  O   UNL     1       3.047   6.485  19.383  0.00  0.00    +0.000 OA
BRANCH  11  12
ATOM     12  C   UNL     1       2.459   5.243  19.270  0.00  0.00    +0.000 A 
ATOM     13  C   UNL     1       2.150   4.631  18.049  0.00  0.00    +0.000 A 
ATOM     14  C   UNL     1       1.523   3.385  18.025  0.00  0.00    +0.000 A 
ATOM     15  C   UNL     1       1.263   2.716  19.219  0.00  0.00    +0.000 A 
ATOM     16  C   UNL     1       1.636   3.295  20.431  0.00  0.00    +0.000 A 
ATOM     17 CL   UNL     1       1.365   2.438  21.899  0.00  0.00    +0.000 Cl
ATOM     18  C   UNL     1       2.228   4.558  20.464  0.00  0.00    +0.000 A 
ENDBRANCH  11  12
ENDBRANCH   8  11
ENDBRANCH   3   5
BRANCH   2  19
ATOM     19  C   UNL     1      -1.201  13.199  19.689  0.00  0.00    +0.000 C 
BRANCH  19  20
ATOM     20  C   UNL     1      -2.574  12.669  19.568  0.00  0.00    +0.000 A 
ATOM     21  N   UNL     1      -3.535  12.955  20.502  0.00  0.00    +0.000 NA
ATOM     22  C   UNL     1      -4.611  12.364  20.031  0.00  0.00    +0.000 A 
ATOM     23  N   UNL     1      -5.879  12.344  20.541  0.00  0.00    +0.000 NA
ATOM     24  C   UNL     1      -6.748  11.664  19.860  0.00  0.00    +0.000 A 
ATOM     25  C   UNL     1      -6.490  10.903  18.602  0.00  0.00    +0.000 A 
ATOM     26  C   UNL     1      -5.233  10.966  18.146  0.00  0.00    +0.000 A 
ATOM     27  N   UNL     1      -4.279  11.699  18.844  0.00  0.00    +0.000 N 
ATOM     28  N   UNL     1      -2.978  11.903  18.549  0.00  0.00    +0.000 NA
ENDBRANCH  19  20
ENDBRANCH   2  19
TORSDOF 5
ENDMDL
MODEL 6
REMARK VINA RESULT:      -7.9      4.989     10.201
REMARK  Name = 
REMARK  5 active torsions:
REMARK  status: ('A' for Active; 'I' for Inactive)
REMARK    1  A    between atoms: C_2  and  C_3
REMARK    2  A    between atoms: C_3  and  C_4
REMARK    3  A    between atoms: N_13  and  C_14
REMARK    4  A    between atoms: C_17  and  O_18
REMARK    5  A    between atoms: O_18  and  C_19
REMARK                            x       y       z     vdW  Elec       q    Type
REMARK                         _______ _______ _______ _____ _____    ______ ____
ROOT
ATOM      1  O   UNL     1       2.166   4.897  20.905  0.00  0.00    +0.000 OA
ATOM      2  C   UNL     1       2.848   4.996  19.884  0.00  0.00    +0.000 C 
ATOM      3  N   UNL     1       2.947   6.135  19.095  0.00  0.00    +0.000 N 
ATOM      4  H   UNL     1       3.464   6.047  18.220  0.00  0.00    +0.000 HD
ENDROOT
BRANCH   3   5
ATOM      5  C   UNL     1       2.273   7.358  19.305  0.00  0.00    +0.000 A 
ATOM      6  C   UNL     1       1.645   7.680  20.509  0.00  0.00    +0.000 A 
ATOM      7  C   UNL     1       0.942   8.877  20.653  0.00  0.00    +0.000 A 
ATOM      8  C   UNL     1       0.920   9.809  19.617  0.00  0.00    +0.000 A 
ATOM      9  C   UNL     1       1.544   9.499  18.408  0.00  0.00    +0.000 A 
ATOM     10  C   UNL     1       2.228   8.283  18.256  0.00  0.00    +0.000 A 
BRANCH   8  11
ATOM     11  O   UNL     1       0.269  11.022  19.681  0.00  0.00    +0.000 OA
BRANCH  11  12
ATOM     12  C   UNL     1      -0.995  11.149  19.145  0.00  0.00    +0.000 A 
ATOM     13  C   UNL     1      -1.983  11.997  19.663  0.00  0.00    +0.000 A 
ATOM     14  C   UNL     1      -3.249  12.040  19.079  0.00  0.00    +0.000 A 
ATOM     15  C   UNL     1      -3.513  11.288  17.936  0.00  0.00    +0.000 A 
ATOM     16  C   UNL     1      -2.506  10.499  17.381  0.00  0.00    +0.000 A 
ATOM     17 CL   UNL     1      -2.819   9.618  15.936  0.00  0.00    +0.000 Cl
ATOM     18  C   UNL     1      -1.250  10.422  17.981  0.00  0.00    +0.000 A 
ENDBRANCH  11  12
ENDBRANCH   8  11
ENDBRANCH   3   5
BRANCH   2  19
ATOM     19  C   UNL     1       3.708   3.818  19.469  0.00  0.00    +0.000 C 
BRANCH  19  20
ATOM     20  C   UNL     1       4.501   4.065  18.248  0.00  0.00    +0.000 A 
ATOM     21  N   UNL     1       5.769   4.580  18.312  0.00  0.00    +0.000 NA
ATOM     22  C   UNL     1       6.160   4.602  17.057  0.00  0.00    +0.000 A 
ATOM     23  N   UNL     1       7.358   4.995  16.532  0.00  0.00    +0.000 NA
ATOM     24  C   UNL     1       7.460   4.917  15.241  0.00  0.00    +0.000 A 
ATOM     25  C   UNL     1       6.399   4.461  14.294  0.00  0.00    +0.000 A 
ATOM     26  C   UNL     1       5.250   4.082  14.867  0.00  0.00    +0.000 A 
ATOM     27  N   UNL     1       5.113   4.138  16.249  0.00  0.00    +0.000 N 
ATOM     28  N   UNL     1       4.058   3.789  17.016  0.00  0.00    +0.000 NA
ENDBRANCH  19  20
ENDBRANCH   2  19
TORSDOF 5
ENDMDL
MODEL 7
REMARK VINA RESULT:      -7.8      5.269     10.372
REMARK  Name = 
REMARK  5 active torsions:
REMARK  status: ('A' for Active; 'I' for Inactive)
REMARK    1  A    between atoms: C_2  and  C_3
REMARK    2  A    between atoms: C_3  and  C_4
REMARK    3  A    between atoms: N_13  and  C_14
REMARK    4  A    between atoms: C_17  and  O_18
REMARK    5  A    between atoms: O_18  and  C_19
REMARK                            x       y       z     vdW  Elec       q    Type
REMARK                         _______ _______ _______ _____ _____    ______ ____
ROOT
ATOM      1  O   UNL     1       2.565   5.100  20.386  0.00  0.00    +0.000 OA
ATOM      2  C   UNL     1       3.361   5.301  19.467  0.00  0.00    +0.000 C 
ATOM      3  N   UNL     1       3.407   6.446  18.683  0.00  0.00    +0.000 N 
ATOM      4  H   UNL     1       4.048   6.437  17.889  0.00  0.00    +0.000 HD
ENDROOT
BRANCH   3   5
ATOM      5  C   UNL     1       2.545   7.561  18.781  0.00  0.00    +0.000 A 
ATOM      6  C   UNL     1       2.304   8.428  17.715  0.00  0.00    +0.000 A 
ATOM      7  C   UNL     1       1.489   9.550  17.874  0.00  0.00    +0.000 A 
ATOM      8  C   UNL     1       0.840   9.783  19.086  0.00  0.00    +0.000 A 
ATOM      9  C   UNL     1       1.075   8.923  20.160  0.00  0.00    +0.000 A 
ATOM     10  C   UNL     1       1.915   7.810  20.006  0.00  0.00    +0.000 A 
BRANCH   8  11
ATOM     11  O   UNL     1       0.005  10.852  19.322  0.00  0.00    +0.000 OA
BRANCH  11  12
ATOM     12  C   UNL     1      -1.260  10.868  18.773  0.00  0.00    +0.000 A 
ATOM     13  C   UNL     1      -1.653  10.071  17.691  0.00  0.00    +0.000 A 
ATOM     14  C   UNL     1      -2.944  10.174  17.174  0.00  0.00    +0.000 A 
ATOM     15  C   UNL     1      -3.868  11.026  17.777  0.00  0.00    +0.000 A 
ATOM     16  C   UNL     1      -3.495  11.766  18.898  0.00  0.00    +0.000 A 
ATOM     17 CL   UNL     1      -4.656  12.772  19.675  0.00  0.00    +0.000 Cl
ATOM     18  C   UNL     1      -2.194  11.696  19.397  0.00  0.00    +0.000 A 
ENDBRANCH  11  12
ENDBRANCH   8  11
ENDBRANCH   3   5
BRANCH   2  19
ATOM     19  C   UNL     1       4.427   4.258  19.191  0.00  0.00    +0.000 C 
BRANCH  19  20
ATOM     20  C   UNL     1       5.024   4.363  17.845  0.00  0.00    +0.000 A 
ATOM     21  N   UNL     1       6.194   5.045  17.633  0.00  0.00    +0.000 NA
ATOM     22  C   UNL     1       6.427   4.872  16.351  0.00  0.00    +0.000 A 
ATOM     23  N   UNL     1       7.479   5.309  15.597  0.00  0.00    +0.000 NA
ATOM     24  C   UNL     1       7.441   4.993  14.340  0.00  0.00    +0.000 A 
ATOM     25  C   UNL     1       6.362   4.223  13.652  0.00  0.00    +0.000 A 
ATOM     26  C   UNL     1       5.362   3.815  14.442  0.00  0.00    +0.000 A 
ATOM     27  N   UNL     1       5.380   4.123  15.797  0.00  0.00    +0.000 N 
ATOM     28  N   UNL     1       4.490   3.794  16.758  0.00  0.00    +0.000 NA
ENDBRANCH  19  20
ENDBRANCH   2  19
TORSDOF 5
ENDMDL
MODEL 8
REMARK VINA RESULT:      -7.8      5.605     10.403
REMARK  Name = 
REMARK  5 active torsions:
REMARK  status: ('A' for Active; 'I' for Inactive)
REMARK    1  A    between atoms: C_2  and  C_3
REMARK    2  A    between atoms: C_3  and  C_4
REMARK    3  A    between atoms: N_13  and  C_14
REMARK    4  A    between atoms: C_17  and  O_18
REMARK    5  A    between atoms: O_18  and  C_19
REMARK                            x       y       z     vdW  Elec       q    Type
REMARK                         _______ _______ _______ _____ _____    ______ ____
ROOT
ATOM      1  O   UNL     1       1.282   5.203  20.787  0.00  0.00    +0.000 OA
ATOM      2  C   UNL     1       2.310   5.281  20.112  0.00  0.00    +0.000 C 
ATOM      3  N   UNL     1       2.736   6.413  19.430  0.00  0.00    +0.000 N 
ATOM      4  H   UNL     1       3.550   6.309  18.825  0.00  0.00    +0.000 HD
ENDROOT
BRANCH   3   5
ATOM      5  C   UNL     1       2.064   7.654  19.369  0.00  0.00    +0.000 A 
ATOM      6  C   UNL     1       1.571   8.305  20.500  0.00  0.00    +0.000 A 
ATOM      7  C   UNL     1       0.863   9.503  20.387  0.00  0.00    +0.000 A 
ATOM      8  C   UNL     1       0.702  10.110  19.142  0.00  0.00    +0.000 A 
ATOM      9  C   UNL     1       1.190   9.468  18.003  0.00  0.00    +0.000 A 
ATOM     10  C   UNL     1       1.878   8.250  18.117  0.00  0.00    +0.000 A 
BRANCH   8  11
ATOM     11  O   UNL     1       0.036  11.299  18.942  0.00  0.00    +0.000 OA
BRANCH  11  12
ATOM     12  C   UNL     1       0.751  12.471  18.815  0.00  0.00    +0.000 A 
ATOM     13  C   UNL     1       2.134  12.525  18.599  0.00  0.00    +0.000 A 
ATOM     14  C   UNL     1       2.785  13.756  18.517  0.00  0.00    +0.000 A 
ATOM     15  C   UNL     1       2.049  14.937  18.583  0.00  0.00    +0.000 A 
ATOM     16  C   UNL     1       0.663  14.880  18.727  0.00  0.00    +0.000 A 
ATOM     17 CL   UNL     1      -0.248  16.341  18.749  0.00  0.00    +0.000 Cl
ATOM     18  C   UNL     1       0.010  13.654  18.848  0.00  0.00    +0.000 A 
ENDBRANCH  11  12
ENDBRANCH   8  11
ENDBRANCH   3   5
BRANCH   2  19
ATOM     19  C   UNL     1       3.233   4.080  20.057  0.00  0.00    +0.000 C 
BRANCH  19  20
ATOM     20  C   UNL     1       4.226   4.145  18.965  0.00  0.00    +0.000 A 
ATOM     21  N   UNL     1       3.865   3.941  17.659  0.00  0.00    +0.000 NA
ATOM     22  C   UNL     1       4.984   4.130  16.995  0.00  0.00    +0.000 A 
ATOM     23  N   UNL     1       5.207   4.083  15.648  0.00  0.00    +0.000 NA
ATOM     24  C   UNL     1       6.429   4.305  15.272  0.00  0.00    +0.000 A 
ATOM     25  C   UNL     1       7.594   4.584  16.163  0.00  0.00    +0.000 A 
ATOM     26  C   UNL     1       7.313   4.624  17.471  0.00  0.00    +0.000 A 
ATOM     27  N   UNL     1       6.011   4.407  17.907  0.00  0.00    +0.000 N 
ATOM     28  N   UNL     1       5.519   4.423  19.164  0.00  0.00    +0.000 NA
ENDBRANCH  19  20
ENDBRANCH   2  19
TORSDOF 5
ENDMDL
MODEL 9
REMARK VINA RESULT:      -7.8      3.263      4.462
REMARK  Name = 
REMARK  5 active torsions:
REMARK  status: ('A' for Active; 'I' for Inactive)
REMARK    1  A    between atoms: C_2  and  C_3
REMARK    2  A    between atoms: C_3  and  C_4
REMARK    3  A    between atoms: N_13  and  C_14
REMARK    4  A    between atoms: C_17  and  O_18
REMARK    5  A    between atoms: O_18  and  C_19
REMARK                            x       y       z     vdW  Elec       q    Type
REMARK                         _______ _______ _______ _____ _____    ______ ____
ROOT
ATOM      1  O   UNL     1       1.144  10.614  21.487  0.00  0.00    +0.000 OA
ATOM      2  C   UNL     1       0.807  10.882  20.333  0.00  0.00    +0.000 C 
ATOM      3  N   UNL     1       0.976  10.049  19.236  0.00  0.00    +0.000 N 
ATOM      4  H   UNL     1       0.747  10.437  18.320  0.00  0.00    +0.000 HD
ENDROOT
BRANCH   3   5
ATOM      5  C   UNL     1       1.580   8.772  19.241  0.00  0.00    +0.000 A 
ATOM      6  C   UNL     1       1.514   7.908  20.335  0.00  0.00    +0.000 A 
ATOM      7  C   UNL     1       2.174   6.678  20.317  0.00  0.00    +0.000 A 
ATOM      8  C   UNL     1       2.850   6.258  19.173  0.00  0.00    +0.000 A 
ATOM      9  C   UNL     1       2.924   7.114  18.073  0.00  0.00    +0.000 A 
ATOM     10  C   UNL     1       2.281   8.361  18.102  0.00  0.00    +0.000 A 
BRANCH   8  11
ATOM     11  O   UNL     1       3.510   5.054  19.062  0.00  0.00    +0.000 OA
BRANCH  11  12
ATOM     12  C   UNL     1       4.770   5.012  18.505  0.00  0.00    +0.000 A 
ATOM     13  C   UNL     1       5.937   5.394  19.178  0.00  0.00    +0.000 A 
ATOM     14  C   UNL     1       7.170   5.353  18.527  0.00  0.00    +0.000 A 
ATOM     15  C   UNL     1       7.252   4.868  17.223  0.00  0.00    +0.000 A 
ATOM     16  C   UNL     1       6.098   4.422  16.579  0.00  0.00    +0.000 A 
ATOM     17 CL   UNL     1       6.213   3.769  14.991  0.00  0.00    +0.000 Cl
ATOM     18  C   UNL     1       4.857   4.495  17.211  0.00  0.00    +0.000 A 
ENDBRANCH  11  12
ENDBRANCH   8  11
ENDBRANCH   3   5
BRANCH   2  19
ATOM     19  C   UNL     1       0.090  12.192  20.074  0.00  0.00    +0.000 C 
BRANCH  19  20
ATOM     20  C   UNL     1      -1.190  12.035  19.353  0.00  0.00    +0.000 A 
ATOM     21  N   UNL     1      -1.225  11.676  18.031  0.00  0.00    +0.000 NA
ATOM     22  C   UNL     1      -2.510  11.586  17.768  0.00  0.00    +0.000 A 
ATOM     23  N   UNL     1      -3.131  11.231  16.603  0.00  0.00    +0.000 NA
ATOM     24  C   UNL     1      -4.427  11.239  16.632  0.00  0.00    +0.000 A 
ATOM     25  C   UNL     1      -5.287  11.610  17.795  0.00  0.00    +0.000 A 
ATOM     26  C   UNL     1      -4.623  11.942  18.910  0.00  0.00    +0.000 A 
ATOM     27  N   UNL     1      -3.233  11.928  18.918  0.00  0.00    +0.000 N 
ATOM     28  N   UNL     1      -2.384  12.207  19.930  0.00  0.00    +0.000 NA
ENDBRANCH  19  20
ENDBRANCH   2  19
TORSDOF 5
ENDMDL
