MODEL 1
REMARK VINA RESULT:      -9.5      0.000      0.000
REMARK  Name = 
REMARK  6 active torsions:
REMARK  status: ('A' for Active; 'I' for Inactive)
REMARK    1  A    between atoms: C_1  and  C_2
REMARK    2  A    between atoms: N_4  and  C_5
REMARK    3  A    between atoms: C_8  and  N_9
REMARK    4  A    between atoms: N_9  and  C_10
REMARK    5  A    between atoms: C_10  and  C_11
REMARK    6  A    between atoms: N_15  and  C_16
REMARK                            x       y       z     vdW  Elec       q    Type
REMARK                         _______ _______ _______ _____ _____    ______ ____
ROOT
ATOM      1  C   UNL     1       3.382   3.619  18.663  0.00  0.00    +0.000 A 
ATOM      2  N   UNL     1       4.179   2.640  19.097  0.00  0.00    +0.000 NA
ATOM      3  N   UNL     1       5.295   3.363  19.531  0.00  0.00    +0.000 NA
ATOM      4  C   UNL     1       5.250   4.543  18.906  0.00  0.00    +0.000 A 
ATOM      5  N   UNL     1       6.265   5.470  18.676  0.00  0.00    +0.000 N 
ATOM      6  C   UNL     1       5.866   6.760  18.058  0.00  0.00    +0.000 C 
ATOM      7  C   UNL     1       7.147   4.744  17.877  0.00  0.00    +0.000 A 
ATOM      8  O   UNL     1       8.255   4.339  18.192  0.00  0.00    +0.000 OA
ATOM      9  C   UNL     1       6.521   4.444  16.559  0.00  0.00    +0.000 A 
ATOM     10  C   UNL     1       7.355   4.639  15.461  0.00  0.00    +0.000 A 
ATOM     11  C   UNL     1       6.812   4.548  14.204  0.00  0.00    +0.000 A 
ATOM     12  C   UNL     1       5.459   4.169  14.094  0.00  0.00    +0.000 A 
ATOM     13  C   UNL     1       4.594   3.956  15.234  0.00  0.00    +0.000 A 
ATOM     14  C   UNL     1       5.092   4.153  16.513  0.00  0.00    +0.000 A 
ATOM     15  N   UNL     1       4.370   4.294  17.848  0.00  0.00    +0.000 N 
ENDROOT
BRANCH   1  16
ATOM     16  C   UNL     1       2.576   4.392  19.960  0.00  0.00    +0.000 C 
BRANCH  16  17
ATOM     17  N   UNL     1       2.868   5.877  20.062  0.00  0.00    +0.000 N 
ATOM     18  H   UNL     1       3.821   5.974  20.432  0.00  0.00    +0.000 HD
BRANCH  17  22
ATOM     19  C   UNL     1       1.067   9.658  18.835  0.00  0.00    +0.000 A 
ATOM     20  C   UNL     1       1.778   8.875  17.920  0.00  0.00    +0.000 A 
ATOM     21  C   UNL     1       2.408   7.611  18.284  0.00  0.00    +0.000 A 
ATOM     22  C   UNL     1       2.374   7.089  19.585  0.00  0.00    +0.000 A 
ATOM     23  C   UNL     1       1.652   7.918  20.482  0.00  0.00    +0.000 A 
ATOM     24  C   UNL     1       1.032   9.158  20.135  0.00  0.00    +0.000 A 
BRANCH  19  28
ATOM     25  C   UNL     1      -1.373  12.545  18.080  0.00  0.00    +0.000 C 
ATOM     26  C   UNL     1      -0.982  11.079  18.303  0.00  0.00    +0.000 C 
ATOM     27  O   UNL     1      -1.817  10.201  18.232  0.00  0.00    +0.000 OA
ATOM     28  N   UNL     1       0.377  10.898  18.567  0.00  0.00    +0.000 N 
ATOM     29  H   UNL     1       0.947  11.733  18.598  0.00  0.00    +0.000 HD
ENDBRANCH  19  28
ENDBRANCH  17  22
ENDBRANCH  16  17
ENDBRANCH   1  16
TORSDOF 4
ENDMDL
MODEL 2
REMARK VINA RESULT:      -9.4      1.019      1.019
REMARK  Name = 
REMARK  6 active torsions:
REMARK  status: ('A' for Active; 'I' for Inactive)
REMARK    1  A    between atoms: C_1  and  C_2
REMARK    2  A    between atoms: N_4  and  C_5
REMARK    3  A    between atoms: C_8  and  N_9
REMARK    4  A    between atoms: N_9  and  C_10
REMARK    5  A    between atoms: C_10  and  C_11
REMARK    6  A    between atoms: N_15  and  C_16
REMARK                            x       y       z     vdW  Elec       q    Type
REMARK                         _______ _______ _______ _____ _____    ______ ____
ROOT
ATOM      1  C   UNL     1       3.322   3.798  18.587  0.00  0.00    +0.000 A 
ATOM      2  N   UNL     1       4.079   2.802  19.055  0.00  0.00    +0.000 NA
ATOM      3  N   UNL     1       5.201   3.499  19.514  0.00  0.00    +0.000 NA
ATOM      4  C   UNL     1       5.207   4.673  18.875  0.00  0.00    +0.000 A 
ATOM      5  N   UNL     1       6.253   5.570  18.665  0.00  0.00    +0.000 N 
ATOM      6  C   UNL     1       5.908   6.863  18.022  0.00  0.00    +0.000 C 
ATOM      7  C   UNL     1       7.137   4.811  17.900  0.00  0.00    +0.000 A 
ATOM      8  O   UNL     1       8.225   4.380  18.252  0.00  0.00    +0.000 OA
ATOM      9  C   UNL     1       6.542   4.514  16.568  0.00  0.00    +0.000 A 
ATOM     10  C   UNL     1       7.413   4.674  15.493  0.00  0.00    +0.000 A 
ATOM     11  C   UNL     1       6.905   4.583  14.222  0.00  0.00    +0.000 A 
ATOM     12  C   UNL     1       5.545   4.239  14.075  0.00  0.00    +0.000 A 
ATOM     13  C   UNL     1       4.642   4.063  15.192  0.00  0.00    +0.000 A 
ATOM     14  C   UNL     1       5.108   4.261  16.482  0.00  0.00    +0.000 A 
ATOM     15  N   UNL     1       4.352   4.436  17.794  0.00  0.00    +0.000 N 
ENDROOT
BRANCH   1  16
ATOM     16  C   UNL     1       2.500   4.607  19.852  0.00  0.00    +0.000 C 
BRANCH  16  17
ATOM     17  N   UNL     1       2.829   6.085  19.946  0.00  0.00    +0.000 N 
ATOM     18  H   UNL     1       3.825   6.159  20.187  0.00  0.00    +0.000 HD
BRANCH  17  22
ATOM     19  C   UNL     1       0.911   9.894  19.025  0.00  0.00    +0.000 A 
ATOM     20  C   UNL     1       1.639   9.206  18.048  0.00  0.00    +0.000 A 
ATOM     21  C   UNL     1       2.307   7.938  18.311  0.00  0.00    +0.000 A 
ATOM     22  C   UNL     1       2.297   7.315  19.567  0.00  0.00    +0.000 A 
ATOM     23  C   UNL     1       1.556   8.050  20.528  0.00  0.00    +0.000 A 
ATOM     24  C   UNL     1       0.898   9.294  20.282  0.00  0.00    +0.000 A 
BRANCH  19  28
ATOM     25  C   UNL     1      -0.367  13.495  18.505  0.00  0.00    +0.000 C 
ATOM     26  C   UNL     1       0.706  12.410  18.662  0.00  0.00    +0.000 C 
ATOM     27  O   UNL     1       1.885  12.699  18.624  0.00  0.00    +0.000 OA
ATOM     28  N   UNL     1       0.183  11.130  18.857  0.00  0.00    +0.000 N 
ATOM     29  H   UNL     1      -0.825  11.050  18.859  0.00  0.00    +0.000 HD
ENDBRANCH  19  28
ENDBRANCH  17  22
ENDBRANCH  16  17
ENDBRANCH   1  16
TORSDOF 4
ENDMDL
MODEL 3
REMARK VINA RESULT:      -9.2      1.364      1.411
REMARK  Name = 
REMARK  6 active torsions:
REMARK  status: ('A' for Active; 'I' for Inactive)
REMARK    1  A    between atoms: C_1  and  C_2
REMARK    2  A    between atoms: N_4  and  C_5
REMARK    3  A    between atoms: C_8  and  N_9
REMARK    4  A    between atoms: N_9  and  C_10
REMARK    5  A    between atoms: C_10  and  C_11
REMARK    6  A    between atoms: N_15  and  C_16
REMARK                            x       y       z     vdW  Elec       q    Type
REMARK                         _______ _______ _______ _____ _____    ______ ____
ROOT
ATOM      1  C   UNL     1       3.528   4.048  18.618  0.00  0.00    +0.000 A 
ATOM      2  N   UNL     1       4.214   2.974  19.020  0.00  0.00    +0.000 NA
ATOM      3  N   UNL     1       5.437   3.548  19.383  0.00  0.00    +0.000 NA
ATOM      4  C   UNL     1       5.510   4.721  18.748  0.00  0.00    +0.000 A 
ATOM      5  N   UNL     1       6.622   5.507  18.451  0.00  0.00    +0.000 N 
ATOM      6  C   UNL     1       6.360   6.835  17.840  0.00  0.00    +0.000 C 
ATOM      7  C   UNL     1       7.356   4.669  17.613  0.00  0.00    +0.000 A 
ATOM      8  O   UNL     1       8.418   4.125  17.871  0.00  0.00    +0.000 OA
ATOM      9  C   UNL     1       6.623   4.447  16.335  0.00  0.00    +0.000 A 
ATOM     10  C   UNL     1       7.413   4.526  15.191  0.00  0.00    +0.000 A 
ATOM     11  C   UNL     1       6.793   4.500  13.967  0.00  0.00    +0.000 A 
ATOM     12  C   UNL     1       5.398   4.300  13.936  0.00  0.00    +0.000 A 
ATOM     13  C   UNL     1       4.578   4.207  15.125  0.00  0.00    +0.000 A 
ATOM     14  C   UNL     1       5.169   4.343  16.371  0.00  0.00    +0.000 A 
ATOM     15  N   UNL     1       4.547   4.584  17.742  0.00  0.00    +0.000 N 
ENDROOT
BRANCH   1  16
ATOM     16  C   UNL     1       2.902   4.925  19.949  0.00  0.00    +0.000 C 
BRANCH  16  17
ATOM     17  N   UNL     1       3.007   6.430  19.791  0.00  0.00    +0.000 N 
ATOM     18  H   UNL     1       3.920   6.628  19.365  0.00  0.00    +0.000 HD
BRANCH  17  22
ATOM     19  C   UNL     1       0.226   9.782  20.057  0.00  0.00    +0.000 A 
ATOM     20  C   UNL     1       0.981   9.570  18.898  0.00  0.00    +0.000 A 
ATOM     21  C   UNL     1       1.931   8.472  18.766  0.00  0.00    +0.000 A 
ATOM     22  C   UNL     1       2.186   7.555  19.794  0.00  0.00    +0.000 A 
ATOM     23  C   UNL     1       1.407   7.811  20.953  0.00  0.00    +0.000 A 
ATOM     24  C   UNL     1       0.474   8.884  21.094  0.00  0.00    +0.000 A 
BRANCH  19  28
ATOM     25  C   UNL     1      -1.922  12.812  21.093  0.00  0.00    +0.000 C 
ATOM     26  C   UNL     1      -0.681  11.911  21.128  0.00  0.00    +0.000 C 
ATOM     27  O   UNL     1       0.251  12.175  21.860  0.00  0.00    +0.000 OA
ATOM     28  N   UNL     1      -0.765  10.810  20.274  0.00  0.00    +0.000 N 
ATOM     29  H   UNL     1      -1.608  10.730  19.721  0.00  0.00    +0.000 HD
ENDBRANCH  19  28
ENDBRANCH  17  22
ENDBRANCH  16  17
ENDBRANCH   1  16
TORSDOF 4
ENDMDL
MODEL 4
REMARK VINA RESULT:      -9.1      5.308      7.254
REMARK  Name = 
REMARK  6 active torsions:
REMARK  status: ('A' for Active; 'I' for Inactive)
REMARK    1  A    between atoms: C_1  and  C_2
REMARK    2  A    between atoms: N_4  and  C_5
REMARK    3  A    between atoms: C_8  and  N_9
REMARK    4  A    between atoms: N_9  and  C_10
REMARK    5  A    between atoms: C_10  and  C_11
REMARK    6  A    between atoms: N_15  and  C_16
REMARK                            x       y       z     vdW  Elec       q    Type
REMARK                         _______ _______ _______ _____ _____    ______ ____
ROOT
ATOM      1  C   UNL     1       7.326   6.450  18.776  0.00  0.00    +0.000 A 
ATOM      2  N   UNL     1       7.926   5.257  18.777  0.00  0.00    +0.000 NA
ATOM      3  N   UNL     1       7.811   4.887  17.433  0.00  0.00    +0.000 NA
ATOM      4  C   UNL     1       6.808   5.608  16.925  0.00  0.00    +0.000 A 
ATOM      5  N   UNL     1       6.038   5.386  15.785  0.00  0.00    +0.000 N 
ATOM      6  C   UNL     1       5.071   6.450  15.412  0.00  0.00    +0.000 C 
ATOM      7  C   UNL     1       5.412   4.177  16.087  0.00  0.00    +0.000 A 
ATOM      8  O   UNL     1       5.621   3.095  15.563  0.00  0.00    +0.000 OA
ATOM      9  C   UNL     1       4.468   4.356  17.225  0.00  0.00    +0.000 A 
ATOM     10  C   UNL     1       3.232   3.736  17.058  0.00  0.00    +0.000 A 
ATOM     11  C   UNL     1       2.246   3.987  17.979  0.00  0.00    +0.000 A 
ATOM     12  C   UNL     1       2.570   4.785  19.095  0.00  0.00    +0.000 A 
ATOM     13  C   UNL     1       3.857   5.421  19.274  0.00  0.00    +0.000 A 
ATOM     14  C   UNL     1       4.832   5.273  18.300  0.00  0.00    +0.000 A 
ATOM     15  N   UNL     1       6.130   6.038  18.071  0.00  0.00    +0.000 N 
ENDROOT
BRANCH   1  16
ATOM     16  C   UNL     1       8.367   7.674  18.185  0.00  0.00    +0.000 C 
BRANCH  16  17
ATOM     17  N   UNL     1       8.629   8.786  19.183  0.00  0.00    +0.000 N 
ATOM     18  H   UNL     1       8.516   8.384  20.121  0.00  0.00    +0.000 HD
BRANCH  17  22
ATOM     19  C   UNL     1      10.579  12.685  18.992  0.00  0.00    +0.000 A 
ATOM     20  C   UNL     1      10.298  12.086  20.224  0.00  0.00    +0.000 A 
ATOM     21  C   UNL     1       9.638  10.792  20.340  0.00  0.00    +0.000 A 
ATOM     22  C   UNL     1       9.208  10.051  19.230  0.00  0.00    +0.000 A 
ATOM     23  C   UNL     1       9.505  10.698  18.002  0.00  0.00    +0.000 A 
ATOM     24  C   UNL     1      10.151  11.966  17.877  0.00  0.00    +0.000 A 
BRANCH  19  28
ATOM     25  C   UNL     1      11.725  16.298  18.288  0.00  0.00    +0.000 C 
ATOM     26  C   UNL     1      10.696  15.169  18.432  0.00  0.00    +0.000 C 
ATOM     27  O   UNL     1       9.515  15.384  18.246  0.00  0.00    +0.000 OA
ATOM     28  N   UNL     1      11.261  13.938  18.769  0.00  0.00    +0.000 N 
ATOM     29  H   UNL     1      12.264  13.921  18.895  0.00  0.00    +0.000 HD
ENDBRANCH  19  28
ENDBRANCH  17  22
ENDBRANCH  16  17
ENDBRANCH   1  16
TORSDOF 4
ENDMDL
MODEL 5
REMARK VINA RESULT:      -8.8      5.339      7.132
REMARK  Name = 
REMARK  6 active torsions:
REMARK  status: ('A' for Active; 'I' for Inactive)
REMARK    1  A    between atoms: C_1  and  C_2
REMARK    2  A    between atoms: N_4  and  C_5
REMARK    3  A    between atoms: C_8  and  N_9
REMARK    4  A    between atoms: N_9  and  C_10
REMARK    5  A    between atoms: C_10  and  C_11
REMARK    6  A    between atoms: N_15  and  C_16
REMARK                            x       y       z     vdW  Elec       q    Type
REMARK                         _______ _______ _______ _____ _____    ______ ____
ROOT
ATOM      1  C   UNL     1       7.299   6.532  18.745  0.00  0.00    +0.000 A 
ATOM      2  N   UNL     1       7.906   5.344  18.816  0.00  0.00    +0.000 NA
ATOM      3  N   UNL     1       7.810   4.905  17.492  0.00  0.00    +0.000 NA
ATOM      4  C   UNL     1       6.809   5.592  16.935  0.00  0.00    +0.000 A 
ATOM      5  N   UNL     1       6.054   5.306  15.799  0.00  0.00    +0.000 N 
ATOM      6  C   UNL     1       5.086   6.343  15.359  0.00  0.00    +0.000 C 
ATOM      7  C   UNL     1       5.432   4.111  16.156  0.00  0.00    +0.000 A 
ATOM      8  O   UNL     1       5.653   3.004  15.691  0.00  0.00    +0.000 OA
ATOM      9  C   UNL     1       4.472   4.342  17.272  0.00  0.00    +0.000 A 
ATOM     10  C   UNL     1       3.242   3.707  17.122  0.00  0.00    +0.000 A 
ATOM     11  C   UNL     1       2.244   3.999  18.017  0.00  0.00    +0.000 A 
ATOM     12  C   UNL     1       2.550   4.856  19.094  0.00  0.00    +0.000 A 
ATOM     13  C   UNL     1       3.831   5.508  19.255  0.00  0.00    +0.000 A 
ATOM     14  C   UNL     1       4.818   5.316  18.302  0.00  0.00    +0.000 A 
ATOM     15  N   UNL     1       6.115   6.076  18.049  0.00  0.00    +0.000 N 
ENDROOT
BRANCH   1  16
ATOM     16  C   UNL     1       8.341   7.730  18.104  0.00  0.00    +0.000 C 
BRANCH  16  17
ATOM     17  N   UNL     1       8.725   8.803  19.106  0.00  0.00    +0.000 N 
ATOM     18  H   UNL     1       8.777   8.354  20.027  0.00  0.00    +0.000 HD
BRANCH  17  22
ATOM     19  C   UNL     1      10.272  12.863  19.511  0.00  0.00    +0.000 A 
ATOM     20  C   UNL     1      10.038  12.311  18.247  0.00  0.00    +0.000 A 
ATOM     21  C   UNL     1       9.533  10.956  18.060  0.00  0.00    +0.000 A 
ATOM     22  C   UNL     1       9.265  10.086  19.127  0.00  0.00    +0.000 A 
ATOM     23  C   UNL     1       9.525  10.683  20.388  0.00  0.00    +0.000 A 
ATOM     24  C   UNL     1      10.020  12.009  20.583  0.00  0.00    +0.000 A 
BRANCH  19  28
ATOM     25  C   UNL     1      11.050  16.632  19.745  0.00  0.00    +0.000 C 
ATOM     26  C   UNL     1      10.380  15.385  19.153  0.00  0.00    +0.000 C 
ATOM     27  O   UNL     1       9.635  15.481  18.200  0.00  0.00    +0.000 OA
ATOM     28  N   UNL     1      10.730  14.201  19.804  0.00  0.00    +0.000 N 
ATOM     29  H   UNL     1      11.362  14.287  20.589  0.00  0.00    +0.000 HD
ENDBRANCH  19  28
ENDBRANCH  17  22
ENDBRANCH  16  17
ENDBRANCH   1  16
TORSDOF 4
ENDMDL
MODEL 6
REMARK VINA RESULT:      -8.6      6.753      9.597
REMARK  Name = 
REMARK  6 active torsions:
REMARK  status: ('A' for Active; 'I' for Inactive)
REMARK    1  A    between atoms: C_1  and  C_2
REMARK    2  A    between atoms: N_4  and  C_5
REMARK    3  A    between atoms: C_8  and  N_9
REMARK    4  A    between atoms: N_9  and  C_10
REMARK    5  A    between atoms: C_10  and  C_11
REMARK    6  A    between atoms: N_15  and  C_16
REMARK                            x       y       z     vdW  Elec       q    Type
REMARK                         _______ _______ _______ _____ _____    ______ ____
ROOT
ATOM      1  C   UNL     1       9.095  11.375  18.072  0.00  0.00    +0.000 A 
ATOM      2  N   UNL     1      10.297  11.504  17.503  0.00  0.00    +0.000 NA
ATOM      3  N   UNL     1      11.095  11.812  18.610  0.00  0.00    +0.000 NA
ATOM      4  C   UNL     1      10.273  12.281  19.553  0.00  0.00    +0.000 A 
ATOM      5  N   UNL     1      10.553  13.063  20.672  0.00  0.00    +0.000 N 
ATOM      6  C   UNL     1       9.429  13.317  21.610  0.00  0.00    +0.000 C 
ATOM      7  C   UNL     1      11.042  14.234  20.095  0.00  0.00    +0.000 A 
ATOM      8  O   UNL     1      12.193  14.640  20.128  0.00  0.00    +0.000 OA
ATOM      9  C   UNL     1       9.962  14.925  19.337  0.00  0.00    +0.000 A 
ATOM     10  C   UNL     1       9.905  16.303  19.533  0.00  0.00    +0.000 A 
ATOM     11  C   UNL     1       8.843  16.994  19.007  0.00  0.00    +0.000 A 
ATOM     12  C   UNL     1       7.916  16.282  18.217  0.00  0.00    +0.000 A 
ATOM     13  C   UNL     1       7.981  14.852  18.005  0.00  0.00    +0.000 A 
ATOM     14  C   UNL     1       8.983  14.117  18.619  0.00  0.00    +0.000 A 
ATOM     15  N   UNL     1       9.128  12.613  18.821  0.00  0.00    +0.000 N 
ENDROOT
BRANCH   1  16
ATOM     16  C   UNL     1       8.919   9.848  18.825  0.00  0.00    +0.000 C 
BRANCH  16  17
ATOM     17  N   UNL     1       8.361   8.776  17.907  0.00  0.00    +0.000 N 
ATOM     18  H   UNL     1       8.712   8.972  16.963  0.00  0.00    +0.000 HD
BRANCH  17  22
ATOM     19  C   UNL     1       6.194   4.991  18.027  0.00  0.00    +0.000 A 
ATOM     20  C   UNL     1       7.295   5.210  18.861  0.00  0.00    +0.000 A 
ATOM     21  C   UNL     1       8.058   6.452  18.849  0.00  0.00    +0.000 A 
ATOM     22  C   UNL     1       7.768   7.518  17.987  0.00  0.00    +0.000 A 
ATOM     23  C   UNL     1       6.651   7.251  17.154  0.00  0.00    +0.000 A 
ATOM     24  C   UNL     1       5.896   6.037  17.156  0.00  0.00    +0.000 A 
BRANCH  19  28
ATOM     25  C   UNL     1       3.550   2.214  18.434  0.00  0.00    +0.000 C 
ATOM     26  C   UNL     1       4.209   3.563  18.750  0.00  0.00    +0.000 C 
ATOM     27  O   UNL     1       3.743   4.291  19.602  0.00  0.00    +0.000 OA
ATOM     28  N   UNL     1       5.351   3.818  17.989  0.00  0.00    +0.000 N 
ATOM     29  H   UNL     1       5.611   3.113  17.313  0.00  0.00    +0.000 HD
ENDBRANCH  19  28
ENDBRANCH  17  22
ENDBRANCH  16  17
ENDBRANCH   1  16
TORSDOF 4
ENDMDL
MODEL 7
REMARK VINA RESULT:      -8.5      2.959      3.989
REMARK  Name = 
REMARK  6 active torsions:
REMARK  status: ('A' for Active; 'I' for Inactive)
REMARK    1  A    between atoms: C_1  and  C_2
REMARK    2  A    between atoms: N_4  and  C_5
REMARK    3  A    between atoms: C_8  and  N_9
REMARK    4  A    between atoms: N_9  and  C_10
REMARK    5  A    between atoms: C_10  and  C_11
REMARK    6  A    between atoms: N_15  and  C_16
REMARK                            x       y       z     vdW  Elec       q    Type
REMARK                         _______ _______ _______ _____ _____    ______ ____
ROOT
ATOM      1  C   UNL     1       2.720   6.961  19.193  0.00  0.00    +0.000 A 
ATOM      2  N   UNL     1       1.900   6.870  18.142  0.00  0.00    +0.000 NA
ATOM      3  N   UNL     1       1.695   5.488  18.070  0.00  0.00    +0.000 NA
ATOM      4  C   UNL     1       2.716   4.918  18.716  0.00  0.00    +0.000 A 
ATOM      5  N   UNL     1       3.208   3.617  18.636  0.00  0.00    +0.000 N 
ATOM      6  C   UNL     1       4.288   3.248  19.588  0.00  0.00    +0.000 C 
ATOM      7  C   UNL     1       3.621   3.543  17.306  0.00  0.00    +0.000 A 
ATOM      8  O   UNL     1       3.106   2.883  16.417  0.00  0.00    +0.000 OA
ATOM      9  C   UNL     1       4.770   4.461  17.071  0.00  0.00    +0.000 A 
ATOM     10  C   UNL     1       5.804   3.915  16.315  0.00  0.00    +0.000 A 
ATOM     11  C   UNL     1       6.969   4.630  16.191  0.00  0.00    +0.000 A 
ATOM     12  C   UNL     1       7.019   5.919  16.759  0.00  0.00    +0.000 A 
ATOM     13  C   UNL     1       5.940   6.491  17.536  0.00  0.00    +0.000 A 
ATOM     14  C   UNL     1       4.797   5.741  17.769  0.00  0.00    +0.000 A 
ATOM     15  N   UNL     1       3.661   5.949  18.763  0.00  0.00    +0.000 N 
ENDROOT
BRANCH   1  16
ATOM     16  C   UNL     1       1.859   6.852  20.669  0.00  0.00    +0.000 C 
BRANCH  16  17
ATOM     17  N   UNL     1       1.730   8.175  21.399  0.00  0.00    +0.000 N 
ATOM     18  H   UNL     1       2.677   8.556  21.507  0.00  0.00    +0.000 HD
BRANCH  17  22
ATOM     19  C   UNL     1      -1.180  11.344  22.128  0.00  0.00    +0.000 A 
ATOM     20  C   UNL     1      -0.844  10.437  23.138  0.00  0.00    +0.000 A 
ATOM     21  C   UNL     1       0.113   9.355  22.940  0.00  0.00    +0.000 A 
ATOM     22  C   UNL     1       0.755   9.118  21.716  0.00  0.00    +0.000 A 
ATOM     23  C   UNL     1       0.379  10.055  20.718  0.00  0.00    +0.000 A 
ATOM     24  C   UNL     1      -0.558  11.118  20.902  0.00  0.00    +0.000 A 
BRANCH  19  28
ATOM     25  C   UNL     1      -3.908  13.948  22.933  0.00  0.00    +0.000 C 
ATOM     26  C   UNL     1      -3.183  12.603  23.078  0.00  0.00    +0.000 C 
ATOM     27  O   UNL     1      -3.586  11.768  23.863  0.00  0.00    +0.000 OA
ATOM     28  N   UNL     1      -2.080  12.468  22.233  0.00  0.00    +0.000 N 
ATOM     29  H   UNL     1      -1.868  13.258  21.638  0.00  0.00    +0.000 HD
ENDBRANCH  19  28
ENDBRANCH  17  22
ENDBRANCH  16  17
ENDBRANCH   1  16
TORSDOF 4
ENDMDL
MODEL 8
REMARK VINA RESULT:      -8.5      3.086      4.048
REMARK  Name = 
REMARK  6 active torsions:
REMARK  status: ('A' for Active; 'I' for Inactive)
REMARK    1  A    between atoms: C_1  and  C_2
REMARK    2  A    between atoms: N_4  and  C_5
REMARK    3  A    between atoms: C_8  and  N_9
REMARK    4  A    between atoms: N_9  and  C_10
REMARK    5  A    between atoms: C_10  and  C_11
REMARK    6  A    between atoms: N_15  and  C_16
REMARK                            x       y       z     vdW  Elec       q    Type
REMARK                         _______ _______ _______ _____ _____    ______ ____
ROOT
ATOM      1  C   UNL     1       2.736   6.951  19.296  0.00  0.00    +0.000 A 
ATOM      2  N   UNL     1       1.918   6.990  18.241  0.00  0.00    +0.000 NA
ATOM      3  N   UNL     1       1.595   5.637  18.092  0.00  0.00    +0.000 NA
ATOM      4  C   UNL     1       2.559   4.946  18.707  0.00  0.00    +0.000 A 
ATOM      5  N   UNL     1       2.938   3.613  18.554  0.00  0.00    +0.000 N 
ATOM      6  C   UNL     1       3.976   3.101  19.485  0.00  0.00    +0.000 C 
ATOM      7  C   UNL     1       3.350   3.578  17.223  0.00  0.00    +0.000 A 
ATOM      8  O   UNL     1       2.786   3.016  16.297  0.00  0.00    +0.000 OA
ATOM      9  C   UNL     1       4.575   4.405  17.041  0.00  0.00    +0.000 A 
ATOM     10  C   UNL     1       5.563   3.815  16.256  0.00  0.00    +0.000 A 
ATOM     11  C   UNL     1       6.786   4.432  16.173  0.00  0.00    +0.000 A 
ATOM     12  C   UNL     1       6.943   5.678  16.813  0.00  0.00    +0.000 A 
ATOM     13  C   UNL     1       5.913   6.297  17.620  0.00  0.00    +0.000 A 
ATOM     14  C   UNL     1       4.709   5.638  17.809  0.00  0.00    +0.000 A 
ATOM     15  N   UNL     1       3.589   5.887  18.812  0.00  0.00    +0.000 N 
ENDROOT
BRANCH   1  16
ATOM     16  C   UNL     1       1.861   6.835  20.763  0.00  0.00    +0.000 C 
BRANCH  16  17
ATOM     17  N   UNL     1       1.805   8.134  21.545  0.00  0.00    +0.000 N 
ATOM     18  H   UNL     1       2.756   8.328  21.878  0.00  0.00    +0.000 HD
BRANCH  17  22
ATOM     19  C   UNL     1      -1.040  11.354  22.306  0.00  0.00    +0.000 A 
ATOM     20  C   UNL     1      -0.258  11.350  21.146  0.00  0.00    +0.000 A 
ATOM     21  C   UNL     1       0.714  10.304  20.853  0.00  0.00    +0.000 A 
ATOM     22  C   UNL     1       0.964   9.230  21.719  0.00  0.00    +0.000 A 
ATOM     23  C   UNL     1       0.157   9.277  22.885  0.00  0.00    +0.000 A 
ATOM     24  C   UNL     1      -0.798  10.297  23.183  0.00  0.00    +0.000 A 
BRANCH  19  28
ATOM     25  C   UNL     1      -3.187  14.296  23.569  0.00  0.00    +0.000 C 
ATOM     26  C   UNL     1      -1.885  13.508  23.377  0.00  0.00    +0.000 C 
ATOM     27  O   UNL     1      -0.839  13.925  23.830  0.00  0.00    +0.000 OA
ATOM     28  N   UNL     1      -2.054  12.316  22.670  0.00  0.00    +0.000 N 
ATOM     29  H   UNL     1      -2.991  12.108  22.352  0.00  0.00    +0.000 HD
ENDBRANCH  19  28
ENDBRANCH  17  22
ENDBRANCH  16  17
ENDBRANCH   1  16
TORSDOF 4
ENDMDL
MODEL 9
REMARK VINA RESULT:      -8.5      2.990      3.734
REMARK  Name = 
REMARK  6 active torsions:
REMARK  status: ('A' for Active; 'I' for Inactive)
REMARK    1  A    between atoms: C_1  and  C_2
REMARK    2  A    between atoms: N_4  and  C_5
REMARK    3  A    between atoms: C_8  and  N_9
REMARK    4  A    between atoms: N_9  and  C_10
REMARK    5  A    between atoms: C_10  and  C_11
REMARK    6  A    between atoms: N_15  and  C_16
REMARK                            x       y       z     vdW  Elec       q    Type
REMARK                         _______ _______ _______ _____ _____    ______ ____
ROOT
ATOM      1  C   UNL     1       2.589   7.085  18.120  0.00  0.00    +0.000 A 
ATOM      2  N   UNL     1       1.635   6.225  17.751  0.00  0.00    +0.000 NA
ATOM      3  N   UNL     1       1.999   5.082  18.471  0.00  0.00    +0.000 NA
ATOM      4  C   UNL     1       3.293   5.219  18.773  0.00  0.00    +0.000 A 
ATOM      5  N   UNL     1       4.232   4.255  19.133  0.00  0.00    +0.000 N 
ATOM      6  C   UNL     1       5.575   4.745  19.538  0.00  0.00    +0.000 C 
ATOM      7  C   UNL     1       4.277   3.453  17.993  0.00  0.00    +0.000 A 
ATOM      8  O   UNL     1       3.864   2.309  17.887  0.00  0.00    +0.000 OA
ATOM      9  C   UNL     1       4.849   4.216  16.849  0.00  0.00    +0.000 A 
ATOM     10  C   UNL     1       5.780   3.512  16.089  0.00  0.00    +0.000 A 
ATOM     11  C   UNL     1       6.478   4.189  15.121  0.00  0.00    +0.000 A 
ATOM     12  C   UNL     1       6.145   5.539  14.887  0.00  0.00    +0.000 A 
ATOM     13  C   UNL     1       5.170   6.268  15.669  0.00  0.00    +0.000 A 
ATOM     14  C   UNL     1       4.534   5.634  16.726  0.00  0.00    +0.000 A 
ATOM     15  N   UNL     1       3.713   6.206  17.876  0.00  0.00    +0.000 N 
ENDROOT
BRANCH   1  16
ATOM     16  C   UNL     1       2.263   7.757  19.661  0.00  0.00    +0.000 C 
BRANCH  16  17
ATOM     17  N   UNL     1       1.323   8.947  19.621  0.00  0.00    +0.000 N 
ATOM     18  H   UNL     1       0.983   9.032  18.656  0.00  0.00    +0.000 HD
BRANCH  17  22
ATOM     19  C   UNL     1      -1.093  11.181  22.487  0.00  0.00    +0.000 A 
ATOM     20  C   UNL     1      -0.604  11.797  21.330  0.00  0.00    +0.000 A 
ATOM     21  C   UNL     1       0.216  11.097  20.349  0.00  0.00    +0.000 A 
ATOM     22  C   UNL     1       0.605   9.758  20.495  0.00  0.00    +0.000 A 
ATOM     23  C   UNL     1       0.096   9.174  21.685  0.00  0.00    +0.000 A 
ATOM     24  C   UNL     1      -0.709   9.851  22.652  0.00  0.00    +0.000 A 
BRANCH  19  28
ATOM     25  C   UNL     1      -3.853  12.797  24.638  0.00  0.00    +0.000 C 
ATOM     26  C   UNL     1      -3.245  12.248  23.342  0.00  0.00    +0.000 C 
ATOM     27  O   UNL     1      -3.880  12.264  22.308  0.00  0.00    +0.000 OA
ATOM     28  N   UNL     1      -1.941  11.771  23.495  0.00  0.00    +0.000 N 
ATOM     29  H   UNL     1      -1.548  11.822  24.425  0.00  0.00    +0.000 HD
ENDBRANCH  19  28
ENDBRANCH  17  22
ENDBRANCH  16  17
ENDBRANCH   1  16
TORSDOF 4
ENDMDL
