MODEL 1
REMARK VINA RESULT:      -9.0      0.000      0.000
REMARK  Name = 
REMARK  4 active torsions:
REMARK  status: ('A' for Active; 'I' for Inactive)
REMARK    1  A    between atoms: C_1  and  N_2
REMARK    2  A    between atoms: C_10  and  N_11
REMARK    3  A    between atoms: N_14  and  C_15
REMARK    4  A    between atoms: C_18  and  C_19
REMARK                            x       y       z     vdW  Elec       q    Type
REMARK                         _______ _______ _______ _____ _____    ______ ____
ROOT
ATOM      1  N   UNL     1       2.195   6.273  20.558  0.00  0.00    +0.000 N 
ATOM      2  C   UNL     1       1.719   7.561  20.577  0.00  0.00    +0.000 C 
ATOM      3  O   UNL     1       1.795   8.359  19.646  0.00  0.00    +0.000 OA
ATOM      4  N   UNL     1       1.086   7.922  21.749  0.00  0.00    +0.000 N 
ATOM      5  H   UNL     1       1.916   5.671  21.318  0.00  0.00    +0.000 HD
ATOM      6  H   UNL     1       1.493   7.523  22.584  0.00  0.00    +0.000 HD
ENDROOT
BRANCH   1  16
ATOM      7  C   UNL     1       7.126   5.722  19.111  0.00  0.00    +0.000 C 
ATOM      8  N   UNL     1       6.302   5.077  18.105  0.00  0.00    +0.000 N 
ATOM      9  C   UNL     1       6.944   4.443  17.044  0.00  0.00    +0.000 A 
ATOM     10  O   UNL     1       8.162   4.403  16.888  0.00  0.00    +0.000 OA
ATOM     11  C   UNL     1       6.093   3.774  16.034  0.00  0.00    +0.000 A 
ATOM     12  C   UNL     1       4.762   3.754  16.137  0.00  0.00    +0.000 A 
ATOM     13  C   UNL     1       4.115   4.412  17.264  0.00  0.00    +0.000 A 
ATOM     14  C   UNL     1       2.728   4.375  17.367  0.00  0.00    +0.000 A 
ATOM     15  C   UNL     1       2.091   5.005  18.433  0.00  0.00    +0.000 A 
ATOM     16  C   UNL     1       2.816   5.670  19.427  0.00  0.00    +0.000 A 
ATOM     17  C   UNL     1       4.213   5.721  19.308  0.00  0.00    +0.000 A 
ATOM     18  C   UNL     1       4.876   5.082  18.236  0.00  0.00    +0.000 A 
ENDBRANCH   1  16
BRANCH   4  19
ATOM     19  C   UNL     1       0.669   9.317  21.833  0.00  0.00    +0.000 C 
ATOM     20  C   UNL     1      -0.051   9.711  23.115  0.00  0.00    +0.000 C 
ATOM     21  C   UNL     1      -0.737  11.043  22.767  0.00  0.00    +0.000 C 
ATOM     22  C   UNL     1      -0.764  11.146  21.221  0.00  0.00    +0.000 C 
ATOM     23  C   UNL     1      -0.367   9.731  20.778  0.00  0.00    +0.000 C 
BRANCH  22  24
ATOM     24  C   UNL     1       0.099  12.291  20.690  0.00  0.00    +0.000 A 
ATOM     25  C   UNL     1       0.413  13.438  21.444  0.00  0.00    +0.000 A 
ATOM     26  C   UNL     1       1.254  14.431  20.933  0.00  0.00    +0.000 A 
ATOM     27  C   UNL     1       1.784  14.293  19.660  0.00  0.00    +0.000 A 
ATOM     28  F   UNL     1       2.596  15.241  19.174  0.00  0.00    +0.000 F 
ATOM     29  C   UNL     1       1.487  13.180  18.886  0.00  0.00    +0.000 A 
ATOM     30  C   UNL     1       0.657  12.180  19.402  0.00  0.00    +0.000 A 
ENDBRANCH  22  24
ENDBRANCH   4  19
TORSDOF 3
ENDMDL
MODEL 2
REMARK VINA RESULT:      -8.9      0.965      1.304
REMARK  Name = 
REMARK  4 active torsions:
REMARK  status: ('A' for Active; 'I' for Inactive)
REMARK    1  A    between atoms: C_1  and  N_2
REMARK    2  A    between atoms: C_10  and  N_11
REMARK    3  A    between atoms: N_14  and  C_15
REMARK    4  A    between atoms: C_18  and  C_19
REMARK                            x       y       z     vdW  Elec       q    Type
REMARK                         _______ _______ _______ _____ _____    ______ ____
ROOT
ATOM      1  N   UNL     1       2.544   6.150  20.205  0.00  0.00    +0.000 N 
ATOM      2  C   UNL     1       1.999   7.411  20.208  0.00  0.00    +0.000 C 
ATOM      3  O   UNL     1       1.948   8.164  19.239  0.00  0.00    +0.000 OA
ATOM      4  N   UNL     1       1.453   7.797  21.415  0.00  0.00    +0.000 N 
ATOM      5  H   UNL     1       2.366   5.574  21.013  0.00  0.00    +0.000 HD
ATOM      6  H   UNL     1       1.953   7.463  22.227  0.00  0.00    +0.000 HD
ENDROOT
BRANCH   1  16
ATOM      7  C   UNL     1       6.751   7.084  17.354  0.00  0.00    +0.000 C 
ATOM      8  N   UNL     1       6.093   5.918  16.791  0.00  0.00    +0.000 N 
ATOM      9  C   UNL     1       6.693   5.293  15.700  0.00  0.00    +0.000 A 
ATOM     10  O   UNL     1       7.736   5.666  15.168  0.00  0.00    +0.000 OA
ATOM     11  C   UNL     1       6.022   4.095  15.147  0.00  0.00    +0.000 A 
ATOM     12  C   UNL     1       4.896   3.612  15.677  0.00  0.00    +0.000 A 
ATOM     13  C   UNL     1       4.295   4.275  16.826  0.00  0.00    +0.000 A 
ATOM     14  C   UNL     1       3.129   3.756  17.378  0.00  0.00    +0.000 A 
ATOM     15  C   UNL     1       2.535   4.382  18.472  0.00  0.00    +0.000 A 
ATOM     16  C   UNL     1       3.096   5.524  19.051  0.00  0.00    +0.000 A 
ATOM     17  C   UNL     1       4.262   6.055  18.480  0.00  0.00    +0.000 A 
ATOM     18  C   UNL     1       4.880   5.430  17.374  0.00  0.00    +0.000 A 
ENDBRANCH   1  16
BRANCH   4  19
ATOM     19  C   UNL     1       0.967   9.171  21.473  0.00  0.00    +0.000 C 
ATOM     20  C   UNL     1       0.383   9.606  22.809  0.00  0.00    +0.000 C 
ATOM     21  C   UNL     1      -0.417  10.877  22.475  0.00  0.00    +0.000 C 
ATOM     22  C   UNL     1      -0.635  10.882  20.941  0.00  0.00    +0.000 C 
ATOM     23  C   UNL     1      -0.210   9.466  20.531  0.00  0.00    +0.000 C 
BRANCH  22  24
ATOM     24  C   UNL     1       0.090  12.036  20.247  0.00  0.00    +0.000 A 
ATOM     25  C   UNL     1       0.916  11.865  19.120  0.00  0.00    +0.000 A 
ATOM     26  C   UNL     1       1.511  12.960  18.486  0.00  0.00    +0.000 A 
ATOM     27  C   UNL     1       1.294  14.238  18.978  0.00  0.00    +0.000 A 
ATOM     28  F   UNL     1       1.858  15.288  18.366  0.00  0.00    +0.000 F 
ATOM     29  C   UNL     1       0.494  14.442  20.093  0.00  0.00    +0.000 A 
ATOM     30  C   UNL     1      -0.112  13.347  20.718  0.00  0.00    +0.000 A 
ENDBRANCH  22  24
ENDBRANCH   4  19
TORSDOF 3
ENDMDL
MODEL 3
REMARK VINA RESULT:      -8.9      6.537     10.546
REMARK  Name = 
REMARK  4 active torsions:
REMARK  status: ('A' for Active; 'I' for Inactive)
REMARK    1  A    between atoms: C_1  and  N_2
REMARK    2  A    between atoms: C_10  and  N_11
REMARK    3  A    between atoms: N_14  and  C_15
REMARK    4  A    between atoms: C_18  and  C_19
REMARK                            x       y       z     vdW  Elec       q    Type
REMARK                         _______ _______ _______ _____ _____    ______ ____
ROOT
ATOM      1  N   UNL     1       8.932   8.842  19.223  0.00  0.00    +0.000 N 
ATOM      2  C   UNL     1       8.217   8.236  18.219  0.00  0.00    +0.000 C 
ATOM      3  O   UNL     1       7.827   8.788  17.193  0.00  0.00    +0.000 OA
ATOM      4  N   UNL     1       7.975   6.892  18.419  0.00  0.00    +0.000 N 
ATOM      5  H   UNL     1       9.339   8.240  19.922  0.00  0.00    +0.000 HD
ATOM      6  H   UNL     1       7.807   6.635  19.382  0.00  0.00    +0.000 HD
ENDROOT
BRANCH   1  16
ATOM      7  C   UNL     1       9.020  12.601  22.768  0.00  0.00    +0.000 C 
ATOM      8  N   UNL     1       9.583  13.143  21.544  0.00  0.00    +0.000 N 
ATOM      9  C   UNL     1      10.044  14.458  21.564  0.00  0.00    +0.000 A 
ATOM     10  O   UNL     1       9.996  15.201  22.541  0.00  0.00    +0.000 OA
ATOM     11  C   UNL     1      10.632  14.993  20.314  0.00  0.00    +0.000 A 
ATOM     12  C   UNL     1      10.739  14.248  19.212  0.00  0.00    +0.000 A 
ATOM     13  C   UNL     1      10.263  12.871  19.221  0.00  0.00    +0.000 A 
ATOM     14  C   UNL     1      10.391  12.100  18.070  0.00  0.00    +0.000 A 
ATOM     15  C   UNL     1       9.933  10.785  18.057  0.00  0.00    +0.000 A 
ATOM     16  C   UNL     1       9.355  10.202  19.190  0.00  0.00    +0.000 A 
ATOM     17  C   UNL     1       9.211  10.989  20.341  0.00  0.00    +0.000 A 
ATOM     18  C   UNL     1       9.675  12.324  20.374  0.00  0.00    +0.000 A 
ENDBRANCH   1  16
BRANCH   4  19
ATOM     19  C   UNL     1       7.125   6.253  17.420  0.00  0.00    +0.000 C 
ATOM     20  C   UNL     1       5.627   6.382  17.653  0.00  0.00    +0.000 C 
ATOM     21  C   UNL     1       5.011   5.298  16.753  0.00  0.00    +0.000 C 
ATOM     22  C   UNL     1       6.151   4.315  16.386  0.00  0.00    +0.000 C 
ATOM     23  C   UNL     1       7.277   4.727  17.344  0.00  0.00    +0.000 C 
BRANCH  22  24
ATOM     24  C   UNL     1       6.488   4.331  14.895  0.00  0.00    +0.000 A 
ATOM     25  C   UNL     1       5.783   3.583  13.934  0.00  0.00    +0.000 A 
ATOM     26  C   UNL     1       6.094   3.677  12.573  0.00  0.00    +0.000 A 
ATOM     27  C   UNL     1       7.119   4.513  12.160  0.00  0.00    +0.000 A 
ATOM     28  F   UNL     1       7.411   4.609  10.856  0.00  0.00    +0.000 F 
ATOM     29  C   UNL     1       7.841   5.257  13.082  0.00  0.00    +0.000 A 
ATOM     30  C   UNL     1       7.521   5.174  14.441  0.00  0.00    +0.000 A 
ENDBRANCH  22  24
ENDBRANCH   4  19
TORSDOF 3
ENDMDL
MODEL 4
REMARK VINA RESULT:      -8.7      3.243      9.115
REMARK  Name = 
REMARK  4 active torsions:
REMARK  status: ('A' for Active; 'I' for Inactive)
REMARK    1  A    between atoms: C_1  and  N_2
REMARK    2  A    between atoms: C_10  and  N_11
REMARK    3  A    between atoms: N_14  and  C_15
REMARK    4  A    between atoms: C_18  and  C_19
REMARK                            x       y       z     vdW  Elec       q    Type
REMARK                         _______ _______ _______ _____ _____    ______ ____
ROOT
ATOM      1  N   UNL     1       1.237   8.894  20.282  0.00  0.00    +0.000 N 
ATOM      2  C   UNL     1       1.839   8.001  19.428  0.00  0.00    +0.000 C 
ATOM      3  O   UNL     1       1.994   8.169  18.221  0.00  0.00    +0.000 OA
ATOM      4  N   UNL     1       2.315   6.858  20.037  0.00  0.00    +0.000 N 
ATOM      5  H   UNL     1       1.330   8.714  21.270  0.00  0.00    +0.000 HD
ATOM      6  H   UNL     1       1.743   6.519  20.798  0.00  0.00    +0.000 HD
ENDROOT
BRANCH   1  16
ATOM      7  C   UNL     1       2.988  13.718  20.884  0.00  0.00    +0.000 C 
ATOM      8  N   UNL     1       1.756  13.794  20.121  0.00  0.00    +0.000 N 
ATOM      9  C   UNL     1       1.331  15.049  19.691  0.00  0.00    +0.000 A 
ATOM     10  O   UNL     1       1.918  16.103  19.924  0.00  0.00    +0.000 OA
ATOM     11  C   UNL     1       0.082  15.111  18.898  0.00  0.00    +0.000 A 
ATOM     12  C   UNL     1      -0.607  14.012  18.584  0.00  0.00    +0.000 A 
ATOM     13  C   UNL     1      -0.135  12.709  19.033  0.00  0.00    +0.000 A 
ATOM     14  C   UNL     1      -0.854  11.570  18.690  0.00  0.00    +0.000 A 
ATOM     15  C   UNL     1      -0.422  10.317  19.118  0.00  0.00    +0.000 A 
ATOM     16  C   UNL     1       0.740  10.167  19.881  0.00  0.00    +0.000 A 
ATOM     17  C   UNL     1       1.452  11.320  20.240  0.00  0.00    +0.000 A 
ATOM     18  C   UNL     1       1.032  12.599  19.809  0.00  0.00    +0.000 A 
ENDBRANCH   1  16
BRANCH   4  19
ATOM     19  C   UNL     1       2.860   5.849  19.136  0.00  0.00    +0.000 C 
ATOM     20  C   UNL     1       1.903   4.730  18.748  0.00  0.00    +0.000 C 
ATOM     21  C   UNL     1       2.819   3.628  18.187  0.00  0.00    +0.000 C 
ATOM     22  C   UNL     1       4.257   3.950  18.668  0.00  0.00    +0.000 C 
ATOM     23  C   UNL     1       4.028   5.042  19.722  0.00  0.00    +0.000 C 
BRANCH  22  24
ATOM     24  C   UNL     1       5.199   4.304  17.517  0.00  0.00    +0.000 A 
ATOM     25  C   UNL     1       6.545   4.670  17.703  0.00  0.00    +0.000 A 
ATOM     26  C   UNL     1       7.381   4.928  16.613  0.00  0.00    +0.000 A 
ATOM     27  C   UNL     1       6.879   4.833  15.325  0.00  0.00    +0.000 A 
ATOM     28  F   UNL     1       7.683   5.073  14.280  0.00  0.00    +0.000 F 
ATOM     29  C   UNL     1       5.554   4.485  15.106  0.00  0.00    +0.000 A 
ATOM     30  C   UNL     1       4.721   4.212  16.196  0.00  0.00    +0.000 A 
ENDBRANCH  22  24
ENDBRANCH   4  19
TORSDOF 3
ENDMDL
MODEL 5
REMARK VINA RESULT:      -8.7      3.023      9.007
REMARK  Name = 
REMARK  4 active torsions:
REMARK  status: ('A' for Active; 'I' for Inactive)
REMARK    1  A    between atoms: C_1  and  N_2
REMARK    2  A    between atoms: C_10  and  N_11
REMARK    3  A    between atoms: N_14  and  C_15
REMARK    4  A    between atoms: C_18  and  C_19
REMARK                            x       y       z     vdW  Elec       q    Type
REMARK                         _______ _______ _______ _____ _____    ______ ____
ROOT
ATOM      1  N   UNL     1       1.522   7.706  21.526  0.00  0.00    +0.000 N 
ATOM      2  C   UNL     1       1.962   7.148  20.350  0.00  0.00    +0.000 C 
ATOM      3  O   UNL     1       1.877   7.671  19.242  0.00  0.00    +0.000 OA
ATOM      4  N   UNL     1       2.567   5.916  20.492  0.00  0.00    +0.000 N 
ATOM      5  H   UNL     1       1.807   7.254  22.381  0.00  0.00    +0.000 HD
ATOM      6  H   UNL     1       2.159   5.329  21.206  0.00  0.00    +0.000 HD
ENDROOT
BRANCH   1  16
ATOM      7  C   UNL     1       1.770  11.925  18.553  0.00  0.00    +0.000 C 
ATOM      8  N   UNL     1       0.879  12.224  19.659  0.00  0.00    +0.000 N 
ATOM      9  C   UNL     1       0.272  13.478  19.689  0.00  0.00    +0.000 A 
ATOM     10  O   UNL     1       0.448  14.359  18.851  0.00  0.00    +0.000 OA
ATOM     11  C   UNL     1      -0.647  13.764  20.814  0.00  0.00    +0.000 A 
ATOM     12  C   UNL     1      -0.908  12.856  21.757  0.00  0.00    +0.000 A 
ATOM     13  C   UNL     1      -0.272  11.547  21.697  0.00  0.00    +0.000 A 
ATOM     14  C   UNL     1      -0.561  10.605  22.678  0.00  0.00    +0.000 A 
ATOM     15  C   UNL     1       0.044   9.351  22.642  0.00  0.00    +0.000 A 
ATOM     16  C   UNL     1       0.934   9.000  21.622  0.00  0.00    +0.000 A 
ATOM     17  C   UNL     1       1.236   9.959  20.645  0.00  0.00    +0.000 A 
ATOM     18  C   UNL     1       0.627  11.234  20.663  0.00  0.00    +0.000 A 
ENDBRANCH   1  16
BRANCH   4  19
ATOM     19  C   UNL     1       2.944   5.256  19.247  0.00  0.00    +0.000 C 
ATOM     20  C   UNL     1       1.804   4.604  18.478  0.00  0.00    +0.000 C 
ATOM     21  C   UNL     1       2.508   3.651  17.497  0.00  0.00    +0.000 C 
ATOM     22  C   UNL     1       3.954   3.454  18.019  0.00  0.00    +0.000 C 
ATOM     23  C   UNL     1       3.894   4.062  19.427  0.00  0.00    +0.000 C 
BRANCH  22  24
ATOM     24  C   UNL     1       5.007   4.032  17.074  0.00  0.00    +0.000 A 
ATOM     25  C   UNL     1       6.286   4.441  17.496  0.00  0.00    +0.000 A 
ATOM     26  C   UNL     1       7.234   4.910  16.582  0.00  0.00    +0.000 A 
ATOM     27  C   UNL     1       6.911   4.984  15.236  0.00  0.00    +0.000 A 
ATOM     28  F   UNL     1       7.823   5.426  14.359  0.00  0.00    +0.000 F 
ATOM     29  C   UNL     1       5.656   4.599  14.786  0.00  0.00    +0.000 A 
ATOM     30  C   UNL     1       4.712   4.117  15.699  0.00  0.00    +0.000 A 
ENDBRANCH  22  24
ENDBRANCH   4  19
TORSDOF 3
ENDMDL
MODEL 6
REMARK VINA RESULT:      -8.6      4.025      9.666
REMARK  Name = 
REMARK  4 active torsions:
REMARK  status: ('A' for Active; 'I' for Inactive)
REMARK    1  A    between atoms: C_1  and  N_2
REMARK    2  A    between atoms: C_10  and  N_11
REMARK    3  A    between atoms: N_14  and  C_15
REMARK    4  A    between atoms: C_18  and  C_19
REMARK                            x       y       z     vdW  Elec       q    Type
REMARK                         _______ _______ _______ _____ _____    ______ ____
ROOT
ATOM      1  N   UNL     1       1.708   9.842  17.976  0.00  0.00    +0.000 N 
ATOM      2  C   UNL     1       1.992   8.571  18.413  0.00  0.00    +0.000 C 
ATOM      3  O   UNL     1       1.500   8.036  19.404  0.00  0.00    +0.000 OA
ATOM      4  N   UNL     1       2.883   7.877  17.620  0.00  0.00    +0.000 N 
ATOM      5  H   UNL     1       2.044  10.095  17.059  0.00  0.00    +0.000 HD
ATOM      6  H   UNL     1       3.614   8.445  17.216  0.00  0.00    +0.000 HD
ENDROOT
BRANCH   1  16
ATOM      7  C   UNL     1      -3.421  10.336  17.589  0.00  0.00    +0.000 C 
ATOM      8  N   UNL     1      -2.963  11.300  18.574  0.00  0.00    +0.000 N 
ATOM      9  C   UNL     1      -3.921  12.086  19.211  0.00  0.00    +0.000 A 
ATOM     10  O   UNL     1      -5.128  12.035  18.989  0.00  0.00    +0.000 OA
ATOM     11  C   UNL     1      -3.442  13.053  20.226  0.00  0.00    +0.000 A 
ATOM     12  C   UNL     1      -2.150  13.161  20.540  0.00  0.00    +0.000 A 
ATOM     13  C   UNL     1      -1.170  12.317  19.870  0.00  0.00    +0.000 A 
ATOM     14  C   UNL     1       0.173  12.430  20.214  0.00  0.00    +0.000 A 
ATOM     15  C   UNL     1       1.126  11.638  19.578  0.00  0.00    +0.000 A 
ATOM     16  C   UNL     1       0.764  10.706  18.600  0.00  0.00    +0.000 A 
ATOM     17  C   UNL     1      -0.589  10.609  18.243  0.00  0.00    +0.000 A 
ATOM     18  C   UNL     1      -1.569  11.401  18.882  0.00  0.00    +0.000 A 
ENDBRANCH   1  16
BRANCH   4  19
ATOM     19  C   UNL     1       3.282   6.568  18.124  0.00  0.00    +0.000 C 
ATOM     20  C   UNL     1       4.764   6.242  18.003  0.00  0.00    +0.000 C 
ATOM     21  C   UNL     1       4.830   4.716  18.184  0.00  0.00    +0.000 C 
ATOM     22  C   UNL     1       3.396   4.173  17.960  0.00  0.00    +0.000 C 
ATOM     23  C   UNL     1       2.662   5.384  17.368  0.00  0.00    +0.000 C 
BRANCH  22  24
ATOM     24  C   UNL     1       2.791   3.564  19.226  0.00  0.00    +0.000 A 
ATOM     25  C   UNL     1       3.555   2.919  20.216  0.00  0.00    +0.000 A 
ATOM     26  C   UNL     1       2.962   2.429  21.383  0.00  0.00    +0.000 A 
ATOM     27  C   UNL     1       1.596   2.571  21.570  0.00  0.00    +0.000 A 
ATOM     28  F   UNL     1       1.029   2.108  22.692  0.00  0.00    +0.000 F 
ATOM     29  C   UNL     1       0.811   3.193  20.609  0.00  0.00    +0.000 A 
ATOM     30  C   UNL     1       1.407   3.695  19.448  0.00  0.00    +0.000 A 
ENDBRANCH  22  24
ENDBRANCH   4  19
TORSDOF 3
ENDMDL
MODEL 7
REMARK VINA RESULT:      -8.6      3.412      4.664
REMARK  Name = 
REMARK  4 active torsions:
REMARK  status: ('A' for Active; 'I' for Inactive)
REMARK    1  A    between atoms: C_1  and  N_2
REMARK    2  A    between atoms: C_10  and  N_11
REMARK    3  A    between atoms: N_14  and  C_15
REMARK    4  A    between atoms: C_18  and  C_19
REMARK                            x       y       z     vdW  Elec       q    Type
REMARK                         _______ _______ _______ _____ _____    ______ ____
ROOT
ATOM      1  N   UNL     1       1.409   8.295  21.320  0.00  0.00    +0.000 N 
ATOM      2  C   UNL     1       0.516   9.310  21.072  0.00  0.00    +0.000 C 
ATOM      3  O   UNL     1       0.003   9.552  19.983  0.00  0.00    +0.000 OA
ATOM      4  N   UNL     1       0.184  10.064  22.179  0.00  0.00    +0.000 N 
ATOM      5  H   UNL     1       1.619   8.098  22.287  0.00  0.00    +0.000 HD
ATOM      6  H   UNL     1       0.943  10.210  22.830  0.00  0.00    +0.000 HD
ENDROOT
BRANCH   1  16
ATOM      7  C   UNL     1       1.334   3.132  21.123  0.00  0.00    +0.000 C 
ATOM      8  N   UNL     1       1.896   3.608  19.872  0.00  0.00    +0.000 N 
ATOM      9  C   UNL     1       2.243   2.661  18.911  0.00  0.00    +0.000 A 
ATOM     10  O   UNL     1       2.122   1.447  19.050  0.00  0.00    +0.000 OA
ATOM     11  C   UNL     1       2.800   3.160  17.632  0.00  0.00    +0.000 A 
ATOM     12  C   UNL     1       2.948   4.464  17.391  0.00  0.00    +0.000 A 
ATOM     13  C   UNL     1       2.564   5.436  18.407  0.00  0.00    +0.000 A 
ATOM     14  C   UNL     1       2.711   6.793  18.140  0.00  0.00    +0.000 A 
ATOM     15  C   UNL     1       2.357   7.736  19.102  0.00  0.00    +0.000 A 
ATOM     16  C   UNL     1       1.834   7.352  20.341  0.00  0.00    +0.000 A 
ATOM     17  C   UNL     1       1.705   5.983  20.613  0.00  0.00    +0.000 A 
ATOM     18  C   UNL     1       2.054   5.012  19.646  0.00  0.00    +0.000 A 
ENDBRANCH   1  16
BRANCH   4  19
ATOM     19  C   UNL     1      -0.677  11.213  21.919  0.00  0.00    +0.000 C 
ATOM     20  C   UNL     1       0.044  12.523  21.637  0.00  0.00    +0.000 C 
ATOM     21  C   UNL     1      -1.038  13.598  21.833  0.00  0.00    +0.000 C 
ATOM     22  C   UNL     1      -2.190  12.938  22.632  0.00  0.00    +0.000 C 
ATOM     23  C   UNL     1      -1.565  11.619  23.104  0.00  0.00    +0.000 C 
BRANCH  22  24
ATOM     24  C   UNL     1      -3.481  12.826  21.821  0.00  0.00    +0.000 A 
ATOM     25  C   UNL     1      -3.508  12.702  20.419  0.00  0.00    +0.000 A 
ATOM     26  C   UNL     1      -4.713  12.544  19.729  0.00  0.00    +0.000 A 
ATOM     27  C   UNL     1      -5.907  12.517  20.432  0.00  0.00    +0.000 A 
ATOM     28  F   UNL     1      -7.062  12.359  19.771  0.00  0.00    +0.000 F 
ATOM     29  C   UNL     1      -5.919  12.647  21.814  0.00  0.00    +0.000 A 
ATOM     30  C   UNL     1      -4.712  12.791  22.505  0.00  0.00    +0.000 A 
ENDBRANCH  22  24
ENDBRANCH   4  19
TORSDOF 3
ENDMDL
MODEL 8
REMARK VINA RESULT:      -8.6      4.346      6.722
REMARK  Name = 
REMARK  4 active torsions:
REMARK  status: ('A' for Active; 'I' for Inactive)
REMARK    1  A    between atoms: C_1  and  N_2
REMARK    2  A    between atoms: C_10  and  N_11
REMARK    3  A    between atoms: N_14  and  C_15
REMARK    4  A    between atoms: C_18  and  C_19
REMARK                            x       y       z     vdW  Elec       q    Type
REMARK                         _______ _______ _______ _____ _____    ______ ____
ROOT
ATOM      1  N   UNL     1       8.182   7.049  18.718  0.00  0.00    +0.000 N 
ATOM      2  C   UNL     1       8.182   8.395  18.440  0.00  0.00    +0.000 C 
ATOM      3  O   UNL     1       7.413   8.958  17.665  0.00  0.00    +0.000 OA
ATOM      4  N   UNL     1       9.120   9.126  19.139  0.00  0.00    +0.000 N 
ATOM      5  H   UNL     1       8.745   6.745  19.498  0.00  0.00    +0.000 HD
ATOM      6  H   UNL     1       9.995   8.644  19.294  0.00  0.00    +0.000 HD
ENDROOT
BRANCH   1  16
ATOM      7  C   UNL     1       3.307   5.807  19.899  0.00  0.00    +0.000 C 
ATOM      8  N   UNL     1       3.693   5.011  18.748  0.00  0.00    +0.000 N 
ATOM      9  C   UNL     1       2.740   4.159  18.194  0.00  0.00    +0.000 A 
ATOM     10  O   UNL     1       1.596   4.021  18.619  0.00  0.00    +0.000 OA
ATOM     11  C   UNL     1       3.141   3.366  17.009  0.00  0.00    +0.000 A 
ATOM     12  C   UNL     1       4.358   3.470  16.472  0.00  0.00    +0.000 A 
ATOM     13  C   UNL     1       5.333   4.378  17.061  0.00  0.00    +0.000 A 
ATOM     14  C   UNL     1       6.595   4.487  16.486  0.00  0.00    +0.000 A 
ATOM     15  C   UNL     1       7.543   5.344  17.040  0.00  0.00    +0.000 A 
ATOM     16  C   UNL     1       7.253   6.122  18.166  0.00  0.00    +0.000 A 
ATOM     17  C   UNL     1       5.986   5.995  18.753  0.00  0.00    +0.000 A 
ATOM     18  C   UNL     1       5.010   5.135  18.201  0.00  0.00    +0.000 A 
ENDBRANCH   1  16
BRANCH   4  19
ATOM     19  C   UNL     1       9.211  10.536  18.780  0.00  0.00    +0.000 C 
ATOM     20  C   UNL     1      10.321  10.895  17.802  0.00  0.00    +0.000 C 
ATOM     21  C   UNL     1      10.466  12.420  17.940  0.00  0.00    +0.000 C 
ATOM     22  C   UNL     1       9.776  12.820  19.268  0.00  0.00    +0.000 C 
ATOM     23  C   UNL     1       9.546  11.467  19.954  0.00  0.00    +0.000 C 
BRANCH  22  24
ATOM     24  C   UNL     1       8.537  13.690  19.051  0.00  0.00    +0.000 A 
ATOM     25  C   UNL     1       7.868  13.791  17.816  0.00  0.00    +0.000 A 
ATOM     26  C   UNL     1       6.705  14.556  17.684  0.00  0.00    +0.000 A 
ATOM     27  C   UNL     1       6.203  15.236  18.782  0.00  0.00    +0.000 A 
ATOM     28  F   UNL     1       5.085  15.963  18.656  0.00  0.00    +0.000 F 
ATOM     29  C   UNL     1       6.843  15.168  20.011  0.00  0.00    +0.000 A 
ATOM     30  C   UNL     1       7.999  14.392  20.147  0.00  0.00    +0.000 A 
ENDBRANCH  22  24
ENDBRANCH   4  19
TORSDOF 3
ENDMDL
MODEL 9
REMARK VINA RESULT:      -8.6      3.188      9.511
REMARK  Name = 
REMARK  4 active torsions:
REMARK  status: ('A' for Active; 'I' for Inactive)
REMARK    1  A    between atoms: C_1  and  N_2
REMARK    2  A    between atoms: C_10  and  N_11
REMARK    3  A    between atoms: N_14  and  C_15
REMARK    4  A    between atoms: C_18  and  C_19
REMARK                            x       y       z     vdW  Elec       q    Type
REMARK                         _______ _______ _______ _____ _____    ______ ____
ROOT
ATOM      1  N   UNL     1       1.602   8.206  20.412  0.00  0.00    +0.000 N 
ATOM      2  C   UNL     1       2.161   7.407  19.445  0.00  0.00    +0.000 C 
ATOM      3  O   UNL     1       2.127   7.626  18.237  0.00  0.00    +0.000 OA
ATOM      4  N   UNL     1       2.828   6.301  19.930  0.00  0.00    +0.000 N 
ATOM      5  H   UNL     1       1.850   8.007  21.369  0.00  0.00    +0.000 HD
ATOM      6  H   UNL     1       2.405   5.882  20.747  0.00  0.00    +0.000 HD
ENDROOT
BRANCH   1  16
ATOM      7  C   UNL     1      -1.611  11.163  23.177  0.00  0.00    +0.000 C 
ATOM      8  N   UNL     1      -1.402  11.821  21.901  0.00  0.00    +0.000 N 
ATOM      9  C   UNL     1      -2.023  13.051  21.692  0.00  0.00    +0.000 A 
ATOM     10  O   UNL     1      -2.750  13.614  22.506  0.00  0.00    +0.000 OA
ATOM     11  C   UNL     1      -1.789  13.721  20.392  0.00  0.00    +0.000 A 
ATOM     12  C   UNL     1      -0.998  13.187  19.458  0.00  0.00    +0.000 A 
ATOM     13  C   UNL     1      -0.348  11.907  19.706  0.00  0.00    +0.000 A 
ATOM     14  C   UNL     1       0.482  11.367  18.731  0.00  0.00    +0.000 A 
ATOM     15  C   UNL     1       1.106  10.140  18.947  0.00  0.00    +0.000 A 
ATOM     16  C   UNL     1       0.931   9.433  20.140  0.00  0.00    +0.000 A 
ATOM     17  C   UNL     1       0.077   9.973  21.113  0.00  0.00    +0.000 A 
ATOM     18  C   UNL     1      -0.558  11.219  20.914  0.00  0.00    +0.000 A 
ENDBRANCH   1  16
BRANCH   4  19
ATOM     19  C   UNL     1       3.336   5.381  18.919  0.00  0.00    +0.000 C 
ATOM     20  C   UNL     1       2.446   4.184  18.614  0.00  0.00    +0.000 C 
ATOM     21  C   UNL     1       3.377   3.199  17.885  0.00  0.00    +0.000 C 
ATOM     22  C   UNL     1       4.830   3.649  18.180  0.00  0.00    +0.000 C 
ATOM     23  C   UNL     1       4.646   4.679  19.304  0.00  0.00    +0.000 C 
BRANCH  22  24
ATOM     24  C   UNL     1       5.563   4.133  16.929  0.00  0.00    +0.000 A 
ATOM     25  C   UNL     1       6.883   4.622  16.946  0.00  0.00    +0.000 A 
ATOM     26  C   UNL     1       7.530   4.999  15.765  0.00  0.00    +0.000 A 
ATOM     27  C   UNL     1       6.861   4.900  14.555  0.00  0.00    +0.000 A 
ATOM     28  F   UNL     1       7.484   5.254  13.423  0.00  0.00    +0.000 F 
ATOM     29  C   UNL     1       5.556   4.432  14.503  0.00  0.00    +0.000 A 
ATOM     30  C   UNL     1       4.914   4.042  15.683  0.00  0.00    +0.000 A 
ENDBRANCH  22  24
ENDBRANCH   4  19
TORSDOF 3
ENDMDL
