MODEL 1
REMARK VINA RESULT:      -8.8      0.000      0.000
REMARK  Name = 
REMARK  2 active torsions:
REMARK  status: ('A' for Active; 'I' for Inactive)
REMARK    1  A    between atoms: C_2  and  C_13
REMARK    2  A    between atoms: C_17  and  C_18
REMARK                            x       y       z     vdW  Elec       q    Type
REMARK                         _______ _______ _______ _____ _____    ______ ____
ROOT
ATOM      1  O   UNL     1       2.409   8.688  17.259  0.00  0.00    +0.000 OA
ATOM      2  C   UNL     1       2.435   8.050  18.305  0.00  0.00    +0.000 C 
ATOM      3  N   UNL     1       1.743   8.320  19.472  0.00  0.00    +0.000 N 
ATOM      4  C   UNL     1       0.894   9.405  19.551  0.00  0.00    +0.000 A 
ATOM      5  N   UNL     1       0.565  10.255  18.601  0.00  0.00    +0.000 NA
ATOM      6  N   UNL     1      -0.258  11.222  19.128  0.00  0.00    +0.000 NA
ATOM      7  C   UNL     1      -0.424  10.947  20.400  0.00  0.00    +0.000 A 
ATOM      8  N   UNL     1       0.244   9.787  20.698  0.00  0.00    +0.000 N 
ATOM      9  C   UNL     1       0.294   9.203  22.020  0.00  0.00    +0.000 C 
ATOM     10  C   UNL     1      -0.717   9.828  22.991  0.00  0.00    +0.000 C 
ATOM     11  C   UNL     1      -0.777  11.349  22.825  0.00  0.00    +0.000 C 
ATOM     12  C   UNL     1      -1.205  11.712  21.403  0.00  0.00    +0.000 C 
ATOM     13  H   UNL     1       1.925   7.782  20.303  0.00  0.00    +0.000 HD
ENDROOT
BRANCH   2  14
ATOM     14  C   UNL     1       3.347   6.872  18.350  0.00  0.00    +0.000 A 
ATOM     15  C   UNL     1       3.338   5.960  19.410  0.00  0.00    +0.000 A 
ATOM     16  C   UNL     1       4.207   4.870  19.389  0.00  0.00    +0.000 A 
ATOM     17  C   UNL     1       5.064   4.676  18.302  0.00  0.00    +0.000 A 
ATOM     18  C   UNL     1       5.056   5.555  17.209  0.00  0.00    +0.000 A 
ATOM     19  C   UNL     1       4.199   6.661  17.250  0.00  0.00    +0.000 A 
BRANCH  18  20
ATOM     20  C   UNL     1       5.921   5.278  16.065  0.00  0.00    +0.000 A 
ATOM     21  N   UNL     1       5.632   4.530  15.015  0.00  0.00    +0.000 NA
ATOM     22  C   UNL     1       6.736   4.642  14.221  0.00  0.00    +0.000 A 
ATOM     23  N   UNL     1       7.704   5.423  14.701  0.00  0.00    +0.000 NA
ATOM     24  N   UNL     1       7.166   5.819  15.868  0.00  0.00    +0.000 N 
ATOM     25  H   UNL     1       7.676   6.469  16.456  0.00  0.00    +0.000 HD
ENDBRANCH  18  20
ENDBRANCH   2  14
TORSDOF 2
ENDMDL
MODEL 2
REMARK VINA RESULT:      -8.3      0.952      1.003
REMARK  Name = 
REMARK  2 active torsions:
REMARK  status: ('A' for Active; 'I' for Inactive)
REMARK    1  A    between atoms: C_2  and  C_13
REMARK    2  A    between atoms: C_17  and  C_18
REMARK                            x       y       z     vdW  Elec       q    Type
REMARK                         _______ _______ _______ _____ _____    ______ ____
ROOT
ATOM      1  O   UNL     1       2.073   9.157  17.425  0.00  0.00    +0.000 OA
ATOM      2  C   UNL     1       1.992   8.553  18.489  0.00  0.00    +0.000 C 
ATOM      3  N   UNL     1       1.293   8.934  19.621  0.00  0.00    +0.000 N 
ATOM      4  C   UNL     1       0.566  10.107  19.637  0.00  0.00    +0.000 A 
ATOM      5  N   UNL     1       0.366  10.957  18.652  0.00  0.00    +0.000 NA
ATOM      6  N   UNL     1      -0.362  12.024  19.120  0.00  0.00    +0.000 NA
ATOM      7  C   UNL     1      -0.602  11.810  20.392  0.00  0.00    +0.000 A 
ATOM      8  N   UNL     1      -0.078  10.594  20.747  0.00  0.00    +0.000 N 
ATOM      9  C   UNL     1      -0.139  10.050  22.085  0.00  0.00    +0.000 C 
ATOM     10  C   UNL     1      -1.108  10.812  22.999  0.00  0.00    +0.000 C 
ATOM     11  C   UNL     1      -0.995  12.324  22.789  0.00  0.00    +0.000 C 
ATOM     12  C   UNL     1      -1.330  12.687  21.342  0.00  0.00    +0.000 C 
ATOM     13  H   UNL     1       1.385   8.406  20.472  0.00  0.00    +0.000 HD
ENDROOT
BRANCH   2  14
ATOM     14  C   UNL     1       2.766   7.285  18.602  0.00  0.00    +0.000 A 
ATOM     15  C   UNL     1       2.502   6.333  19.592  0.00  0.00    +0.000 A 
ATOM     16  C   UNL     1       3.253   5.159  19.638  0.00  0.00    +0.000 A 
ATOM     17  C   UNL     1       4.247   4.924  18.684  0.00  0.00    +0.000 A 
ATOM     18  C   UNL     1       4.497   5.845  17.657  0.00  0.00    +0.000 A 
ATOM     19  C   UNL     1       3.756   7.033  17.633  0.00  0.00    +0.000 A 
BRANCH  18  20
ATOM     20  C   UNL     1       5.499   5.529  16.642  0.00  0.00    +0.000 A 
ATOM     21  N   UNL     1       6.426   4.590  16.709  0.00  0.00    +0.000 NA
ATOM     22  C   UNL     1       7.056   4.668  15.501  0.00  0.00    +0.000 A 
ATOM     23  N   UNL     1       6.577   5.594  14.670  0.00  0.00    +0.000 NA
ATOM     24  N   UNL     1       5.590   6.126  15.411  0.00  0.00    +0.000 N 
ATOM     25  H   UNL     1       5.008   6.855  15.013  0.00  0.00    +0.000 HD
ENDBRANCH  18  20
ENDBRANCH   2  14
TORSDOF 2
ENDMDL
MODEL 3
REMARK VINA RESULT:      -8.3      2.126      3.079
REMARK  Name = 
REMARK  2 active torsions:
REMARK  status: ('A' for Active; 'I' for Inactive)
REMARK    1  A    between atoms: C_2  and  C_13
REMARK    2  A    between atoms: C_17  and  C_18
REMARK                            x       y       z     vdW  Elec       q    Type
REMARK                         _______ _______ _______ _____ _____    ______ ____
ROOT
ATOM      1  O   UNL     1       2.521   9.244  17.067  0.00  0.00    +0.000 OA
ATOM      2  C   UNL     1       2.541   8.386  17.942  0.00  0.00    +0.000 C 
ATOM      3  N   UNL     1       1.854   8.391  19.143  0.00  0.00    +0.000 N 
ATOM      4  C   UNL     1       1.015   9.437  19.468  0.00  0.00    +0.000 A 
ATOM      5  N   UNL     1       0.693  10.483  18.736  0.00  0.00    +0.000 NA
ATOM      6  N   UNL     1      -0.119  11.313  19.471  0.00  0.00    +0.000 NA
ATOM      7  C   UNL     1      -0.286  10.760  20.649  0.00  0.00    +0.000 A 
ATOM      8  N   UNL     1       0.371   9.556  20.674  0.00  0.00    +0.000 N 
ATOM      9  C   UNL     1       0.417   8.688  21.829  0.00  0.00    +0.000 C 
ATOM     10  C   UNL     1      -0.586   9.086  22.920  0.00  0.00    +0.000 C 
ATOM     11  C   UNL     1      -0.632  10.605  23.103  0.00  0.00    +0.000 C 
ATOM     12  C   UNL     1      -1.059  11.285  21.801  0.00  0.00    +0.000 C 
ATOM     13  H   UNL     1       2.032   7.677  19.829  0.00  0.00    +0.000 HD
ENDROOT
BRANCH   2  14
ATOM     14  C   UNL     1       3.442   7.220  17.716  0.00  0.00    +0.000 A 
ATOM     15  C   UNL     1       4.410   7.208  16.707  0.00  0.00    +0.000 A 
ATOM     16  C   UNL     1       5.232   6.092  16.553  0.00  0.00    +0.000 A 
ATOM     17  C   UNL     1       5.104   5.002  17.419  0.00  0.00    +0.000 A 
ATOM     18  C   UNL     1       4.169   5.013  18.464  0.00  0.00    +0.000 A 
ATOM     19  C   UNL     1       3.331   6.127  18.596  0.00  0.00    +0.000 A 
BRANCH  18  20
ATOM     20  C   UNL     1       4.115   3.881  19.385  0.00  0.00    +0.000 A 
ATOM     21  N   UNL     1       3.095   3.524  20.145  0.00  0.00    +0.000 NA
ATOM     22  C   UNL     1       3.529   2.387  20.761  0.00  0.00    +0.000 A 
ATOM     23  N   UNL     1       4.760   1.997  20.430  0.00  0.00    +0.000 NA
ATOM     24  N   UNL     1       5.113   2.954  19.555  0.00  0.00    +0.000 N 
ATOM     25  H   UNL     1       6.015   2.901  19.096  0.00  0.00    +0.000 HD
ENDBRANCH  18  20
ENDBRANCH   2  14
TORSDOF 2
ENDMDL
MODEL 4
REMARK VINA RESULT:      -8.2      1.984      2.660
REMARK  Name = 
REMARK  2 active torsions:
REMARK  status: ('A' for Active; 'I' for Inactive)
REMARK    1  A    between atoms: C_2  and  C_13
REMARK    2  A    between atoms: C_17  and  C_18
REMARK                            x       y       z     vdW  Elec       q    Type
REMARK                         _______ _______ _______ _____ _____    ______ ____
ROOT
ATOM      1  O   UNL     1       1.978   5.759  21.200  0.00  0.00    +0.000 OA
ATOM      2  C   UNL     1       2.102   6.172  20.052  0.00  0.00    +0.000 C 
ATOM      3  N   UNL     1       1.892   7.461  19.594  0.00  0.00    +0.000 N 
ATOM      4  C   UNL     1       1.510   8.462  20.463  0.00  0.00    +0.000 A 
ATOM      5  N   UNL     1       1.360   8.396  21.769  0.00  0.00    +0.000 NA
ATOM      6  N   UNL     1       0.904   9.607  22.231  0.00  0.00    +0.000 NA
ATOM      7  C   UNL     1       0.783  10.403  21.196  0.00  0.00    +0.000 A 
ATOM      8  N   UNL     1       1.198   9.739  20.070  0.00  0.00    +0.000 N 
ATOM      9  C   UNL     1       1.176  10.312  18.742  0.00  0.00    +0.000 C 
ATOM     10  C   UNL     1       0.938  11.828  18.747  0.00  0.00    +0.000 C 
ATOM     11  C   UNL     1      -0.133  12.218  19.769  0.00  0.00    +0.000 C 
ATOM     12  C   UNL     1       0.300  11.806  21.177  0.00  0.00    +0.000 C 
ATOM     13  H   UNL     1       1.926   7.657  18.608  0.00  0.00    +0.000 HD
ENDROOT
BRANCH   2  14
ATOM     14  C   UNL     1       2.479   5.169  19.016  0.00  0.00    +0.000 A 
ATOM     15  C   UNL     1       1.586   4.196  18.557  0.00  0.00    +0.000 A 
ATOM     16  C   UNL     1       1.994   3.293  17.576  0.00  0.00    +0.000 A 
ATOM     17  C   UNL     1       3.281   3.377  17.037  0.00  0.00    +0.000 A 
ATOM     18  C   UNL     1       4.177   4.373  17.452  0.00  0.00    +0.000 A 
ATOM     19  C   UNL     1       3.768   5.259  18.456  0.00  0.00    +0.000 A 
BRANCH  18  20
ATOM     20  C   UNL     1       5.488   4.464  16.816  0.00  0.00    +0.000 A 
ATOM     21  N   UNL     1       5.739   4.787  15.560  0.00  0.00    +0.000 NA
ATOM     22  C   UNL     1       7.102   4.784  15.488  0.00  0.00    +0.000 A 
ATOM     23  N   UNL     1       7.729   4.488  16.627  0.00  0.00    +0.000 NA
ATOM     24  N   UNL     1       6.689   4.292  17.456  0.00  0.00    +0.000 N 
ATOM     25  H   UNL     1       6.864   4.079  18.432  0.00  0.00    +0.000 HD
ENDBRANCH  18  20
ENDBRANCH   2  14
TORSDOF 2
ENDMDL
MODEL 5
REMARK VINA RESULT:      -8.1      2.767      7.914
REMARK  Name = 
REMARK  2 active torsions:
REMARK  status: ('A' for Active; 'I' for Inactive)
REMARK    1  A    between atoms: C_2  and  C_13
REMARK    2  A    between atoms: C_17  and  C_18
REMARK                            x       y       z     vdW  Elec       q    Type
REMARK                         _______ _______ _______ _____ _____    ______ ____
ROOT
ATOM      1  O   UNL     1       2.579   9.002  17.481  0.00  0.00    +0.000 OA
ATOM      2  C   UNL     1       1.867   8.759  18.448  0.00  0.00    +0.000 C 
ATOM      3  N   UNL     1       1.887   7.629  19.246  0.00  0.00    +0.000 N 
ATOM      4  C   UNL     1       2.791   6.615  19.004  0.00  0.00    +0.000 A 
ATOM      5  N   UNL     1       3.751   6.573  18.105  0.00  0.00    +0.000 NA
ATOM      6  N   UNL     1       4.371   5.348  18.165  0.00  0.00    +0.000 NA
ATOM      7  C   UNL     1       3.781   4.654  19.108  0.00  0.00    +0.000 A 
ATOM      8  N   UNL     1       2.813   5.428  19.694  0.00  0.00    +0.000 N 
ATOM      9  C   UNL     1       1.948   4.969  20.758  0.00  0.00    +0.000 C 
ATOM     10  C   UNL     1       2.414   3.645  21.380  0.00  0.00    +0.000 C 
ATOM     11  C   UNL     1       2.896   2.667  20.306  0.00  0.00    +0.000 C 
ATOM     12  C   UNL     1       4.073   3.263  19.534  0.00  0.00    +0.000 C 
ATOM     13  H   UNL     1       1.181   7.496  19.951  0.00  0.00    +0.000 HD
ENDROOT
BRANCH   2  14
ATOM     14  C   UNL     1       0.826   9.771  18.785  0.00  0.00    +0.000 A 
ATOM     15  C   UNL     1       0.953  10.641  19.873  0.00  0.00    +0.000 A 
ATOM     16  C   UNL     1      -0.049  11.576  20.130  0.00  0.00    +0.000 A 
ATOM     17  C   UNL     1      -1.163  11.659  19.290  0.00  0.00    +0.000 A 
ATOM     18  C   UNL     1      -1.288  10.825  18.169  0.00  0.00    +0.000 A 
ATOM     19  C   UNL     1      -0.290   9.872  17.933  0.00  0.00    +0.000 A 
BRANCH  18  20
ATOM     20  C   UNL     1      -2.436  10.991  17.281  0.00  0.00    +0.000 A 
ATOM     21  N   UNL     1      -3.711  11.007  17.627  0.00  0.00    +0.000 NA
ATOM     22  C   UNL     1      -4.365  11.245  16.454  0.00  0.00    +0.000 A 
ATOM     23  N   UNL     1      -3.579  11.390  15.386  0.00  0.00    +0.000 NA
ATOM     24  N   UNL     1      -2.362  11.229  15.932  0.00  0.00    +0.000 N 
ATOM     25  H   UNL     1      -1.538  11.323  15.348  0.00  0.00    +0.000 HD
ENDBRANCH  18  20
ENDBRANCH   2  14
TORSDOF 2
ENDMDL
MODEL 6
REMARK VINA RESULT:      -8.1      2.775      3.820
REMARK  Name = 
REMARK  2 active torsions:
REMARK  status: ('A' for Active; 'I' for Inactive)
REMARK    1  A    between atoms: C_2  and  C_13
REMARK    2  A    between atoms: C_17  and  C_18
REMARK                            x       y       z     vdW  Elec       q    Type
REMARK                         _______ _______ _______ _____ _____    ______ ____
ROOT
ATOM      1  O   UNL     1       2.066   9.338  17.317  0.00  0.00    +0.000 OA
ATOM      2  C   UNL     1       1.977   8.644  18.323  0.00  0.00    +0.000 C 
ATOM      3  N   UNL     1       1.281   8.930  19.485  0.00  0.00    +0.000 N 
ATOM      4  C   UNL     1       0.568  10.105  19.604  0.00  0.00    +0.000 A 
ATOM      5  N   UNL     1       0.378  11.041  18.698  0.00  0.00    +0.000 NA
ATOM      6  N   UNL     1      -0.340  12.070  19.259  0.00  0.00    +0.000 NA
ATOM      7  C   UNL     1      -0.583  11.747  20.507  0.00  0.00    +0.000 A 
ATOM      8  N   UNL     1      -0.072  10.499  20.753  0.00  0.00    +0.000 N 
ATOM      9  C   UNL     1      -0.140   9.839  22.038  0.00  0.00    +0.000 C 
ATOM     10  C   UNL     1      -1.102  10.528  23.016  0.00  0.00    +0.000 C 
ATOM     11  C   UNL     1      -0.972  12.052  22.940  0.00  0.00    +0.000 C 
ATOM     12  C   UNL     1      -1.302  12.545  21.531  0.00  0.00    +0.000 C 
ATOM     13  H   UNL     1       1.367   8.328  20.286  0.00  0.00    +0.000 HD
ENDROOT
BRANCH   2  14
ATOM     14  C   UNL     1       2.738   7.362  18.323  0.00  0.00    +0.000 A 
ATOM     15  C   UNL     1       3.875   7.168  17.533  0.00  0.00    +0.000 A 
ATOM     16  C   UNL     1       4.552   5.950  17.586  0.00  0.00    +0.000 A 
ATOM     17  C   UNL     1       4.109   4.937  18.443  0.00  0.00    +0.000 A 
ATOM     18  C   UNL     1       2.997   5.129  19.275  0.00  0.00    +0.000 A 
ATOM     19  C   UNL     1       2.308   6.345  19.197  0.00  0.00    +0.000 A 
BRANCH  18  20
ATOM     20  C   UNL     1       2.609   4.069  20.202  0.00  0.00    +0.000 A 
ATOM     21  N   UNL     1       3.367   3.078  20.636  0.00  0.00    +0.000 NA
ATOM     22  C   UNL     1       2.562   2.411  21.513  0.00  0.00    +0.000 A 
ATOM     23  N   UNL     1       1.342   2.927  21.668  0.00  0.00    +0.000 NA
ATOM     24  N   UNL     1       1.394   3.978  20.832  0.00  0.00    +0.000 N 
ATOM     25  H   UNL     1       0.594   4.599  20.763  0.00  0.00    +0.000 HD
ENDBRANCH  18  20
ENDBRANCH   2  14
TORSDOF 2
ENDMDL
MODEL 7
REMARK VINA RESULT:      -7.9      2.767      8.111
REMARK  Name = 
REMARK  2 active torsions:
REMARK  status: ('A' for Active; 'I' for Inactive)
REMARK    1  A    between atoms: C_2  and  C_13
REMARK    2  A    between atoms: C_17  and  C_18
REMARK                            x       y       z     vdW  Elec       q    Type
REMARK                         _______ _______ _______ _____ _____    ______ ____
ROOT
ATOM      1  O   UNL     1       2.876   9.196  17.530  0.00  0.00    +0.000 OA
ATOM      2  C   UNL     1       1.999   8.652  18.192  0.00  0.00    +0.000 C 
ATOM      3  N   UNL     1       1.890   7.308  18.502  0.00  0.00    +0.000 N 
ATOM      4  C   UNL     1       2.841   6.408  18.068  0.00  0.00    +0.000 A 
ATOM      5  N   UNL     1       3.953   6.649  17.407  0.00  0.00    +0.000 NA
ATOM      6  N   UNL     1       4.573   5.457  17.119  0.00  0.00    +0.000 NA
ATOM      7  C   UNL     1       3.829   4.497  17.613  0.00  0.00    +0.000 A 
ATOM      8  N   UNL     1       2.754   5.051  18.259  0.00  0.00    +0.000 N 
ATOM      9  C   UNL     1       1.714   4.279  18.901  0.00  0.00    +0.000 C 
ATOM     10  C   UNL     1       2.079   2.796  19.060  0.00  0.00    +0.000 C 
ATOM     11  C   UNL     1       2.772   2.258  17.806  0.00  0.00    +0.000 C 
ATOM     12  C   UNL     1       4.062   3.033  17.537  0.00  0.00    +0.000 C 
ATOM     13  H   UNL     1       1.067   6.962  18.966  0.00  0.00    +0.000 HD
ENDROOT
BRANCH   2  14
ATOM     14  C   UNL     1       0.895   9.523  18.686  0.00  0.00    +0.000 A 
ATOM     15  C   UNL     1       0.951  10.170  19.925  0.00  0.00    +0.000 A 
ATOM     16  C   UNL     1      -0.108  10.982  20.327  0.00  0.00    +0.000 A 
ATOM     17  C   UNL     1      -1.209  11.168  19.486  0.00  0.00    +0.000 A 
ATOM     18  C   UNL     1      -1.264  10.564  18.222  0.00  0.00    +0.000 A 
ATOM     19  C   UNL     1      -0.208   9.729  17.836  0.00  0.00    +0.000 A 
BRANCH  18  20
ATOM     20  C   UNL     1      -2.402  10.838  17.348  0.00  0.00    +0.000 A 
ATOM     21  N   UNL     1      -3.573  11.334  17.704  0.00  0.00    +0.000 NA
ATOM     22  C   UNL     1      -4.250  11.449  16.525  0.00  0.00    +0.000 A 
ATOM     23  N   UNL     1      -3.574  11.065  15.442  0.00  0.00    +0.000 NA
ATOM     24  N   UNL     1      -2.404  10.685  15.985  0.00  0.00    +0.000 N 
ATOM     25  H   UNL     1      -1.655  10.367  15.380  0.00  0.00    +0.000 HD
ENDBRANCH  18  20
ENDBRANCH   2  14
TORSDOF 2
ENDMDL
MODEL 8
REMARK VINA RESULT:      -7.7      2.197      3.107
REMARK  Name = 
REMARK  2 active torsions:
REMARK  status: ('A' for Active; 'I' for Inactive)
REMARK    1  A    between atoms: C_2  and  C_13
REMARK    2  A    between atoms: C_17  and  C_18
REMARK                            x       y       z     vdW  Elec       q    Type
REMARK                         _______ _______ _______ _____ _____    ______ ____
ROOT
ATOM      1  O   UNL     1       2.217   9.318  17.073  0.00  0.00    +0.000 OA
ATOM      2  C   UNL     1       2.266   8.495  17.980  0.00  0.00    +0.000 C 
ATOM      3  N   UNL     1       1.614   8.547  19.200  0.00  0.00    +0.000 N 
ATOM      4  C   UNL     1       0.784   9.605  19.507  0.00  0.00    +0.000 A 
ATOM      5  N   UNL     1       0.438  10.621  18.745  0.00  0.00    +0.000 NA
ATOM      6  N   UNL     1      -0.353  11.479  19.471  0.00  0.00    +0.000 NA
ATOM      7  C   UNL     1      -0.484  10.972  20.673  0.00  0.00    +0.000 A 
ATOM      8  N   UNL     1       0.176   9.772  20.727  0.00  0.00    +0.000 N 
ATOM      9  C   UNL     1       0.258   8.949  21.914  0.00  0.00    +0.000 C 
ATOM     10  C   UNL     1      -0.713   9.390  23.017  0.00  0.00    +0.000 C 
ATOM     11  C   UNL     1      -0.757  10.915  23.141  0.00  0.00    +0.000 C 
ATOM     12  C   UNL     1      -1.223  11.543  21.827  0.00  0.00    +0.000 C 
ATOM     13  H   UNL     1       1.814   7.861  19.908  0.00  0.00    +0.000 HD
ENDROOT
BRANCH   2  14
ATOM     14  C   UNL     1       3.162   7.322  17.774  0.00  0.00    +0.000 A 
ATOM     15  C   UNL     1       4.471   7.455  17.301  0.00  0.00    +0.000 A 
ATOM     16  C   UNL     1       5.265   6.320  17.141  0.00  0.00    +0.000 A 
ATOM     17  C   UNL     1       4.762   5.059  17.474  0.00  0.00    +0.000 A 
ATOM     18  C   UNL     1       3.467   4.909  17.990  0.00  0.00    +0.000 A 
ATOM     19  C   UNL     1       2.667   6.051  18.124  0.00  0.00    +0.000 A 
BRANCH  18  20
ATOM     20  C   UNL     1       3.006   3.581  18.387  0.00  0.00    +0.000 A 
ATOM     21  N   UNL     1       3.615   2.431  18.164  0.00  0.00    +0.000 NA
ATOM     22  C   UNL     1       2.813   1.513  18.778  0.00  0.00    +0.000 A 
ATOM     23  N   UNL     1       1.736   2.015  19.384  0.00  0.00    +0.000 NA
ATOM     24  N   UNL     1       1.879   3.327  19.127  0.00  0.00    +0.000 N 
ATOM     25  H   UNL     1       1.205   3.983  19.505  0.00  0.00    +0.000 HD
ENDBRANCH  18  20
ENDBRANCH   2  14
TORSDOF 2
ENDMDL
MODEL 9
REMARK VINA RESULT:      -7.7      1.365      1.624
REMARK  Name = 
REMARK  2 active torsions:
REMARK  status: ('A' for Active; 'I' for Inactive)
REMARK    1  A    between atoms: C_2  and  C_13
REMARK    2  A    between atoms: C_17  and  C_18
REMARK                            x       y       z     vdW  Elec       q    Type
REMARK                         _______ _______ _______ _____ _____    ______ ____
ROOT
ATOM      1  O   UNL     1       2.446   8.812  17.218  0.00  0.00    +0.000 OA
ATOM      2  C   UNL     1       2.119   8.108  18.167  0.00  0.00    +0.000 C 
ATOM      3  N   UNL     1       1.380   8.480  19.276  0.00  0.00    +0.000 N 
ATOM      4  C   UNL     1       0.905   9.769  19.404  0.00  0.00    +0.000 A 
ATOM      5  N   UNL     1       0.997  10.762  18.545  0.00  0.00    +0.000 NA
ATOM      6  N   UNL     1       0.445  11.891  19.101  0.00  0.00    +0.000 NA
ATOM      7  C   UNL     1       0.017  11.570  20.299  0.00  0.00    +0.000 A 
ATOM      8  N   UNL     1       0.244  10.235  20.513  0.00  0.00    +0.000 N 
ATOM      9  C   UNL     1      -0.084   9.548  21.742  0.00  0.00    +0.000 C 
ATOM     10  C   UNL     1      -0.984  10.376  22.670  0.00  0.00    +0.000 C 
ATOM     11  C   UNL     1      -0.548  11.843  22.702  0.00  0.00    +0.000 C 
ATOM     12  C   UNL     1      -0.629  12.452  21.302  0.00  0.00    +0.000 C 
ATOM     13  H   UNL     1       1.263   7.839  20.043  0.00  0.00    +0.000 HD
ENDROOT
BRANCH   2  14
ATOM     14  C   UNL     1       2.607   6.699  18.156  0.00  0.00    +0.000 A 
ATOM     15  C   UNL     1       1.737   5.607  18.228  0.00  0.00    +0.000 A 
ATOM     16  C   UNL     1       2.252   4.312  18.200  0.00  0.00    +0.000 A 
ATOM     17  C   UNL     1       3.630   4.107  18.076  0.00  0.00    +0.000 A 
ATOM     18  C   UNL     1       4.514   5.189  17.958  0.00  0.00    +0.000 A 
ATOM     19  C   UNL     1       3.991   6.486  18.012  0.00  0.00    +0.000 A 
BRANCH  18  20
ATOM     20  C   UNL     1       5.938   4.928  17.763  0.00  0.00    +0.000 A 
ATOM     21  N   UNL     1       6.871   4.879  18.697  0.00  0.00    +0.000 NA
ATOM     22  C   UNL     1       8.003   4.551  18.011  0.00  0.00    +0.000 A 
ATOM     23  N   UNL     1       7.842   4.380  16.699  0.00  0.00    +0.000 NA
ATOM     24  N   UNL     1       6.527   4.620  16.563  0.00  0.00    +0.000 N 
ATOM     25  H   UNL     1       6.096   4.528  15.649  0.00  0.00    +0.000 HD
ENDBRANCH  18  20
ENDBRANCH   2  14
TORSDOF 2
ENDMDL
