MODEL 1
REMARK VINA RESULT:      -8.1      0.000      0.000
REMARK  Name = 
REMARK  6 active torsions:
REMARK  status: ('A' for Active; 'I' for Inactive)
REMARK    1  A    between atoms: C_1  and  N_2
REMARK    2  A    between atoms: C_5  and  S_6
REMARK    3  A    between atoms: S_6  and  C_7
REMARK    4  A    between atoms: C_7  and  C_8
REMARK    5  A    between atoms: C_12  and  N_13
REMARK    6  A    between atoms: C_20  and  C_21
REMARK                            x       y       z     vdW  Elec       q    Type
REMARK                         _______ _______ _______ _____ _____    ______ ____
ROOT
ATOM      1  N   UNL     1       3.313   5.838  20.145  0.00  0.00    +0.000 N 
ATOM      2  C   UNL     1       4.470   5.501  19.282  0.00  0.00    +0.000 C 
ATOM      3  C   UNL     1       3.989   4.273  18.573  0.00  0.00    +0.000 A 
ATOM      4  C   UNL     1       3.055   3.649  19.404  0.00  0.00    +0.000 A 
ATOM      5  C   UNL     1       2.307   2.556  19.012  0.00  0.00    +0.000 A 
ATOM      6  C   UNL     1       2.503   2.084  17.714  0.00  0.00    +0.000 A 
ATOM      7  C   UNL     1       3.421   2.716  16.854  0.00  0.00    +0.000 A 
ATOM      8  C   UNL     1       4.186   3.827  17.269  0.00  0.00    +0.000 A 
ATOM      9  C   UNL     1       2.735   4.591  20.504  0.00  0.00    +0.000 C 
ATOM     10  O   UNL     1       1.953   4.346  21.404  0.00  0.00    +0.000 OA
ENDROOT
BRANCH   1  15
ATOM     11  C   UNL     1       1.364   8.942  19.745  0.00  0.00    +0.000 A 
ATOM     12  C   UNL     1       1.850   9.297  18.477  0.00  0.00    +0.000 A 
ATOM     13  C   UNL     1       2.425   8.349  17.640  0.00  0.00    +0.000 A 
ATOM     14  C   UNL     1       2.652   7.063  18.107  0.00  0.00    +0.000 A 
ATOM     15  C   UNL     1       2.428   6.770  19.460  0.00  0.00    +0.000 A 
ATOM     16  C   UNL     1       1.667   7.662  20.233  0.00  0.00    +0.000 A 
BRANCH  11  17
ATOM     17  C   UNL     1       0.674   9.947  20.648  0.00  0.00    +0.000 C 
BRANCH  17  18
ATOM     18  S   UNL     1       0.758   9.490  22.414  0.00  0.00    +0.000 S 
BRANCH  18  23
ATOM     19  C   UNL     1      -1.020  13.026  21.504  0.00  0.00    +0.000 C 
ATOM     20  N   UNL     1      -1.058  12.474  22.848  0.00  0.00    +0.000 N 
ATOM     21  C   UNL     1      -2.390  11.956  23.350  0.00  0.00    +0.000 C 
ATOM     22  C   UNL     1      -1.258  11.167  23.052  0.00  0.00    +0.000 C 
ATOM     23  C   UNL     1      -0.801   9.930  22.997  0.00  0.00    +0.000 C 
ENDBRANCH  18  23
ENDBRANCH  17  18
ENDBRANCH  11  17
ENDBRANCH   1  15
BRANCH   8  24
ATOM     24  C   UNL     1       5.068   4.532  16.268  0.00  0.00    +0.000 C 
ATOM     25  F   UNL     1       6.379   4.594  16.625  0.00  0.00    +0.000 F 
ATOM     26  F   UNL     1       5.047   3.924  15.051  0.00  0.00    +0.000 F 
ATOM     27  F   UNL     1       4.681   5.818  16.050  0.00  0.00    +0.000 F 
ENDBRANCH   8  24
TORSDOF 5
ENDMDL
MODEL 2
REMARK VINA RESULT:      -8.1      3.664      4.533
REMARK  Name = 
REMARK  6 active torsions:
REMARK  status: ('A' for Active; 'I' for Inactive)
REMARK    1  A    between atoms: C_1  and  N_2
REMARK    2  A    between atoms: C_5  and  S_6
REMARK    3  A    between atoms: S_6  and  C_7
REMARK    4  A    between atoms: C_7  and  C_8
REMARK    5  A    between atoms: C_12  and  N_13
REMARK    6  A    between atoms: C_20  and  C_21
REMARK                            x       y       z     vdW  Elec       q    Type
REMARK                         _______ _______ _______ _____ _____    ______ ____
ROOT
ATOM      1  N   UNL     1       2.504   6.676  17.751  0.00  0.00    +0.000 N 
ATOM      2  C   UNL     1       1.678   5.451  17.872  0.00  0.00    +0.000 C 
ATOM      3  C   UNL     1       2.634   4.486  18.502  0.00  0.00    +0.000 A 
ATOM      4  C   UNL     1       3.925   4.876  18.137  0.00  0.00    +0.000 A 
ATOM      5  C   UNL     1       5.065   4.288  18.649  0.00  0.00    +0.000 A 
ATOM      6  C   UNL     1       4.890   3.269  19.586  0.00  0.00    +0.000 A 
ATOM      7  C   UNL     1       3.596   2.881  19.986  0.00  0.00    +0.000 A 
ATOM      8  C   UNL     1       2.439   3.483  19.449  0.00  0.00    +0.000 A 
ATOM      9  C   UNL     1       3.827   6.217  17.511  0.00  0.00    +0.000 C 
ATOM     10  O   UNL     1       4.780   6.837  17.078  0.00  0.00    +0.000 OA
ENDROOT
BRANCH   1  15
ATOM     11  C   UNL     1       1.137   9.496  19.694  0.00  0.00    +0.000 A 
ATOM     12  C   UNL     1       0.724   8.759  20.815  0.00  0.00    +0.000 A 
ATOM     13  C   UNL     1       1.268   7.510  21.091  0.00  0.00    +0.000 A 
ATOM     14  C   UNL     1       2.129   6.916  20.179  0.00  0.00    +0.000 A 
ATOM     15  C   UNL     1       2.332   7.517  18.928  0.00  0.00    +0.000 A 
ATOM     16  C   UNL     1       1.947   8.855  18.745  0.00  0.00    +0.000 A 
BRANCH  11  17
ATOM     17  C   UNL     1       0.604  10.888  19.412  0.00  0.00    +0.000 C 
BRANCH  17  18
ATOM     18  S   UNL     1      -1.194  10.907  19.089  0.00  0.00    +0.000 S 
BRANCH  18  23
ATOM     19  C   UNL     1      -4.424  11.492  16.698  0.00  0.00    +0.000 C 
ATOM     20  N   UNL     1      -3.763  10.200  16.790  0.00  0.00    +0.000 N 
ATOM     21  C   UNL     1      -2.978   9.733  15.581  0.00  0.00    +0.000 C 
ATOM     22  C   UNL     1      -2.429  10.109  16.827  0.00  0.00    +0.000 C 
ATOM     23  C   UNL     1      -1.301  10.275  17.492  0.00  0.00    +0.000 C 
ENDBRANCH  18  23
ENDBRANCH  17  18
ENDBRANCH  11  17
ENDBRANCH   1  15
BRANCH   8  24
ATOM     24  C   UNL     1       1.086   3.105  19.999  0.00  0.00    +0.000 C 
ATOM     25  F   UNL     1       0.325   4.162  20.390  0.00  0.00    +0.000 F 
ATOM     26  F   UNL     1       0.335   2.429  19.088  0.00  0.00    +0.000 F 
ATOM     27  F   UNL     1       1.177   2.290  21.086  0.00  0.00    +0.000 F 
ENDBRANCH   8  24
TORSDOF 5
ENDMDL
MODEL 3
REMARK VINA RESULT:      -8.0      1.825      2.293
REMARK  Name = 
REMARK  6 active torsions:
REMARK  status: ('A' for Active; 'I' for Inactive)
REMARK    1  A    between atoms: C_1  and  N_2
REMARK    2  A    between atoms: C_5  and  S_6
REMARK    3  A    between atoms: S_6  and  C_7
REMARK    4  A    between atoms: C_7  and  C_8
REMARK    5  A    between atoms: C_12  and  N_13
REMARK    6  A    between atoms: C_20  and  C_21
REMARK                            x       y       z     vdW  Elec       q    Type
REMARK                         _______ _______ _______ _____ _____    ______ ____
ROOT
ATOM      1  N   UNL     1       3.254   5.883  20.182  0.00  0.00    +0.000 N 
ATOM      2  C   UNL     1       4.413   5.586  19.305  0.00  0.00    +0.000 C 
ATOM      3  C   UNL     1       3.947   4.369  18.567  0.00  0.00    +0.000 A 
ATOM      4  C   UNL     1       3.026   3.710  19.386  0.00  0.00    +0.000 A 
ATOM      5  C   UNL     1       2.293   2.616  18.969  0.00  0.00    +0.000 A 
ATOM      6  C   UNL     1       2.490   2.180  17.658  0.00  0.00    +0.000 A 
ATOM      7  C   UNL     1       3.395   2.848  16.811  0.00  0.00    +0.000 A 
ATOM      8  C   UNL     1       4.145   3.960  17.251  0.00  0.00    +0.000 A 
ATOM      9  C   UNL     1       2.696   4.619  20.511  0.00  0.00    +0.000 C 
ATOM     10  O   UNL     1       1.922   4.339  21.407  0.00  0.00    +0.000 OA
ENDROOT
BRANCH   1  15
ATOM     11  C   UNL     1       1.322   9.004  19.832  0.00  0.00    +0.000 A 
ATOM     12  C   UNL     1       1.761   9.344  18.543  0.00  0.00    +0.000 A 
ATOM     13  C   UNL     1       2.293   8.383  17.692  0.00  0.00    +0.000 A 
ATOM     14  C   UNL     1       2.526   7.099  18.161  0.00  0.00    +0.000 A 
ATOM     15  C   UNL     1       2.352   6.819  19.524  0.00  0.00    +0.000 A 
ATOM     16  C   UNL     1       1.631   7.725  20.319  0.00  0.00    +0.000 A 
BRANCH  11  17
ATOM     17  C   UNL     1       0.678  10.024  20.752  0.00  0.00    +0.000 C 
BRANCH  17  18
ATOM     18  S   UNL     1       0.404  11.638  19.942  0.00  0.00    +0.000 S 
BRANCH  18  23
ATOM     19  C   UNL     1      -1.943  10.082  17.015  0.00  0.00    +0.000 C 
ATOM     20  N   UNL     1      -2.182  11.406  17.565  0.00  0.00    +0.000 N 
ATOM     21  C   UNL     1      -3.414  11.590  18.429  0.00  0.00    +0.000 C 
ATOM     22  C   UNL     1      -2.076  11.637  18.879  0.00  0.00    +0.000 C 
ATOM     23  C   UNL     1      -1.312  11.780  19.945  0.00  0.00    +0.000 C 
ENDBRANCH  18  23
ENDBRANCH  17  18
ENDBRANCH  11  17
ENDBRANCH   1  15
BRANCH   8  24
ATOM     24  C   UNL     1       5.012   4.703  16.266  0.00  0.00    +0.000 C 
ATOM     25  F   UNL     1       5.045   4.152  15.022  0.00  0.00    +0.000 F 
ATOM     26  F   UNL     1       4.598   5.987  16.086  0.00  0.00    +0.000 F 
ATOM     27  F   UNL     1       6.309   4.782  16.671  0.00  0.00    +0.000 F 
ENDBRANCH   8  24
TORSDOF 5
ENDMDL
MODEL 4
REMARK VINA RESULT:      -7.9      3.617      4.350
REMARK  Name = 
REMARK  6 active torsions:
REMARK  status: ('A' for Active; 'I' for Inactive)
REMARK    1  A    between atoms: C_1  and  N_2
REMARK    2  A    between atoms: C_5  and  S_6
REMARK    3  A    between atoms: S_6  and  C_7
REMARK    4  A    between atoms: C_7  and  C_8
REMARK    5  A    between atoms: C_12  and  N_13
REMARK    6  A    between atoms: C_20  and  C_21
REMARK                            x       y       z     vdW  Elec       q    Type
REMARK                         _______ _______ _______ _____ _____    ______ ____
ROOT
ATOM      1  N   UNL     1       2.677   6.185  17.486  0.00  0.00    +0.000 N 
ATOM      2  C   UNL     1       1.748   5.067  17.779  0.00  0.00    +0.000 C 
ATOM      3  C   UNL     1       2.612   4.139  18.577  0.00  0.00    +0.000 A 
ATOM      4  C   UNL     1       3.935   4.358  18.185  0.00  0.00    +0.000 A 
ATOM      5  C   UNL     1       5.016   3.766  18.810  0.00  0.00    +0.000 A 
ATOM      6  C   UNL     1       4.744   2.928  19.891  0.00  0.00    +0.000 A 
ATOM      7  C   UNL     1       3.418   2.717  20.317  0.00  0.00    +0.000 A 
ATOM      8  C   UNL     1       2.322   3.320  19.664  0.00  0.00    +0.000 A 
ATOM      9  C   UNL     1       3.958   5.586  17.353  0.00  0.00    +0.000 C 
ATOM     10  O   UNL     1       4.965   6.048  16.849  0.00  0.00    +0.000 OA
ENDROOT
BRANCH   1  15
ATOM     11  C   UNL     1       1.350   9.260  19.030  0.00  0.00    +0.000 A 
ATOM     12  C   UNL     1       1.066   8.719  20.293  0.00  0.00    +0.000 A 
ATOM     13  C   UNL     1       1.688   7.555  20.730  0.00  0.00    +0.000 A 
ATOM     14  C   UNL     1       2.496   6.837  19.860  0.00  0.00    +0.000 A 
ATOM     15  C   UNL     1       2.566   7.214  18.511  0.00  0.00    +0.000 A 
ATOM     16  C   UNL     1       2.106   8.487  18.136  0.00  0.00    +0.000 A 
BRANCH  11  17
ATOM     17  C   UNL     1       0.732  10.563  18.561  0.00  0.00    +0.000 C 
BRANCH  17  18
ATOM     18  S   UNL     1      -0.992  10.775  19.126  0.00  0.00    +0.000 S 
BRANCH  18  23
ATOM     19  C   UNL     1      -4.844  12.057  19.032  0.00  0.00    +0.000 C 
ATOM     20  N   UNL     1      -4.358  11.029  18.127  0.00  0.00    +0.000 N 
ATOM     21  C   UNL     1      -4.220  11.396  16.664  0.00  0.00    +0.000 C 
ATOM     22  C   UNL     1      -3.154  11.129  17.551  0.00  0.00    +0.000 C 
ATOM     23  C   UNL     1      -1.840  11.080  17.659  0.00  0.00    +0.000 C 
ENDBRANCH  18  23
ENDBRANCH  17  18
ENDBRANCH  11  17
ENDBRANCH   1  15
BRANCH   8  24
ATOM     24  C   UNL     1       0.936   3.147  20.235  0.00  0.00    +0.000 C 
ATOM     25  F   UNL     1       0.902   2.515  21.440  0.00  0.00    +0.000 F 
ATOM     26  F   UNL     1       0.310   4.339  20.429  0.00  0.00    +0.000 F 
ATOM     27  F   UNL     1       0.123   2.427  19.415  0.00  0.00    +0.000 F 
ENDBRANCH   8  24
TORSDOF 5
ENDMDL
MODEL 5
REMARK VINA RESULT:      -7.9      2.349      3.186
REMARK  Name = 
REMARK  6 active torsions:
REMARK  status: ('A' for Active; 'I' for Inactive)
REMARK    1  A    between atoms: C_1  and  N_2
REMARK    2  A    between atoms: C_5  and  S_6
REMARK    3  A    between atoms: S_6  and  C_7
REMARK    4  A    between atoms: C_7  and  C_8
REMARK    5  A    between atoms: C_12  and  N_13
REMARK    6  A    between atoms: C_20  and  C_21
REMARK                            x       y       z     vdW  Elec       q    Type
REMARK                         _______ _______ _______ _____ _____    ______ ____
ROOT
ATOM      1  N   UNL     1       3.747   4.624  19.293  0.00  0.00    +0.000 N 
ATOM      2  C   UNL     1       5.135   5.142  19.333  0.00  0.00    +0.000 C 
ATOM      3  C   UNL     1       5.572   4.985  17.909  0.00  0.00    +0.000 A 
ATOM      4  C   UNL     1       4.837   3.932  17.359  0.00  0.00    +0.000 A 
ATOM      5  C   UNL     1       4.887   3.595  16.020  0.00  0.00    +0.000 A 
ATOM      6  C   UNL     1       5.706   4.371  15.199  0.00  0.00    +0.000 A 
ATOM      7  C   UNL     1       6.434   5.452  15.731  0.00  0.00    +0.000 A 
ATOM      8  C   UNL     1       6.382   5.781  17.103  0.00  0.00    +0.000 A 
ATOM      9  C   UNL     1       3.757   3.592  18.317  0.00  0.00    +0.000 C 
ATOM     10  O   UNL     1       2.940   2.709  18.135  0.00  0.00    +0.000 OA
ENDROOT
BRANCH   1  15
ATOM     11  C   UNL     1       1.917   7.723  20.096  0.00  0.00    +0.000 A 
ATOM     12  C   UNL     1       2.207   8.416  18.910  0.00  0.00    +0.000 A 
ATOM     13  C   UNL     1       2.591   7.736  17.760  0.00  0.00    +0.000 A 
ATOM     14  C   UNL     1       2.826   6.370  17.812  0.00  0.00    +0.000 A 
ATOM     15  C   UNL     1       2.810   5.713  19.050  0.00  0.00    +0.000 A 
ATOM     16  C   UNL     1       2.230   6.357  20.155  0.00  0.00    +0.000 A 
BRANCH  11  17
ATOM     17  C   UNL     1       1.433   8.439  21.343  0.00  0.00    +0.000 C 
BRANCH  17  18
ATOM     18  S   UNL     1      -0.345   8.850  21.280  0.00  0.00    +0.000 S 
BRANCH  18  23
ATOM     19  C   UNL     1      -2.205  10.011  17.861  0.00  0.00    +0.000 C 
ATOM     20  N   UNL     1      -0.883  10.498  18.216  0.00  0.00    +0.000 N 
ATOM     21  C   UNL     1      -0.762  11.953  18.622  0.00  0.00    +0.000 C 
ATOM     22  C   UNL     1      -0.589  10.842  19.476  0.00  0.00    +0.000 C 
ATOM     23  C   UNL     1      -0.341  10.478  20.720  0.00  0.00    +0.000 C 
ENDBRANCH  18  23
ENDBRANCH  17  18
ENDBRANCH  11  17
ENDBRANCH   1  15
BRANCH   8  24
ATOM     24  C   UNL     1       7.093   7.018  17.593  0.00  0.00    +0.000 C 
ATOM     25  F   UNL     1       8.019   7.511  16.727  0.00  0.00    +0.000 F 
ATOM     26  F   UNL     1       6.231   8.043  17.831  0.00  0.00    +0.000 F 
ATOM     27  F   UNL     1       7.755   6.806  18.764  0.00  0.00    +0.000 F 
ENDBRANCH   8  24
TORSDOF 5
ENDMDL
MODEL 6
REMARK VINA RESULT:      -7.9      2.464      3.209
REMARK  Name = 
REMARK  6 active torsions:
REMARK  status: ('A' for Active; 'I' for Inactive)
REMARK    1  A    between atoms: C_1  and  N_2
REMARK    2  A    between atoms: C_5  and  S_6
REMARK    3  A    between atoms: S_6  and  C_7
REMARK    4  A    between atoms: C_7  and  C_8
REMARK    5  A    between atoms: C_12  and  N_13
REMARK    6  A    between atoms: C_20  and  C_21
REMARK                            x       y       z     vdW  Elec       q    Type
REMARK                         _______ _______ _______ _____ _____    ______ ____
ROOT
ATOM      1  N   UNL     1       4.032   4.736  19.212  0.00  0.00    +0.000 N 
ATOM      2  C   UNL     1       5.398   5.305  19.314  0.00  0.00    +0.000 C 
ATOM      3  C   UNL     1       5.928   5.104  17.928  0.00  0.00    +0.000 A 
ATOM      4  C   UNL     1       5.263   4.003  17.381  0.00  0.00    +0.000 A 
ATOM      5  C   UNL     1       5.408   3.612  16.064  0.00  0.00    +0.000 A 
ATOM      6  C   UNL     1       6.250   4.380  15.261  0.00  0.00    +0.000 A 
ATOM      7  C   UNL     1       6.908   5.509  15.788  0.00  0.00    +0.000 A 
ATOM      8  C   UNL     1       6.759   5.893  17.138  0.00  0.00    +0.000 A 
ATOM      9  C   UNL     1       4.137   3.665  18.285  0.00  0.00    +0.000 C 
ATOM     10  O   UNL     1       3.363   2.746  18.094  0.00  0.00    +0.000 OA
ENDROOT
BRANCH   1  15
ATOM     11  C   UNL     1       1.925   7.700  19.822  0.00  0.00    +0.000 A 
ATOM     12  C   UNL     1       2.341   8.449  18.709  0.00  0.00    +0.000 A 
ATOM     13  C   UNL     1       2.925   7.832  17.610  0.00  0.00    +0.000 A 
ATOM     14  C   UNL     1       3.231   6.480  17.659  0.00  0.00    +0.000 A 
ATOM     15  C   UNL     1       3.077   5.780  18.865  0.00  0.00    +0.000 A 
ATOM     16  C   UNL     1       2.308   6.352  19.891  0.00  0.00    +0.000 A 
BRANCH  11  17
ATOM     17  C   UNL     1       1.226   8.346  21.004  0.00  0.00    +0.000 C 
BRANCH  17  18
ATOM     18  S   UNL     1       0.869  10.117  20.736  0.00  0.00    +0.000 S 
BRANCH  18  23
ATOM     19  C   UNL     1      -0.392  13.118  18.307  0.00  0.00    +0.000 C 
ATOM     20  N   UNL     1      -1.287  12.470  19.251  0.00  0.00    +0.000 N 
ATOM     21  C   UNL     1      -2.373  11.580  18.683  0.00  0.00    +0.000 C 
ATOM     22  C   UNL     1      -1.258  11.145  19.432  0.00  0.00    +0.000 C 
ATOM     23  C   UNL     1      -0.643  10.081  19.913  0.00  0.00    +0.000 C 
ENDBRANCH  18  23
ENDBRANCH  17  18
ENDBRANCH  11  17
ENDBRANCH   1  15
BRANCH   8  24
ATOM     24  C   UNL     1       7.397   7.174  17.615  0.00  0.00    +0.000 C 
ATOM     25  F   UNL     1       6.512   8.166  17.906  0.00  0.00    +0.000 F 
ATOM     26  F   UNL     1       8.128   6.991  18.748  0.00  0.00    +0.000 F 
ATOM     27  F   UNL     1       8.255   7.700  16.698  0.00  0.00    +0.000 F 
ENDBRANCH   8  24
TORSDOF 5
ENDMDL
MODEL 7
REMARK VINA RESULT:      -7.9      5.082      7.096
REMARK  Name = 
REMARK  6 active torsions:
REMARK  status: ('A' for Active; 'I' for Inactive)
REMARK    1  A    between atoms: C_1  and  N_2
REMARK    2  A    between atoms: C_5  and  S_6
REMARK    3  A    between atoms: S_6  and  C_7
REMARK    4  A    between atoms: C_7  and  C_8
REMARK    5  A    between atoms: C_12  and  N_13
REMARK    6  A    between atoms: C_20  and  C_21
REMARK                            x       y       z     vdW  Elec       q    Type
REMARK                         _______ _______ _______ _____ _____    ______ ____
ROOT
ATOM      1  N   UNL     1       6.023   5.450  15.698  0.00  0.00    +0.000 N 
ATOM      2  C   UNL     1       4.812   6.284  15.890  0.00  0.00    +0.000 C 
ATOM      3  C   UNL     1       4.055   5.510  16.924  0.00  0.00    +0.000 A 
ATOM      4  C   UNL     1       4.422   4.168  16.794  0.00  0.00    +0.000 A 
ATOM      5  C   UNL     1       4.016   3.185  17.676  0.00  0.00    +0.000 A 
ATOM      6  C   UNL     1       3.216   3.583  18.747  0.00  0.00    +0.000 A 
ATOM      7  C   UNL     1       2.858   4.935  18.909  0.00  0.00    +0.000 A 
ATOM      8  C   UNL     1       3.272   5.929  17.996  0.00  0.00    +0.000 A 
ATOM      9  C   UNL     1       5.591   4.110  15.882  0.00  0.00    +0.000 C 
ATOM     10  O   UNL     1       6.150   3.079  15.558  0.00  0.00    +0.000 OA
ENDROOT
BRANCH   1  15
ATOM     11  C   UNL     1       7.852   7.864  17.802  0.00  0.00    +0.000 A 
ATOM     12  C   UNL     1       7.957   7.060  18.948  0.00  0.00    +0.000 A 
ATOM     13  C   UNL     1       7.835   5.679  18.866  0.00  0.00    +0.000 A 
ATOM     14  C   UNL     1       7.468   5.088  17.666  0.00  0.00    +0.000 A 
ATOM     15  C   UNL     1       7.088   5.898  16.586  0.00  0.00    +0.000 A 
ATOM     16  C   UNL     1       7.407   7.265  16.614  0.00  0.00    +0.000 A 
BRANCH  11  17
ATOM     17  C   UNL     1       8.047   9.368  17.859  0.00  0.00    +0.000 C 
BRANCH  17  18
ATOM     18  S   UNL     1       9.130   9.891  19.233  0.00  0.00    +0.000 S 
BRANCH  18  23
ATOM     19  C   UNL     1       8.443  13.859  18.706  0.00  0.00    +0.000 C 
ATOM     20  N   UNL     1       9.018  13.035  17.656  0.00  0.00    +0.000 N 
ATOM     21  C   UNL     1      10.477  13.262  17.313  0.00  0.00    +0.000 C 
ATOM     22  C   UNL     1       9.944  12.110  17.933  0.00  0.00    +0.000 C 
ATOM     23  C   UNL     1      10.253  10.939  18.456  0.00  0.00    +0.000 C 
ENDBRANCH  18  23
ENDBRANCH  17  18
ENDBRANCH  11  17
ENDBRANCH   1  15
BRANCH   8  24
ATOM     24  C   UNL     1       2.952   7.375  18.284  0.00  0.00    +0.000 C 
ATOM     25  F   UNL     1       1.892   7.864  17.584  0.00  0.00    +0.000 F 
ATOM     26  F   UNL     1       2.654   7.582  19.595  0.00  0.00    +0.000 F 
ATOM     27  F   UNL     1       3.996   8.203  18.003  0.00  0.00    +0.000 F 
ENDBRANCH   8  24
TORSDOF 5
ENDMDL
MODEL 8
REMARK VINA RESULT:      -7.8      3.603      4.415
REMARK  Name = 
REMARK  6 active torsions:
REMARK  status: ('A' for Active; 'I' for Inactive)
REMARK    1  A    between atoms: C_1  and  N_2
REMARK    2  A    between atoms: C_5  and  S_6
REMARK    3  A    between atoms: S_6  and  C_7
REMARK    4  A    between atoms: C_7  and  C_8
REMARK    5  A    between atoms: C_12  and  N_13
REMARK    6  A    between atoms: C_20  and  C_21
REMARK                            x       y       z     vdW  Elec       q    Type
REMARK                         _______ _______ _______ _____ _____    ______ ____
ROOT
ATOM      1  N   UNL     1       2.672   6.215  17.528  0.00  0.00    +0.000 N 
ATOM      2  C   UNL     1       1.745   5.095  17.821  0.00  0.00    +0.000 C 
ATOM      3  C   UNL     1       2.617   4.158  18.599  0.00  0.00    +0.000 A 
ATOM      4  C   UNL     1       3.936   4.380  18.194  0.00  0.00    +0.000 A 
ATOM      5  C   UNL     1       5.023   3.781  18.800  0.00  0.00    +0.000 A 
ATOM      6  C   UNL     1       4.763   2.932  19.876  0.00  0.00    +0.000 A 
ATOM      7  C   UNL     1       3.442   2.718  20.316  0.00  0.00    +0.000 A 
ATOM      8  C   UNL     1       2.339   3.329  19.682  0.00  0.00    +0.000 A 
ATOM      9  C   UNL     1       3.951   5.616  17.374  0.00  0.00    +0.000 C 
ATOM     10  O   UNL     1       4.952   6.082  16.863  0.00  0.00    +0.000 OA
ENDROOT
BRANCH   1  15
ATOM     11  C   UNL     1       1.549   9.397  19.016  0.00  0.00    +0.000 A 
ATOM     12  C   UNL     1       1.080   8.872  20.230  0.00  0.00    +0.000 A 
ATOM     13  C   UNL     1       1.520   7.638  20.694  0.00  0.00    +0.000 A 
ATOM     14  C   UNL     1       2.326   6.846  19.889  0.00  0.00    +0.000 A 
ATOM     15  C   UNL     1       2.574   7.234  18.565  0.00  0.00    +0.000 A 
ATOM     16  C   UNL     1       2.300   8.557  18.180  0.00  0.00    +0.000 A 
BRANCH  11  17
ATOM     17  C   UNL     1       1.132  10.770  18.524  0.00  0.00    +0.000 C 
BRANCH  17  18
ATOM     18  S   UNL     1      -0.318  11.433  19.415  0.00  0.00    +0.000 S 
BRANCH  18  23
ATOM     19  C   UNL     1      -3.427   9.393  17.784  0.00  0.00    +0.000 C 
ATOM     20  N   UNL     1      -2.484  10.136  16.964  0.00  0.00    +0.000 N 
ATOM     21  C   UNL     1      -2.988  11.399  16.295  0.00  0.00    +0.000 C 
ATOM     22  C   UNL     1      -2.041  11.340  17.341  0.00  0.00    +0.000 C 
ATOM     23  C   UNL     1      -1.289  12.069  18.144  0.00  0.00    +0.000 C 
ENDBRANCH  18  23
ENDBRANCH  17  18
ENDBRANCH  11  17
ENDBRANCH   1  15
BRANCH   8  24
ATOM     24  C   UNL     1       0.960   3.151  20.267  0.00  0.00    +0.000 C 
ATOM     25  F   UNL     1       0.087   2.498  19.454  0.00  0.00    +0.000 F 
ATOM     26  F   UNL     1       0.984   2.440  21.427  0.00  0.00    +0.000 F 
ATOM     27  F   UNL     1       0.368   4.339  20.570  0.00  0.00    +0.000 F 
ENDBRANCH   8  24
TORSDOF 5
ENDMDL
MODEL 9
REMARK VINA RESULT:      -7.8      2.015      2.762
REMARK  Name = 
REMARK  6 active torsions:
REMARK  status: ('A' for Active; 'I' for Inactive)
REMARK    1  A    between atoms: C_1  and  N_2
REMARK    2  A    between atoms: C_5  and  S_6
REMARK    3  A    between atoms: S_6  and  C_7
REMARK    4  A    between atoms: C_7  and  C_8
REMARK    5  A    between atoms: C_12  and  N_13
REMARK    6  A    between atoms: C_20  and  C_21
REMARK                            x       y       z     vdW  Elec       q    Type
REMARK                         _______ _______ _______ _____ _____    ______ ____
ROOT
ATOM      1  N   UNL     1       3.944   4.742  19.255  0.00  0.00    +0.000 N 
ATOM      2  C   UNL     1       5.321   5.287  19.327  0.00  0.00    +0.000 C 
ATOM      3  C   UNL     1       5.819   5.073  17.930  0.00  0.00    +0.000 A 
ATOM      4  C   UNL     1       5.123   3.983  17.401  0.00  0.00    +0.000 A 
ATOM      5  C   UNL     1       5.233   3.586  16.082  0.00  0.00    +0.000 A 
ATOM      6  C   UNL     1       6.072   4.337  15.259  0.00  0.00    +0.000 A 
ATOM      7  C   UNL     1       6.760   5.455  15.769  0.00  0.00    +0.000 A 
ATOM      8  C   UNL     1       6.647   5.846  17.121  0.00  0.00    +0.000 A 
ATOM      9  C   UNL     1       4.011   3.667  18.330  0.00  0.00    +0.000 C 
ATOM     10  O   UNL     1       3.217   2.762  18.157  0.00  0.00    +0.000 OA
ENDROOT
BRANCH   1  15
ATOM     11  C   UNL     1       1.886   7.732  19.907  0.00  0.00    +0.000 A 
ATOM     12  C   UNL     1       2.301   8.482  18.795  0.00  0.00    +0.000 A 
ATOM     13  C   UNL     1       2.865   7.864  17.685  0.00  0.00    +0.000 A 
ATOM     14  C   UNL     1       3.152   6.508  17.723  0.00  0.00    +0.000 A 
ATOM     15  C   UNL     1       3.000   5.802  18.925  0.00  0.00    +0.000 A 
ATOM     16  C   UNL     1       2.250   6.378  19.963  0.00  0.00    +0.000 A 
BRANCH  11  17
ATOM     17  C   UNL     1       1.209   8.379  21.100  0.00  0.00    +0.000 C 
BRANCH  17  18
ATOM     18  S   UNL     1      -0.084   9.576  20.620  0.00  0.00    +0.000 S 
BRANCH  18  23
ATOM     19  C   UNL     1      -2.419  12.894  20.810  0.00  0.00    +0.000 C 
ATOM     20  N   UNL     1      -1.156  12.804  21.525  0.00  0.00    +0.000 N 
ATOM     21  C   UNL     1      -1.216  12.699  23.035  0.00  0.00    +0.000 C 
ATOM     22  C   UNL     1      -0.797  11.679  22.153  0.00  0.00    +0.000 C 
ATOM     23  C   UNL     1      -0.378  10.429  22.086  0.00  0.00    +0.000 C 
ENDBRANCH  18  23
ENDBRANCH  17  18
ENDBRANCH  11  17
ENDBRANCH   1  15
BRANCH   8  24
ATOM     24  C   UNL     1       7.317   7.116  17.581  0.00  0.00    +0.000 C 
ATOM     25  F   UNL     1       8.187   7.648  16.680  0.00  0.00    +0.000 F 
ATOM     26  F   UNL     1       6.418   8.102  17.848  0.00  0.00    +0.000 F 
ATOM     27  F   UNL     1       8.031   6.941  18.727  0.00  0.00    +0.000 F 
ENDBRANCH   8  24
TORSDOF 5
ENDMDL
