MODEL 1
REMARK VINA RESULT:      -8.4      0.000      0.000
REMARK  Name = 
REMARK  3 active torsions:
REMARK  status: ('A' for Active; 'I' for Inactive)
REMARK    1  A    between atoms: C_2  and  C_17
REMARK    2  A    between atoms: N_3  and  C_4
REMARK    3  A    between atoms: C_7  and  C_8
REMARK                            x       y       z     vdW  Elec       q    Type
REMARK                         _______ _______ _______ _____ _____    ______ ____
ROOT
ATOM      1  O   UNL     1       1.378  11.369  21.487  0.00  0.00    +0.000 OA
ATOM      2  C   UNL     1       0.319  11.058  20.960  0.00  0.00    +0.000 C 
ATOM      3  N   UNL     1       0.169  10.059  20.010  0.00  0.00    +0.000 N 
ATOM      4  H   UNL     1      -0.771   9.985  19.642  0.00  0.00    +0.000 HD
ENDROOT
BRANCH   2   5
ATOM      5  C   UNL     1      -0.957  11.715  21.288  0.00  0.00    +0.000 A 
ATOM      6  C   UNL     1      -1.597  11.821  22.510  0.00  0.00    +0.000 A 
ATOM      7  C   UNL     1      -2.912  12.408  22.413  0.00  0.00    +0.000 A 
ATOM      8  C   UNL     1      -3.921  12.637  23.379  0.00  0.00    +0.000 A 
ATOM      9  F   UNL     1      -3.700  12.332  24.666  0.00  0.00    +0.000 F 
ATOM     10  C   UNL     1      -5.167  13.156  23.021  0.00  0.00    +0.000 A 
ATOM     11  C   UNL     1      -5.433  13.480  21.697  0.00  0.00    +0.000 A 
ATOM     12  C   UNL     1      -4.454  13.311  20.725  0.00  0.00    +0.000 A 
ATOM     13  C   UNL     1      -3.208  12.769  21.097  0.00  0.00    +0.000 A 
ATOM     14  S   UNL     1      -1.885  12.469  20.057  0.00  0.00    +0.000 S 
ENDBRANCH   2   5
BRANCH   3  15
ATOM     15  C   UNL     1       1.089   9.145  19.479  0.00  0.00    +0.000 A 
ATOM     16  C   UNL     1       1.641   9.220  18.204  0.00  0.00    +0.000 A 
ATOM     17  C   UNL     1       2.525   8.224  17.765  0.00  0.00    +0.000 A 
ATOM     18  C   UNL     1       2.819   7.123  18.578  0.00  0.00    +0.000 A 
ATOM     19  C   UNL     1       2.321   7.086  19.883  0.00  0.00    +0.000 A 
ATOM     20  C   UNL     1       1.464   8.093  20.328  0.00  0.00    +0.000 A 
BRANCH  18  21
ATOM     21  C   UNL     1       3.616   5.954  18.111  0.00  0.00    +0.000 C 
ATOM     22  O   UNL     1       4.840   6.053  18.103  0.00  0.00    +0.000 OA
ATOM     23  N   UNL     1       2.959   4.773  17.795  0.00  0.00    +0.000 N 
ATOM     24  C   UNL     1       1.539   4.482  17.859  0.00  0.00    +0.000 C 
ATOM     25  C   UNL     1       1.483   3.025  18.268  0.00  0.00    +0.000 C 
ATOM     26  C   UNL     1       2.707   2.418  17.595  0.00  0.00    +0.000 C 
ATOM     27  C   UNL     1       3.714   3.563  17.510  0.00  0.00    +0.000 C 
ENDBRANCH  18  21
ENDBRANCH   3  15
TORSDOF 3
ENDMDL
MODEL 2
REMARK VINA RESULT:      -8.2      1.241      1.580
REMARK  Name = 
REMARK  3 active torsions:
REMARK  status: ('A' for Active; 'I' for Inactive)
REMARK    1  A    between atoms: C_2  and  C_17
REMARK    2  A    between atoms: N_3  and  C_4
REMARK    3  A    between atoms: C_7  and  C_8
REMARK                            x       y       z     vdW  Elec       q    Type
REMARK                         _______ _______ _______ _____ _____    ______ ____
ROOT
ATOM      1  O   UNL     1       1.318  11.588  21.192  0.00  0.00    +0.000 OA
ATOM      2  C   UNL     1       0.243  11.051  20.964  0.00  0.00    +0.000 C 
ATOM      3  N   UNL     1       0.075   9.902  20.206  0.00  0.00    +0.000 N 
ATOM      4  H   UNL     1      -0.894   9.640  20.073  0.00  0.00    +0.000 HD
ENDROOT
BRANCH   2   5
ATOM      5  C   UNL     1      -1.032  11.566  21.489  0.00  0.00    +0.000 A 
ATOM      6  C   UNL     1      -1.983  12.350  20.860  0.00  0.00    +0.000 A 
ATOM      7  C   UNL     1      -3.036  12.787  21.747  0.00  0.00    +0.000 A 
ATOM      8  C   UNL     1      -4.147  13.639  21.549  0.00  0.00    +0.000 A 
ATOM      9  F   UNL     1      -4.390  14.157  20.336  0.00  0.00    +0.000 F 
ATOM     10  C   UNL     1      -4.997  13.983  22.604  0.00  0.00    +0.000 A 
ATOM     11  C   UNL     1      -4.775  13.470  23.874  0.00  0.00    +0.000 A 
ATOM     12  C   UNL     1      -3.719  12.594  24.100  0.00  0.00    +0.000 A 
ATOM     13  C   UNL     1      -2.858  12.271  23.032  0.00  0.00    +0.000 A 
ATOM     14  S   UNL     1      -1.502  11.234  23.106  0.00  0.00    +0.000 S 
ENDBRANCH   2   5
BRANCH   3  15
ATOM     15  C   UNL     1       1.009   9.053  19.597  0.00  0.00    +0.000 A 
ATOM     16  C   UNL     1       1.471   9.183  18.291  0.00  0.00    +0.000 A 
ATOM     17  C   UNL     1       2.380   8.248  17.775  0.00  0.00    +0.000 A 
ATOM     18  C   UNL     1       2.790   7.152  18.545  0.00  0.00    +0.000 A 
ATOM     19  C   UNL     1       2.383   7.064  19.878  0.00  0.00    +0.000 A 
ATOM     20  C   UNL     1       1.500   8.011  20.398  0.00  0.00    +0.000 A 
BRANCH  18  21
ATOM     21  C   UNL     1       3.621   6.041  18.003  0.00  0.00    +0.000 C 
ATOM     22  O   UNL     1       4.836   6.209  17.926  0.00  0.00    +0.000 OA
ATOM     23  N   UNL     1       3.013   4.832  17.696  0.00  0.00    +0.000 N 
ATOM     24  C   UNL     1       1.616   4.461  17.834  0.00  0.00    +0.000 C 
ATOM     25  C   UNL     1       1.664   2.994  18.209  0.00  0.00    +0.000 C 
ATOM     26  C   UNL     1       2.878   2.471  17.452  0.00  0.00    +0.000 C 
ATOM     27  C   UNL     1       3.815   3.673  17.337  0.00  0.00    +0.000 C 
ENDBRANCH  18  21
ENDBRANCH   3  15
TORSDOF 3
ENDMDL
MODEL 3
REMARK VINA RESULT:      -7.9      3.512      9.766
REMARK  Name = 
REMARK  3 active torsions:
REMARK  status: ('A' for Active; 'I' for Inactive)
REMARK    1  A    between atoms: C_2  and  C_17
REMARK    2  A    between atoms: N_3  and  C_4
REMARK    3  A    between atoms: C_7  and  C_8
REMARK                            x       y       z     vdW  Elec       q    Type
REMARK                         _______ _______ _______ _____ _____    ______ ____
ROOT
ATOM      1  O   UNL     1       1.858   8.875  18.971  0.00  0.00    +0.000 OA
ATOM      2  C   UNL     1       1.676   8.118  19.914  0.00  0.00    +0.000 C 
ATOM      3  N   UNL     1       1.020   8.457  21.088  0.00  0.00    +0.000 N 
ATOM      4  H   UNL     1       1.019   7.720  21.782  0.00  0.00    +0.000 HD
ENDROOT
BRANCH   2   5
ATOM      5  C   UNL     1       2.132   6.719  19.913  0.00  0.00    +0.000 A 
ATOM      6  C   UNL     1       1.697   5.657  20.686  0.00  0.00    +0.000 A 
ATOM      7  C   UNL     1       2.490   4.463  20.508  0.00  0.00    +0.000 A 
ATOM      8  C   UNL     1       2.446   3.195  21.135  0.00  0.00    +0.000 A 
ATOM      9  F   UNL     1       1.500   2.929  22.047  0.00  0.00    +0.000 F 
ATOM     10  C   UNL     1       3.390   2.207  20.845  0.00  0.00    +0.000 A 
ATOM     11  C   UNL     1       4.387   2.448  19.910  0.00  0.00    +0.000 A 
ATOM     12  C   UNL     1       4.438   3.665  19.239  0.00  0.00    +0.000 A 
ATOM     13  C   UNL     1       3.492   4.660  19.556  0.00  0.00    +0.000 A 
ATOM     14  S   UNL     1       3.394   6.218  18.862  0.00  0.00    +0.000 S 
ENDBRANCH   2   5
BRANCH   3  15
ATOM     15  C   UNL     1       0.366   9.636  21.472  0.00  0.00    +0.000 A 
ATOM     16  C   UNL     1       0.426  10.841  20.780  0.00  0.00    +0.000 A 
ATOM     17  C   UNL     1      -0.241  11.969  21.282  0.00  0.00    +0.000 A 
ATOM     18  C   UNL     1      -0.925  11.908  22.503  0.00  0.00    +0.000 A 
ATOM     19  C   UNL     1      -1.044  10.681  23.158  0.00  0.00    +0.000 A 
ATOM     20  C   UNL     1      -0.404   9.554  22.642  0.00  0.00    +0.000 A 
BRANCH  18  21
ATOM     21  C   UNL     1      -1.511  13.105  23.168  0.00  0.00    +0.000 C 
ATOM     22  O   UNL     1      -0.760  13.838  23.808  0.00  0.00    +0.000 OA
ATOM     23  N   UNL     1      -2.851  13.401  22.966  0.00  0.00    +0.000 N 
ATOM     24  C   UNL     1      -3.823  12.688  22.157  0.00  0.00    +0.000 C 
ATOM     25  C   UNL     1      -4.714  13.783  21.608  0.00  0.00    +0.000 C 
ATOM     26  C   UNL     1      -4.751  14.811  22.732  0.00  0.00    +0.000 C 
ATOM     27  C   UNL     1      -3.412  14.653  23.450  0.00  0.00    +0.000 C 
ENDBRANCH  18  21
ENDBRANCH   3  15
TORSDOF 3
ENDMDL
MODEL 4
REMARK VINA RESULT:      -7.9      1.570      2.199
REMARK  Name = 
REMARK  3 active torsions:
REMARK  status: ('A' for Active; 'I' for Inactive)
REMARK    1  A    between atoms: C_2  and  C_17
REMARK    2  A    between atoms: N_3  and  C_4
REMARK    3  A    between atoms: C_7  and  C_8
REMARK                            x       y       z     vdW  Elec       q    Type
REMARK                         _______ _______ _______ _____ _____    ______ ____
ROOT
ATOM      1  O   UNL     1       1.538   9.915  22.252  0.00  0.00    +0.000 OA
ATOM      2  C   UNL     1       0.711  10.180  21.391  0.00  0.00    +0.000 C 
ATOM      3  N   UNL     1       0.707   9.657  20.107  0.00  0.00    +0.000 N 
ATOM      4  H   UNL     1      -0.019  10.039  19.514  0.00  0.00    +0.000 HD
ENDROOT
BRANCH   2   5
ATOM      5  C   UNL     1      -0.414  11.101  21.624  0.00  0.00    +0.000 A 
ATOM      6  C   UNL     1      -1.249  11.200  22.723  0.00  0.00    +0.000 A 
ATOM      7  C   UNL     1      -2.340  12.126  22.524  0.00  0.00    +0.000 A 
ATOM      8  C   UNL     1      -3.443  12.476  23.338  0.00  0.00    +0.000 A 
ATOM      9  F   UNL     1      -3.572  11.945  24.562  0.00  0.00    +0.000 F 
ATOM     10  C   UNL     1      -4.431  13.355  22.885  0.00  0.00    +0.000 A 
ATOM     11  C   UNL     1      -4.334  13.922  21.622  0.00  0.00    +0.000 A 
ATOM     12  C   UNL     1      -3.242  13.637  20.808  0.00  0.00    +0.000 A 
ATOM     13  C   UNL     1      -2.263  12.734  21.270  0.00  0.00    +0.000 A 
ATOM     14  S   UNL     1      -0.863  12.242  20.423  0.00  0.00    +0.000 S 
ENDBRANCH   2   5
BRANCH   3  15
ATOM     15  C   UNL     1       1.529   8.700  19.498  0.00  0.00    +0.000 A 
ATOM     16  C   UNL     1       2.075   8.814  18.223  0.00  0.00    +0.000 A 
ATOM     17  C   UNL     1       2.855   7.772  17.701  0.00  0.00    +0.000 A 
ATOM     18  C   UNL     1       3.048   6.591  18.429  0.00  0.00    +0.000 A 
ATOM     19  C   UNL     1       2.560   6.508  19.735  0.00  0.00    +0.000 A 
ATOM     20  C   UNL     1       1.809   7.558  20.264  0.00  0.00    +0.000 A 
BRANCH  18  21
ATOM     21  C   UNL     1       3.724   5.389  17.868  0.00  0.00    +0.000 C 
ATOM     22  O   UNL     1       3.022   4.496  17.397  0.00  0.00    +0.000 OA
ATOM     23  N   UNL     1       5.110   5.360  17.808  0.00  0.00    +0.000 N 
ATOM     24  C   UNL     1       6.055   6.379  18.227  0.00  0.00    +0.000 C 
ATOM     25  C   UNL     1       7.185   6.262  17.226  0.00  0.00    +0.000 C 
ATOM     26  C   UNL     1       7.231   4.772  16.911  0.00  0.00    +0.000 C 
ATOM     27  C   UNL     1       5.796   4.287  17.106  0.00  0.00    +0.000 C 
ENDBRANCH  18  21
ENDBRANCH   3  15
TORSDOF 3
ENDMDL
MODEL 5
REMARK VINA RESULT:      -7.9      1.889      2.731
REMARK  Name = 
REMARK  3 active torsions:
REMARK  status: ('A' for Active; 'I' for Inactive)
REMARK    1  A    between atoms: C_2  and  C_17
REMARK    2  A    between atoms: N_3  and  C_4
REMARK    3  A    between atoms: C_7  and  C_8
REMARK                            x       y       z     vdW  Elec       q    Type
REMARK                         _______ _______ _______ _____ _____    ______ ____
ROOT
ATOM      1  O   UNL     1       1.757   9.167  22.638  0.00  0.00    +0.000 OA
ATOM      2  C   UNL     1       1.020   9.579  21.753  0.00  0.00    +0.000 C 
ATOM      3  N   UNL     1       0.965   9.068  20.465  0.00  0.00    +0.000 N 
ATOM      4  H   UNL     1       0.339   9.576  19.852  0.00  0.00    +0.000 HD
ENDROOT
BRANCH   2   5
ATOM      5  C   UNL     1       0.072  10.686  21.957  0.00  0.00    +0.000 A 
ATOM      6  C   UNL     1      -0.989  10.776  22.842  0.00  0.00    +0.000 A 
ATOM      7  C   UNL     1      -1.791  11.961  22.647  0.00  0.00    +0.000 A 
ATOM      8  C   UNL     1      -2.981  12.411  23.265  0.00  0.00    +0.000 A 
ATOM      9  F   UNL     1      -3.528  11.703  24.265  0.00  0.00    +0.000 F 
ATOM     10  C   UNL     1      -3.628  13.574  22.840  0.00  0.00    +0.000 A 
ATOM     11  C   UNL     1      -3.093  14.330  21.806  0.00  0.00    +0.000 A 
ATOM     12  C   UNL     1      -1.901  13.946  21.201  0.00  0.00    +0.000 A 
ATOM     13  C   UNL     1      -1.271  12.760  21.626  0.00  0.00    +0.000 A 
ATOM     14  S   UNL     1       0.182  12.110  21.006  0.00  0.00    +0.000 S 
ENDBRANCH   2   5
BRANCH   3  15
ATOM     15  C   UNL     1       1.622   7.980  19.875  0.00  0.00    +0.000 A 
ATOM     16  C   UNL     1       1.782   6.731  20.465  0.00  0.00    +0.000 A 
ATOM     17  C   UNL     1       2.494   5.726  19.793  0.00  0.00    +0.000 A 
ATOM     18  C   UNL     1       3.092   5.984  18.553  0.00  0.00    +0.000 A 
ATOM     19  C   UNL     1       2.869   7.214  17.931  0.00  0.00    +0.000 A 
ATOM     20  C   UNL     1       2.137   8.202  18.589  0.00  0.00    +0.000 A 
BRANCH  18  21
ATOM     21  C   UNL     1       3.995   5.017  17.868  0.00  0.00    +0.000 C 
ATOM     22  O   UNL     1       3.532   4.340  16.953  0.00  0.00    +0.000 OA
ATOM     23  N   UNL     1       5.337   4.984  18.217  0.00  0.00    +0.000 N 
ATOM     24  C   UNL     1       6.038   5.793  19.197  0.00  0.00    +0.000 C 
ATOM     25  C   UNL     1       7.413   5.988  18.593  0.00  0.00    +0.000 C 
ATOM     26  C   UNL     1       7.667   4.682  17.853  0.00  0.00    +0.000 C 
ATOM     27  C   UNL     1       6.280   4.186  17.448  0.00  0.00    +0.000 C 
ENDBRANCH  18  21
ENDBRANCH   3  15
TORSDOF 3
ENDMDL
MODEL 6
REMARK VINA RESULT:      -7.9      0.780      1.247
REMARK  Name = 
REMARK  3 active torsions:
REMARK  status: ('A' for Active; 'I' for Inactive)
REMARK    1  A    between atoms: C_2  and  C_17
REMARK    2  A    between atoms: N_3  and  C_4
REMARK    3  A    between atoms: C_7  and  C_8
REMARK                            x       y       z     vdW  Elec       q    Type
REMARK                         _______ _______ _______ _____ _____    ______ ____
ROOT
ATOM      1  O   UNL     1       1.462  11.848  21.347  0.00  0.00    +0.000 OA
ATOM      2  C   UNL     1       0.327  11.463  21.100  0.00  0.00    +0.000 C 
ATOM      3  N   UNL     1       0.017  10.327  20.369  0.00  0.00    +0.000 N 
ATOM      4  H   UNL     1      -0.976  10.201  20.214  0.00  0.00    +0.000 HD
ENDROOT
BRANCH   2   5
ATOM      5  C   UNL     1      -0.874  12.171  21.571  0.00  0.00    +0.000 A 
ATOM      6  C   UNL     1      -1.669  11.906  22.673  0.00  0.00    +0.000 A 
ATOM      7  C   UNL     1      -2.855  12.729  22.727  0.00  0.00    +0.000 A 
ATOM      8  C   UNL     1      -3.954  12.747  23.618  0.00  0.00    +0.000 A 
ATOM      9  F   UNL     1      -3.977  11.919  24.673  0.00  0.00    +0.000 F 
ATOM     10  C   UNL     1      -5.043  13.598  23.413  0.00  0.00    +0.000 A 
ATOM     11  C   UNL     1      -5.055  14.465  22.330  0.00  0.00    +0.000 A 
ATOM     12  C   UNL     1      -3.975  14.509  21.455  0.00  0.00    +0.000 A 
ATOM     13  C   UNL     1      -2.892  13.632  21.663  0.00  0.00    +0.000 A 
ATOM     14  S   UNL     1      -1.485  13.518  20.700  0.00  0.00    +0.000 S 
ENDBRANCH   2   5
BRANCH   3  15
ATOM     15  C   UNL     1       0.836   9.335  19.813  0.00  0.00    +0.000 A 
ATOM     16  C   UNL     1       1.357   8.249  20.511  0.00  0.00    +0.000 A 
ATOM     17  C   UNL     1       2.199   7.338  19.856  0.00  0.00    +0.000 A 
ATOM     18  C   UNL     1       2.564   7.536  18.519  0.00  0.00    +0.000 A 
ATOM     19  C   UNL     1       1.982   8.584  17.802  0.00  0.00    +0.000 A 
ATOM     20  C   UNL     1       1.122   9.474  18.447  0.00  0.00    +0.000 A 
BRANCH  18  21
ATOM     21  C   UNL     1       3.579   6.701  17.819  0.00  0.00    +0.000 C 
ATOM     22  O   UNL     1       4.665   7.210  17.554  0.00  0.00    +0.000 OA
ATOM     23  N   UNL     1       3.301   5.363  17.578  0.00  0.00    +0.000 N 
ATOM     24  C   UNL     1       2.111   4.608  17.927  0.00  0.00    +0.000 C 
ATOM     25  C   UNL     1       2.638   3.225  18.246  0.00  0.00    +0.000 C 
ATOM     26  C   UNL     1       3.812   3.059  17.289  0.00  0.00    +0.000 C 
ATOM     27  C   UNL     1       4.333   4.477  17.062  0.00  0.00    +0.000 C 
ENDBRANCH  18  21
ENDBRANCH   3  15
TORSDOF 3
ENDMDL
MODEL 7
REMARK VINA RESULT:      -7.8      3.826     10.140
REMARK  Name = 
REMARK  3 active torsions:
REMARK  status: ('A' for Active; 'I' for Inactive)
REMARK    1  A    between atoms: C_2  and  C_17
REMARK    2  A    between atoms: N_3  and  C_4
REMARK    3  A    between atoms: C_7  and  C_8
REMARK                            x       y       z     vdW  Elec       q    Type
REMARK                         _______ _______ _______ _____ _____    ______ ____
ROOT
ATOM      1  O   UNL     1       0.792   9.997  18.316  0.00  0.00    +0.000 OA
ATOM      2  C   UNL     1       1.243   9.232  19.157  0.00  0.00    +0.000 C 
ATOM      3  N   UNL     1       0.953   9.282  20.512  0.00  0.00    +0.000 N 
ATOM      4  H   UNL     1       1.467   8.608  21.065  0.00  0.00    +0.000 HD
ENDROOT
BRANCH   2   5
ATOM      5  C   UNL     1       2.162   8.132  18.823  0.00  0.00    +0.000 A 
ATOM      6  C   UNL     1       3.023   8.009  17.747  0.00  0.00    +0.000 A 
ATOM      7  C   UNL     1       3.657   6.714  17.672  0.00  0.00    +0.000 A 
ATOM      8  C   UNL     1       4.535   6.143  16.720  0.00  0.00    +0.000 A 
ATOM      9  F   UNL     1       4.959   6.870  15.676  0.00  0.00    +0.000 F 
ATOM     10  C   UNL     1       4.958   4.816  16.825  0.00  0.00    +0.000 A 
ATOM     11  C   UNL     1       4.536   4.031  17.890  0.00  0.00    +0.000 A 
ATOM     12  C   UNL     1       3.708   4.568  18.870  0.00  0.00    +0.000 A 
ATOM     13  C   UNL     1       3.273   5.902  18.742  0.00  0.00    +0.000 A 
ATOM     14  S   UNL     1       2.248   6.739  19.822  0.00  0.00    +0.000 S 
ENDBRANCH   2   5
BRANCH   3  15
ATOM     15  C   UNL     1       0.078  10.102  21.239  0.00  0.00    +0.000 A 
ATOM     16  C   UNL     1      -0.255   9.921  22.578  0.00  0.00    +0.000 A 
ATOM     17  C   UNL     1      -1.174  10.785  23.191  0.00  0.00    +0.000 A 
ATOM     18  C   UNL     1      -1.803  11.797  22.457  0.00  0.00    +0.000 A 
ATOM     19  C   UNL     1      -1.414  12.022  21.134  0.00  0.00    +0.000 A 
ATOM     20  C   UNL     1      -0.478  11.179  20.533  0.00  0.00    +0.000 A 
BRANCH  18  21
ATOM     21  C   UNL     1      -2.904  12.638  23.003  0.00  0.00    +0.000 C 
ATOM     22  O   UNL     1      -4.046  12.184  22.981  0.00  0.00    +0.000 OA
ATOM     23  N   UNL     1      -2.594  13.851  23.601  0.00  0.00    +0.000 N 
ATOM     24  C   UNL     1      -1.289  14.459  23.790  0.00  0.00    +0.000 C 
ATOM     25  C   UNL     1      -1.412  15.180  25.116  0.00  0.00    +0.000 C 
ATOM     26  C   UNL     1      -2.863  15.645  25.138  0.00  0.00    +0.000 C 
ATOM     27  C   UNL     1      -3.616  14.611  24.303  0.00  0.00    +0.000 C 
ENDBRANCH  18  21
ENDBRANCH   3  15
TORSDOF 3
ENDMDL
MODEL 8
REMARK VINA RESULT:      -7.7      1.412      1.498
REMARK  Name = 
REMARK  3 active torsions:
REMARK  status: ('A' for Active; 'I' for Inactive)
REMARK    1  A    between atoms: C_2  and  C_17
REMARK    2  A    between atoms: N_3  and  C_4
REMARK    3  A    between atoms: C_7  and  C_8
REMARK                            x       y       z     vdW  Elec       q    Type
REMARK                         _______ _______ _______ _____ _____    ______ ____
ROOT
ATOM      1  O   UNL     1      -1.171  10.210  17.987  0.00  0.00    +0.000 OA
ATOM      2  C   UNL     1      -0.778  10.508  19.106  0.00  0.00    +0.000 C 
ATOM      3  N   UNL     1       0.313   9.934  19.742  0.00  0.00    +0.000 N 
ATOM      4  H   UNL     1       0.452  10.263  20.689  0.00  0.00    +0.000 HD
ENDROOT
BRANCH   2   5
ATOM      5  C   UNL     1      -1.422  11.545  19.928  0.00  0.00    +0.000 A 
ATOM      6  C   UNL     1      -1.016  12.079  21.138  0.00  0.00    +0.000 A 
ATOM      7  C   UNL     1      -1.991  12.973  21.720  0.00  0.00    +0.000 A 
ATOM      8  C   UNL     1      -2.020  13.669  22.951  0.00  0.00    +0.000 A 
ATOM      9  F   UNL     1      -0.978  13.593  23.791  0.00  0.00    +0.000 F 
ATOM     10  C   UNL     1      -3.132  14.424  23.334  0.00  0.00    +0.000 A 
ATOM     11  C   UNL     1      -4.231  14.523  22.491  0.00  0.00    +0.000 A 
ATOM     12  C   UNL     1      -4.223  13.889  21.253  0.00  0.00    +0.000 A 
ATOM     13  C   UNL     1      -3.104  13.115  20.889  0.00  0.00    +0.000 A 
ATOM     14  S   UNL     1      -2.906  12.250  19.429  0.00  0.00    +0.000 S 
ENDBRANCH   2   5
BRANCH   3  15
ATOM     15  C   UNL     1       1.245   8.985  19.300  0.00  0.00    +0.000 A 
ATOM     16  C   UNL     1       1.858   8.992  18.051  0.00  0.00    +0.000 A 
ATOM     17  C   UNL     1       2.748   7.966  17.704  0.00  0.00    +0.000 A 
ATOM     18  C   UNL     1       2.988   6.902  18.583  0.00  0.00    +0.000 A 
ATOM     19  C   UNL     1       2.429   6.935  19.862  0.00  0.00    +0.000 A 
ATOM     20  C   UNL     1       1.565   7.972  20.216  0.00  0.00    +0.000 A 
BRANCH  18  21
ATOM     21  C   UNL     1       3.790   5.704  18.211  0.00  0.00    +0.000 C 
ATOM     22  O   UNL     1       5.014   5.777  18.292  0.00  0.00    +0.000 OA
ATOM     23  N   UNL     1       3.132   4.527  17.882  0.00  0.00    +0.000 N 
ATOM     24  C   UNL     1       1.704   4.268  17.847  0.00  0.00    +0.000 C 
ATOM     25  C   UNL     1       1.585   2.826  18.294  0.00  0.00    +0.000 C 
ATOM     26  C   UNL     1       2.842   2.172  17.733  0.00  0.00    +0.000 C 
ATOM     27  C   UNL     1       3.878   3.293  17.690  0.00  0.00    +0.000 C 
ENDBRANCH  18  21
ENDBRANCH   3  15
TORSDOF 3
ENDMDL
MODEL 9
REMARK VINA RESULT:      -7.7      0.993      1.022
REMARK  Name = 
REMARK  3 active torsions:
REMARK  status: ('A' for Active; 'I' for Inactive)
REMARK    1  A    between atoms: C_2  and  C_17
REMARK    2  A    between atoms: N_3  and  C_4
REMARK    3  A    between atoms: C_7  and  C_8
REMARK                            x       y       z     vdW  Elec       q    Type
REMARK                         _______ _______ _______ _____ _____    ______ ____
ROOT
ATOM      1  O   UNL     1       1.206  12.045  18.755  0.00  0.00    +0.000 OA
ATOM      2  C   UNL     1       0.450  11.454  19.514  0.00  0.00    +0.000 C 
ATOM      3  N   UNL     1       0.464  10.086  19.740  0.00  0.00    +0.000 N 
ATOM      4  H   UNL     1      -0.275   9.767  20.353  0.00  0.00    +0.000 HD
ENDROOT
BRANCH   2   5
ATOM      5  C   UNL     1      -0.581  12.141  20.307  0.00  0.00    +0.000 A 
ATOM      6  C   UNL     1      -1.196  11.738  21.479  0.00  0.00    +0.000 A 
ATOM      7  C   UNL     1      -2.274  12.610  21.884  0.00  0.00    +0.000 A 
ATOM      8  C   UNL     1      -3.196  12.540  22.954  0.00  0.00    +0.000 A 
ATOM      9  F   UNL     1      -3.114  11.544  23.849  0.00  0.00    +0.000 F 
ATOM     10  C   UNL     1      -4.221  13.479  23.094  0.00  0.00    +0.000 A 
ATOM     11  C   UNL     1      -4.340  14.521  22.185  0.00  0.00    +0.000 A 
ATOM     12  C   UNL     1      -3.427  14.650  21.144  0.00  0.00    +0.000 A 
ATOM     13  C   UNL     1      -2.410  13.685  21.004  0.00  0.00    +0.000 A 
ATOM     14  S   UNL     1      -1.207  13.654  19.791  0.00  0.00    +0.000 S 
ENDBRANCH   2   5
BRANCH   3  15
ATOM     15  C   UNL     1       1.318   9.080  19.266  0.00  0.00    +0.000 A 
ATOM     16  C   UNL     1       1.827   9.012  17.972  0.00  0.00    +0.000 A 
ATOM     17  C   UNL     1       2.644   7.935  17.600  0.00  0.00    +0.000 A 
ATOM     18  C   UNL     1       2.914   6.898  18.501  0.00  0.00    +0.000 A 
ATOM     19  C   UNL     1       2.463   7.005  19.819  0.00  0.00    +0.000 A 
ATOM     20  C   UNL     1       1.673   8.092  20.196  0.00  0.00    +0.000 A 
BRANCH  18  21
ATOM     21  C   UNL     1       3.635   5.652  18.119  0.00  0.00    +0.000 C 
ATOM     22  O   UNL     1       4.864   5.666  18.132  0.00  0.00    +0.000 OA
ATOM     23  N   UNL     1       2.903   4.502  17.857  0.00  0.00    +0.000 N 
ATOM     24  C   UNL     1       1.465   4.314  17.906  0.00  0.00    +0.000 C 
ATOM     25  C   UNL     1       1.300   2.891  18.397  0.00  0.00    +0.000 C 
ATOM     26  C   UNL     1       2.490   2.162  17.787  0.00  0.00    +0.000 C 
ATOM     27  C   UNL     1       3.577   3.229  17.658  0.00  0.00    +0.000 C 
ENDBRANCH  18  21
ENDBRANCH   3  15
TORSDOF 3
ENDMDL
