MODEL 1
REMARK VINA RESULT:      -8.2      0.000      0.000
REMARK  Name = 
REMARK  5 active torsions:
REMARK  status: ('A' for Active; 'I' for Inactive)
REMARK    1  A    between atoms: C_1  and  C_2
REMARK    2  A    between atoms: C_5  and  N_6
REMARK    3  A    between atoms: C_8  and  C_9
REMARK    4  A    between atoms: C_14  and  C_15
REMARK    5  A    between atoms: C_15  and  C_16
REMARK                            x       y       z     vdW  Elec       q    Type
REMARK                         _______ _______ _______ _____ _____    ______ ____
ROOT
ATOM      1  C   UNL     1       0.118   9.673  21.070  0.00  0.00    +0.000 C 
ATOM      2  O   UNL     1      -0.264   8.937  21.986  0.00  0.00    +0.000 OA
ATOM      3  N   UNL     1      -0.036  11.055  21.093  0.00  0.00    +0.000 N 
ATOM      4  C   UNL     1      -0.663  11.660  22.239  0.00  0.00    +0.000 C 
ATOM      5  C   UNL     1      -2.003  12.292  21.874  0.00  0.00    +0.000 C 
ATOM      6  C   UNL     1      -1.840  13.325  20.750  0.00  0.00    +0.000 C 
ATOM      7  C   UNL     1      -1.161  12.620  19.545  0.00  0.00    +0.000 C 
ATOM      8  C   UNL     1       0.165  11.933  19.932  0.00  0.00    +0.000 C 
ENDROOT
BRANCH   1  11
ATOM      9  N   UNL     1       2.179   7.933  18.575  0.00  0.00    +0.000 N 
ATOM     10  C   UNL     1       1.740   8.042  19.874  0.00  0.00    +0.000 A 
ATOM     11  C   UNL     1       0.904   9.148  19.904  0.00  0.00    +0.000 A 
ATOM     12  N   UNL     1       0.827   9.634  18.609  0.00  0.00    +0.000 NA
ATOM     13  N   UNL     1       1.640   8.921  17.831  0.00  0.00    +0.000 NA
BRANCH   9  18
ATOM     14  C   UNL     1       5.496   3.906  16.185  0.00  0.00    +0.000 C 
ATOM     15  C   UNL     1       4.656   4.965  16.845  0.00  0.00    +0.000 A 
ATOM     16  C   UNL     1       4.905   6.324  16.612  0.00  0.00    +0.000 A 
ATOM     17  C   UNL     1       4.095   7.313  17.189  0.00  0.00    +0.000 A 
ATOM     18  C   UNL     1       3.041   6.946  18.036  0.00  0.00    +0.000 A 
ATOM     19  C   UNL     1       2.813   5.594  18.316  0.00  0.00    +0.000 A 
ATOM     20  C   UNL     1       3.602   4.610  17.699  0.00  0.00    +0.000 A 
ENDBRANCH   9  18
ENDBRANCH   1  11
BRANCH   6  21
ATOM     21  C   UNL     1      -1.025  14.556  21.201  0.00  0.00    +0.000 C 
BRANCH  21  22
ATOM     22  C   UNL     1      -0.527  15.429  20.082  0.00  0.00    +0.000 A 
ATOM     23  N   UNL     1       0.755  15.634  19.907  0.00  0.00    +0.000 NA
ATOM     24  C   UNL     1       0.828  16.467  18.833  0.00  0.00    +0.000 A 
ATOM     25  C   UNL     1       1.930  17.004  18.209  0.00  0.00    +0.000 A 
ATOM     26  C   UNL     1       1.741  17.799  17.034  0.00  0.00    +0.000 A 
ATOM     27  C   UNL     1       0.691  18.631  16.652  0.00  0.00    +0.000 A 
ATOM     28  C   UNL     1      -0.400  17.952  17.229  0.00  0.00    +0.000 A 
ATOM     29  C   UNL     1      -0.389  16.909  18.339  0.00  0.00    +0.000 A 
ATOM     30  N   UNL     1      -1.274  16.148  19.119  0.00  0.00    +0.000 N 
ATOM     31  H   UNL     1      -2.285  16.154  19.036  0.00  0.00    +0.000 HD
ENDBRANCH  21  22
ENDBRANCH   6  21
TORSDOF 4
ENDMDL
MODEL 2
REMARK VINA RESULT:      -8.2      3.757     10.380
REMARK  Name = 
REMARK  5 active torsions:
REMARK  status: ('A' for Active; 'I' for Inactive)
REMARK    1  A    between atoms: C_1  and  C_2
REMARK    2  A    between atoms: C_5  and  N_6
REMARK    3  A    between atoms: C_8  and  C_9
REMARK    4  A    between atoms: C_14  and  C_15
REMARK    5  A    between atoms: C_15  and  C_16
REMARK                            x       y       z     vdW  Elec       q    Type
REMARK                         _______ _______ _______ _____ _____    ______ ____
ROOT
ATOM      1  C   UNL     1       0.889   9.364  19.469  0.00  0.00    +0.000 C 
ATOM      2  O   UNL     1       0.598   9.838  18.365  0.00  0.00    +0.000 OA
ATOM      3  N   UNL     1       1.766   8.297  19.628  0.00  0.00    +0.000 N 
ATOM      4  C   UNL     1       2.370   7.719  18.456  0.00  0.00    +0.000 C 
ATOM      5  C   UNL     1       1.892   6.289  18.227  0.00  0.00    +0.000 C 
ATOM      6  C   UNL     1       2.169   5.410  19.456  0.00  0.00    +0.000 C 
ATOM      7  C   UNL     1       1.497   6.079  20.686  0.00  0.00    +0.000 C 
ATOM      8  C   UNL     1       1.941   7.543  20.878  0.00  0.00    +0.000 C 
ENDROOT
BRANCH   1  11
ATOM      9  N   UNL     1      -0.596  11.240  22.258  0.00  0.00    +0.000 N 
ATOM     10  C   UNL     1      -0.401  11.096  20.904  0.00  0.00    +0.000 A 
ATOM     11  C   UNL     1       0.419   9.987  20.750  0.00  0.00    +0.000 A 
ATOM     12  N   UNL     1       0.645   9.472  22.016  0.00  0.00    +0.000 NA
ATOM     13  N   UNL     1       0.068  10.266  22.916  0.00  0.00    +0.000 NA
BRANCH   9  18
ATOM     14  C   UNL     1      -3.863  15.285  24.684  0.00  0.00    +0.000 C 
ATOM     15  C   UNL     1      -2.991  14.214  24.088  0.00  0.00    +0.000 A 
ATOM     16  C   UNL     1      -3.439  12.889  24.009  0.00  0.00    +0.000 A 
ATOM     17  C   UNL     1      -2.648  11.896  23.413  0.00  0.00    +0.000 A 
ATOM     18  C   UNL     1      -1.378  12.220  22.917  0.00  0.00    +0.000 A 
ATOM     19  C   UNL     1      -0.899  13.529  23.034  0.00  0.00    +0.000 A 
ATOM     20  C   UNL     1      -1.717  14.524  23.594  0.00  0.00    +0.000 A 
ENDBRANCH   9  18
ENDBRANCH   1  11
BRANCH   6  21
ATOM     21  C   UNL     1       3.679   5.201  19.697  0.00  0.00    +0.000 C 
BRANCH  21  22
ATOM     22  C   UNL     1       4.491   4.966  18.453  0.00  0.00    +0.000 A 
ATOM     23  N   UNL     1       5.472   5.770  18.126  0.00  0.00    +0.000 NA
ATOM     24  C   UNL     1       5.959   5.266  16.959  0.00  0.00    +0.000 A 
ATOM     25  C   UNL     1       6.995   5.711  16.172  0.00  0.00    +0.000 A 
ATOM     26  C   UNL     1       7.366   4.949  15.019  0.00  0.00    +0.000 A 
ATOM     27  C   UNL     1       6.605   4.153  14.167  0.00  0.00    +0.000 A 
ATOM     28  C   UNL     1       5.647   3.650  15.069  0.00  0.00    +0.000 A 
ATOM     29  C   UNL     1       5.258   4.189  16.439  0.00  0.00    +0.000 A 
ATOM     30  N   UNL     1       4.346   3.950  17.479  0.00  0.00    +0.000 N 
ATOM     31  H   UNL     1       3.662   3.200  17.499  0.00  0.00    +0.000 HD
ENDBRANCH  21  22
ENDBRANCH   6  21
TORSDOF 4
ENDMDL
MODEL 3
REMARK VINA RESULT:      -8.2      0.732      1.173
REMARK  Name = 
REMARK  5 active torsions:
REMARK  status: ('A' for Active; 'I' for Inactive)
REMARK    1  A    between atoms: C_1  and  C_2
REMARK    2  A    between atoms: C_5  and  N_6
REMARK    3  A    between atoms: C_8  and  C_9
REMARK    4  A    between atoms: C_14  and  C_15
REMARK    5  A    between atoms: C_15  and  C_16
REMARK                            x       y       z     vdW  Elec       q    Type
REMARK                         _______ _______ _______ _____ _____    ______ ____
ROOT
ATOM      1  C   UNL     1       0.819   9.187  20.672  0.00  0.00    +0.000 C 
ATOM      2  O   UNL     1       0.479   8.398  21.561  0.00  0.00    +0.000 OA
ATOM      3  N   UNL     1       0.621  10.561  20.761  0.00  0.00    +0.000 N 
ATOM      4  C   UNL     1      -0.001  11.093  21.945  0.00  0.00    +0.000 C 
ATOM      5  C   UNL     1      -1.368  11.696  21.636  0.00  0.00    +0.000 C 
ATOM      6  C   UNL     1      -1.262  12.783  20.556  0.00  0.00    +0.000 C 
ATOM      7  C   UNL     1      -0.586  12.155  19.308  0.00  0.00    +0.000 C 
ATOM      8  C   UNL     1       0.769  11.496  19.637  0.00  0.00    +0.000 C 
ENDROOT
BRANCH   1  11
ATOM      9  N   UNL     1       2.796   7.583  18.023  0.00  0.00    +0.000 N 
ATOM     10  C   UNL     1       2.315   7.565  19.311  0.00  0.00    +0.000 A 
ATOM     11  C   UNL     1       1.596   8.740  19.469  0.00  0.00    +0.000 A 
ATOM     12  N   UNL     1       1.625   9.400  18.251  0.00  0.00    +0.000 NA
ATOM     13  N   UNL     1       2.393   8.714  17.406  0.00  0.00    +0.000 NA
BRANCH   9  18
ATOM     14  C   UNL     1       6.136   3.583  15.620  0.00  0.00    +0.000 C 
ATOM     15  C   UNL     1       5.232   4.628  16.216  0.00  0.00    +0.000 A 
ATOM     16  C   UNL     1       4.155   4.260  17.033  0.00  0.00    +0.000 A 
ATOM     17  C   UNL     1       3.338   5.232  17.628  0.00  0.00    +0.000 A 
ATOM     18  C   UNL     1       3.576   6.590  17.379  0.00  0.00    +0.000 A 
ATOM     19  C   UNL     1       4.617   6.969  16.525  0.00  0.00    +0.000 A 
ATOM     20  C   UNL     1       5.456   5.989  15.970  0.00  0.00    +0.000 A 
ENDBRANCH   9  18
ENDBRANCH   1  11
BRANCH   6  21
ATOM     21  C   UNL     1      -0.478  14.019  21.046  0.00  0.00    +0.000 C 
BRANCH  21  22
ATOM     22  C   UNL     1      -0.167  15.034  19.980  0.00  0.00    +0.000 A 
ATOM     23  N   UNL     1       1.067  15.399  19.737  0.00  0.00    +0.000 NA
ATOM     24  C   UNL     1       0.965  16.322  18.742  0.00  0.00    +0.000 A 
ATOM     25  C   UNL     1       1.948  17.033  18.095  0.00  0.00    +0.000 A 
ATOM     26  C   UNL     1       1.583  17.896  17.015  0.00  0.00    +0.000 A 
ATOM     27  C   UNL     1       0.422  18.630  16.784  0.00  0.00    +0.000 A 
ATOM     28  C   UNL     1      -0.540  17.784  17.370  0.00  0.00    +0.000 A 
ATOM     29  C   UNL     1      -0.329  16.660  18.376  0.00  0.00    +0.000 A 
ATOM     30  N   UNL     1      -1.061  15.740  19.142  0.00  0.00    +0.000 N 
ATOM     31  H   UNL     1      -2.071  15.637  19.129  0.00  0.00    +0.000 HD
ENDBRANCH  21  22
ENDBRANCH   6  21
TORSDOF 4
ENDMDL
MODEL 4
REMARK VINA RESULT:      -8.1      3.144      5.257
REMARK  Name = 
REMARK  5 active torsions:
REMARK  status: ('A' for Active; 'I' for Inactive)
REMARK    1  A    between atoms: C_1  and  C_2
REMARK    2  A    between atoms: C_5  and  N_6
REMARK    3  A    between atoms: C_8  and  C_9
REMARK    4  A    between atoms: C_14  and  C_15
REMARK    5  A    between atoms: C_15  and  C_16
REMARK                            x       y       z     vdW  Elec       q    Type
REMARK                         _______ _______ _______ _____ _____    ______ ____
ROOT
ATOM      1  C   UNL     1       1.369  10.408  18.639  0.00  0.00    +0.000 C 
ATOM      2  O   UNL     1       2.189  11.043  17.967  0.00  0.00    +0.000 OA
ATOM      3  N   UNL     1       0.099  10.888  18.939  0.00  0.00    +0.000 N 
ATOM      4  C   UNL     1      -0.284  12.183  18.439  0.00  0.00    +0.000 C 
ATOM      5  C   UNL     1      -0.480  13.185  19.574  0.00  0.00    +0.000 C 
ATOM      6  C   UNL     1      -1.517  12.677  20.587  0.00  0.00    +0.000 C 
ATOM      7  C   UNL     1      -1.055  11.283  21.089  0.00  0.00    +0.000 C 
ATOM      8  C   UNL     1      -0.802  10.292  19.935  0.00  0.00    +0.000 C 
ENDROOT
BRANCH   1  11
ATOM      9  N   UNL     1       2.195   6.867  19.168  0.00  0.00    +0.000 N 
ATOM     10  C   UNL     1       2.036   7.924  18.304  0.00  0.00    +0.000 A 
ATOM     11  C   UNL     1       1.628   8.998  19.083  0.00  0.00    +0.000 A 
ATOM     12  N   UNL     1       1.608   8.561  20.397  0.00  0.00    +0.000 NA
ATOM     13  N   UNL     1       1.904   7.262  20.425  0.00  0.00    +0.000 NA
BRANCH   9  18
ATOM     14  C   UNL     1       3.749   1.449  18.092  0.00  0.00    +0.000 C 
ATOM     15  C   UNL     1       3.370   2.882  18.342  0.00  0.00    +0.000 A 
ATOM     16  C   UNL     1       2.348   3.492  17.601  0.00  0.00    +0.000 A 
ATOM     17  C   UNL     1       1.960   4.814  17.862  0.00  0.00    +0.000 A 
ATOM     18  C   UNL     1       2.619   5.552  18.853  0.00  0.00    +0.000 A 
ATOM     19  C   UNL     1       3.674   4.971  19.567  0.00  0.00    +0.000 A 
ATOM     20  C   UNL     1       4.026   3.633  19.327  0.00  0.00    +0.000 A 
ENDBRANCH   9  18
ENDBRANCH   1  11
BRANCH   6  21
ATOM     21  C   UNL     1      -2.936  12.604  19.983  0.00  0.00    +0.000 C 
BRANCH  21  22
ATOM     22  C   UNL     1      -4.045  12.972  20.931  0.00  0.00    +0.000 A 
ATOM     23  N   UNL     1      -3.971  14.052  21.668  0.00  0.00    +0.000 NA
ATOM     24  C   UNL     1      -5.121  14.054  22.396  0.00  0.00    +0.000 A 
ATOM     25  C   UNL     1      -5.571  14.957  23.330  0.00  0.00    +0.000 A 
ATOM     26  C   UNL     1      -6.868  14.772  23.904  0.00  0.00    +0.000 A 
ATOM     27  C   UNL     1      -7.592  13.613  24.172  0.00  0.00    +0.000 A 
ATOM     28  C   UNL     1      -7.164  12.789  23.112  0.00  0.00    +0.000 A 
ATOM     29  C   UNL     1      -5.928  12.938  22.235  0.00  0.00    +0.000 A 
ATOM     30  N   UNL     1      -5.246  12.275  21.202  0.00  0.00    +0.000 N 
ATOM     31  H   UNL     1      -5.545  11.411  20.761  0.00  0.00    +0.000 HD
ENDBRANCH  21  22
ENDBRANCH   6  21
TORSDOF 4
ENDMDL
MODEL 5
REMARK VINA RESULT:      -8.0      3.127      5.501
REMARK  Name = 
REMARK  5 active torsions:
REMARK  status: ('A' for Active; 'I' for Inactive)
REMARK    1  A    between atoms: C_1  and  C_2
REMARK    2  A    between atoms: C_5  and  N_6
REMARK    3  A    between atoms: C_8  and  C_9
REMARK    4  A    between atoms: C_14  and  C_15
REMARK    5  A    between atoms: C_15  and  C_16
REMARK                            x       y       z     vdW  Elec       q    Type
REMARK                         _______ _______ _______ _____ _____    ______ ____
ROOT
ATOM      1  C   UNL     1       1.428  10.326  18.751  0.00  0.00    +0.000 C 
ATOM      2  O   UNL     1       2.279  10.929  18.089  0.00  0.00    +0.000 OA
ATOM      3  N   UNL     1       0.155  10.833  18.993  0.00  0.00    +0.000 N 
ATOM      4  C   UNL     1      -0.192  12.117  18.441  0.00  0.00    +0.000 C 
ATOM      5  C   UNL     1      -0.411  13.155  19.538  0.00  0.00    +0.000 C 
ATOM      6  C   UNL     1      -1.489  12.693  20.529  0.00  0.00    +0.000 C 
ATOM      7  C   UNL     1      -1.064  11.309  21.090  0.00  0.00    +0.000 C 
ATOM      8  C   UNL     1      -0.787  10.279  19.975  0.00  0.00    +0.000 C 
ENDROOT
BRANCH   1  11
ATOM      9  N   UNL     1       2.198   6.796  19.420  0.00  0.00    +0.000 N 
ATOM     10  C   UNL     1       2.097   7.832  18.520  0.00  0.00    +0.000 A 
ATOM     11  C   UNL     1       1.651   8.927  19.245  0.00  0.00    +0.000 A 
ATOM     12  N   UNL     1       1.551   8.525  20.567  0.00  0.00    +0.000 NA
ATOM     13  N   UNL     1       1.836   7.226  20.647  0.00  0.00    +0.000 NA
BRANCH   9  18
ATOM     14  C   UNL     1       3.707   1.379  18.278  0.00  0.00    +0.000 C 
ATOM     15  C   UNL     1       3.352   2.805  18.595  0.00  0.00    +0.000 A 
ATOM     16  C   UNL     1       3.675   3.838  17.705  0.00  0.00    +0.000 A 
ATOM     17  C   UNL     1       3.305   5.164  17.975  0.00  0.00    +0.000 A 
ATOM     18  C   UNL     1       2.632   5.472  19.164  0.00  0.00    +0.000 A 
ATOM     19  C   UNL     1       2.347   4.457  20.085  0.00  0.00    +0.000 A 
ATOM     20  C   UNL     1       2.684   3.127  19.785  0.00  0.00    +0.000 A 
ENDBRANCH   9  18
ENDBRANCH   1  11
BRANCH   6  21
ATOM     21  C   UNL     1      -2.888  12.621  19.880  0.00  0.00    +0.000 C 
BRANCH  21  22
ATOM     22  C   UNL     1      -4.037  12.659  20.850  0.00  0.00    +0.000 A 
ATOM     23  N   UNL     1      -5.245  12.314  20.478  0.00  0.00    +0.000 NA
ATOM     24  C   UNL     1      -6.012  12.484  21.590  0.00  0.00    +0.000 A 
ATOM     25  C   UNL     1      -7.357  12.268  21.773  0.00  0.00    +0.000 A 
ATOM     26  C   UNL     1      -7.916  12.450  23.077  0.00  0.00    +0.000 A 
ATOM     27  C   UNL     1      -7.564  13.315  24.110  0.00  0.00    +0.000 A 
ATOM     28  C   UNL     1      -6.170  13.389  23.922  0.00  0.00    +0.000 A 
ATOM     29  C   UNL     1      -5.360  13.035  22.682  0.00  0.00    +0.000 A 
ATOM     30  N   UNL     1      -4.039  13.064  22.206  0.00  0.00    +0.000 N 
ATOM     31  H   UNL     1      -3.231  13.374  22.735  0.00  0.00    +0.000 HD
ENDBRANCH  21  22
ENDBRANCH   6  21
TORSDOF 4
ENDMDL
MODEL 6
REMARK VINA RESULT:      -8.0      3.296     10.343
REMARK  Name = 
REMARK  5 active torsions:
REMARK  status: ('A' for Active; 'I' for Inactive)
REMARK    1  A    between atoms: C_1  and  C_2
REMARK    2  A    between atoms: C_5  and  N_6
REMARK    3  A    between atoms: C_8  and  C_9
REMARK    4  A    between atoms: C_14  and  C_15
REMARK    5  A    between atoms: C_15  and  C_16
REMARK                            x       y       z     vdW  Elec       q    Type
REMARK                         _______ _______ _______ _____ _____    ______ ____
ROOT
ATOM      1  C   UNL     1       0.593  12.895  19.646  0.00  0.00    +0.000 C 
ATOM      2  O   UNL     1       0.833  13.820  18.862  0.00  0.00    +0.000 OA
ATOM      3  N   UNL     1       1.215  11.654  19.569  0.00  0.00    +0.000 N 
ATOM      4  C   UNL     1       2.192  11.435  18.533  0.00  0.00    +0.000 C 
ATOM      5  C   UNL     1       1.713  10.395  17.525  0.00  0.00    +0.000 C 
ATOM      6  C   UNL     1       1.368   9.069  18.218  0.00  0.00    +0.000 C 
ATOM      7  C   UNL     1       0.316   9.364  19.321  0.00  0.00    +0.000 C 
ATOM      8  C   UNL     1       0.781  10.458  20.305  0.00  0.00    +0.000 C 
ENDROOT
BRANCH   1  11
ATOM      9  N   UNL     1      -2.045  13.200  22.186  0.00  0.00    +0.000 N 
ATOM     10  C   UNL     1      -1.690  13.050  20.865  0.00  0.00    +0.000 A 
ATOM     11  C   UNL     1      -0.304  13.075  20.836  0.00  0.00    +0.000 A 
ATOM     12  N   UNL     1       0.128  13.184  22.148  0.00  0.00    +0.000 NA
ATOM     13  N   UNL     1      -0.934  13.308  22.943  0.00  0.00    +0.000 NA
BRANCH   9  18
ATOM     14  C   UNL     1      -7.403  13.059  24.237  0.00  0.00    +0.000 C 
ATOM     15  C   UNL     1      -5.991  13.132  23.724  0.00  0.00    +0.000 A 
ATOM     16  C   UNL     1      -4.941  12.527  24.429  0.00  0.00    +0.000 A 
ATOM     17  C   UNL     1      -3.631  12.553  23.931  0.00  0.00    +0.000 A 
ATOM     18  C   UNL     1      -3.353  13.219  22.730  0.00  0.00    +0.000 A 
ATOM     19  C   UNL     1      -4.383  13.870  22.042  0.00  0.00    +0.000 A 
ATOM     20  C   UNL     1      -5.699  13.801  22.527  0.00  0.00    +0.000 A 
ENDBRANCH   9  18
ENDBRANCH   1  11
BRANCH   6  21
ATOM     21  C   UNL     1       2.614   8.379  18.814  0.00  0.00    +0.000 C 
BRANCH  21  22
ATOM     22  C   UNL     1       2.417   6.938  19.196  0.00  0.00    +0.000 A 
ATOM     23  N   UNL     1       2.212   6.021  18.283  0.00  0.00    +0.000 NA
ATOM     24  C   UNL     1       2.065   4.863  18.982  0.00  0.00    +0.000 A 
ATOM     25  C   UNL     1       1.833   3.585  18.531  0.00  0.00    +0.000 A 
ATOM     26  C   UNL     1       1.796   2.512  19.476  0.00  0.00    +0.000 A 
ATOM     27  C   UNL     1       1.395   2.483  20.809  0.00  0.00    +0.000 A 
ATOM     28  C   UNL     1       1.771   3.776  21.222  0.00  0.00    +0.000 A 
ATOM     29  C   UNL     1       2.068   4.998  20.361  0.00  0.00    +0.000 A 
ATOM     30  N   UNL     1       2.387   6.359  20.486  0.00  0.00    +0.000 N 
ATOM     31  H   UNL     1       2.523   6.853  21.362  0.00  0.00    +0.000 HD
ENDBRANCH  21  22
ENDBRANCH   6  21
TORSDOF 4
ENDMDL
MODEL 7
REMARK VINA RESULT:      -8.0      4.052      6.902
REMARK  Name = 
REMARK  5 active torsions:
REMARK  status: ('A' for Active; 'I' for Inactive)
REMARK    1  A    between atoms: C_1  and  C_2
REMARK    2  A    between atoms: C_5  and  N_6
REMARK    3  A    between atoms: C_8  and  C_9
REMARK    4  A    between atoms: C_14  and  C_15
REMARK    5  A    between atoms: C_15  and  C_16
REMARK                            x       y       z     vdW  Elec       q    Type
REMARK                         _______ _______ _______ _____ _____    ______ ____
ROOT
ATOM      1  C   UNL     1       4.062   3.658  19.266  0.00  0.00    +0.000 C 
ATOM      2  O   UNL     1       3.749   2.521  19.637  0.00  0.00    +0.000 OA
ATOM      3  N   UNL     1       3.560   4.814  19.853  0.00  0.00    +0.000 N 
ATOM      4  C   UNL     1       2.637   4.684  20.951  0.00  0.00    +0.000 C 
ATOM      5  C   UNL     1       1.249   5.197  20.578  0.00  0.00    +0.000 C 
ATOM      6  C   UNL     1       1.308   6.656  20.103  0.00  0.00    +0.000 C 
ATOM      7  C   UNL     1       2.314   6.736  18.923  0.00  0.00    +0.000 C 
ATOM      8  C   UNL     1       3.699   6.163  19.287  0.00  0.00    +0.000 C 
ENDROOT
BRANCH   1  11
ATOM      9  N   UNL     1       6.202   4.187  16.326  0.00  0.00    +0.000 N 
ATOM     10  C   UNL     1       4.975   3.847  16.846  0.00  0.00    +0.000 A 
ATOM     11  C   UNL     1       5.118   3.891  18.225  0.00  0.00    +0.000 A 
ATOM     12  N   UNL     1       6.413   4.308  18.486  0.00  0.00    +0.000 NA
ATOM     13  N   UNL     1       7.067   4.435  17.332  0.00  0.00    +0.000 NA
BRANCH   9  18
ATOM     14  C   UNL     1       7.441   4.835  10.760  0.00  0.00    +0.000 C 
ATOM     15  C   UNL     1       7.148   4.635  12.222  0.00  0.00    +0.000 A 
ATOM     16  C   UNL     1       7.852   5.354  13.197  0.00  0.00    +0.000 A 
ATOM     17  C   UNL     1       7.551   5.204  14.559  0.00  0.00    +0.000 A 
ATOM     18  C   UNL     1       6.557   4.302  14.959  0.00  0.00    +0.000 A 
ATOM     19  C   UNL     1       5.881   3.541  13.999  0.00  0.00    +0.000 A 
ATOM     20  C   UNL     1       6.160   3.731  12.635  0.00  0.00    +0.000 A 
ENDBRANCH   9  18
ENDBRANCH   1  11
BRANCH   6  21
ATOM     21  C   UNL     1       1.707   7.625  21.236  0.00  0.00    +0.000 C 
BRANCH  21  22
ATOM     22  C   UNL     1       0.827   8.838  21.370  0.00  0.00    +0.000 A 
ATOM     23  N   UNL     1       0.257   9.134  22.511  0.00  0.00    +0.000 NA
ATOM     24  C   UNL     1      -0.460  10.263  22.257  0.00  0.00    +0.000 A 
ATOM     25  C   UNL     1      -1.250  11.013  23.097  0.00  0.00    +0.000 A 
ATOM     26  C   UNL     1      -1.841  12.217  22.600  0.00  0.00    +0.000 A 
ATOM     27  C   UNL     1      -2.275  12.562  21.323  0.00  0.00    +0.000 A 
ATOM     28  C   UNL     1      -1.349  11.852  20.534  0.00  0.00    +0.000 A 
ATOM     29  C   UNL     1      -0.463  10.680  20.935  0.00  0.00    +0.000 A 
ATOM     30  N   UNL     1       0.460   9.779  20.379  0.00  0.00    +0.000 N 
ATOM     31  H   UNL     1       0.769   9.777  19.413  0.00  0.00    +0.000 HD
ENDBRANCH  21  22
ENDBRANCH   6  21
TORSDOF 4
ENDMDL
MODEL 8
REMARK VINA RESULT:      -8.0      4.101      6.939
REMARK  Name = 
REMARK  5 active torsions:
REMARK  status: ('A' for Active; 'I' for Inactive)
REMARK    1  A    between atoms: C_1  and  C_2
REMARK    2  A    between atoms: C_5  and  N_6
REMARK    3  A    between atoms: C_8  and  C_9
REMARK    4  A    between atoms: C_14  and  C_15
REMARK    5  A    between atoms: C_15  and  C_16
REMARK                            x       y       z     vdW  Elec       q    Type
REMARK                         _______ _______ _______ _____ _____    ______ ____
ROOT
ATOM      1  C   UNL     1       4.103   3.635  19.266  0.00  0.00    +0.000 C 
ATOM      2  O   UNL     1       3.799   2.497  19.639  0.00  0.00    +0.000 OA
ATOM      3  N   UNL     1       3.592   4.788  19.854  0.00  0.00    +0.000 N 
ATOM      4  C   UNL     1       2.671   4.652  20.953  0.00  0.00    +0.000 C 
ATOM      5  C   UNL     1       1.279   5.153  20.581  0.00  0.00    +0.000 C 
ATOM      6  C   UNL     1       1.326   6.612  20.104  0.00  0.00    +0.000 C 
ATOM      7  C   UNL     1       2.330   6.699  18.923  0.00  0.00    +0.000 C 
ATOM      8  C   UNL     1       3.720   6.137  19.286  0.00  0.00    +0.000 C 
ENDROOT
BRANCH   1  11
ATOM      9  N   UNL     1       6.234   4.188  16.325  0.00  0.00    +0.000 N 
ATOM     10  C   UNL     1       5.008   3.845  16.846  0.00  0.00    +0.000 A 
ATOM     11  C   UNL     1       5.156   3.876  18.225  0.00  0.00    +0.000 A 
ATOM     12  N   UNL     1       6.453   4.288  18.484  0.00  0.00    +0.000 NA
ATOM     13  N   UNL     1       7.103   4.423  17.330  0.00  0.00    +0.000 NA
BRANCH   9  18
ATOM     14  C   UNL     1       7.454   4.884  10.761  0.00  0.00    +0.000 C 
ATOM     15  C   UNL     1       7.166   4.671  12.221  0.00  0.00    +0.000 A 
ATOM     16  C   UNL     1       7.872   5.384  13.201  0.00  0.00    +0.000 A 
ATOM     17  C   UNL     1       7.576   5.222  14.562  0.00  0.00    +0.000 A 
ATOM     18  C   UNL     1       6.585   4.314  14.957  0.00  0.00    +0.000 A 
ATOM     19  C   UNL     1       5.907   3.560  13.993  0.00  0.00    +0.000 A 
ATOM     20  C   UNL     1       6.182   3.761  12.630  0.00  0.00    +0.000 A 
ENDBRANCH   9  18
ENDBRANCH   1  11
BRANCH   6  21
ATOM     21  C   UNL     1       1.719   7.586  21.236  0.00  0.00    +0.000 C 
BRANCH  21  22
ATOM     22  C   UNL     1       0.781   8.746  21.426  0.00  0.00    +0.000 A 
ATOM     23  N   UNL     1       0.457   9.522  20.422  0.00  0.00    +0.000 NA
ATOM     24  C   UNL     1      -0.379  10.452  20.958  0.00  0.00    +0.000 A 
ATOM     25  C   UNL     1      -1.022  11.509  20.358  0.00  0.00    +0.000 A 
ATOM     26  C   UNL     1      -1.921  12.305  21.136  0.00  0.00    +0.000 A 
ATOM     27  C   UNL     1      -1.915  12.632  22.489  0.00  0.00    +0.000 A 
ATOM     28  C   UNL     1      -1.353  11.461  23.036  0.00  0.00    +0.000 A 
ATOM     29  C   UNL     1      -0.547  10.377  22.332  0.00  0.00    +0.000 A 
ATOM     30  N   UNL     1       0.156   9.195  22.613  0.00  0.00    +0.000 N 
ATOM     31  H   UNL     1       0.240   8.765  23.528  0.00  0.00    +0.000 HD
ENDBRANCH  21  22
ENDBRANCH   6  21
TORSDOF 4
ENDMDL
MODEL 9
REMARK VINA RESULT:      -7.9      1.946      2.722
REMARK  Name = 
REMARK  5 active torsions:
REMARK  status: ('A' for Active; 'I' for Inactive)
REMARK    1  A    between atoms: C_1  and  C_2
REMARK    2  A    between atoms: C_5  and  N_6
REMARK    3  A    between atoms: C_8  and  C_9
REMARK    4  A    between atoms: C_14  and  C_15
REMARK    5  A    between atoms: C_15  and  C_16
REMARK                            x       y       z     vdW  Elec       q    Type
REMARK                         _______ _______ _______ _____ _____    ______ ____
ROOT
ATOM      1  C   UNL     1       1.325   8.710  20.922  0.00  0.00    +0.000 C 
ATOM      2  O   UNL     1       1.302   8.713  22.158  0.00  0.00    +0.000 OA
ATOM      3  N   UNL     1       1.002   9.824  20.155  0.00  0.00    +0.000 N 
ATOM      4  C   UNL     1       0.631  11.041  20.828  0.00  0.00    +0.000 C 
ATOM      5  C   UNL     1      -0.828  11.401  20.569  0.00  0.00    +0.000 C 
ATOM      6  C   UNL     1      -1.111  11.519  19.064  0.00  0.00    +0.000 C 
ATOM      7  C   UNL     1      -0.693  10.183  18.392  0.00  0.00    +0.000 C 
ATOM      8  C   UNL     1       0.767   9.794  18.705  0.00  0.00    +0.000 C 
ENDROOT
BRANCH   1  11
ATOM      9  N   UNL     1       2.885   6.230  18.705  0.00  0.00    +0.000 N 
ATOM     10  C   UNL     1       2.651   7.547  19.021  0.00  0.00    +0.000 A 
ATOM     11  C   UNL     1       1.830   7.533  20.140  0.00  0.00    +0.000 A 
ATOM     12  N   UNL     1       1.644   6.206  20.489  0.00  0.00    +0.000 NA
ATOM     13  N   UNL     1       2.244   5.432  19.585  0.00  0.00    +0.000 NA
BRANCH   9  18
ATOM     14  C   UNL     1       6.331   4.185  14.597  0.00  0.00    +0.000 C 
ATOM     15  C   UNL     1       5.394   4.722  15.645  0.00  0.00    +0.000 A 
ATOM     16  C   UNL     1       4.601   3.854  16.407  0.00  0.00    +0.000 A 
ATOM     17  C   UNL     1       3.760   4.346  17.415  0.00  0.00    +0.000 A 
ATOM     18  C   UNL     1       3.683   5.725  17.648  0.00  0.00    +0.000 A 
ATOM     19  C   UNL     1       4.433   6.606  16.861  0.00  0.00    +0.000 A 
ATOM     20  C   UNL     1       5.304   6.100  15.883  0.00  0.00    +0.000 A 
ENDBRANCH   9  18
ENDBRANCH   1  11
BRANCH   6  21
ATOM     21  C   UNL     1      -0.374  12.714  18.423  0.00  0.00    +0.000 C 
BRANCH  21  22
ATOM     22  C   UNL     1      -0.503  14.012  19.171  0.00  0.00    +0.000 A 
ATOM     23  N   UNL     1       0.554  14.717  19.487  0.00  0.00    +0.000 NA
ATOM     24  C   UNL     1       0.065  15.796  20.157  0.00  0.00    +0.000 A 
ATOM     25  C   UNL     1       0.729  16.863  20.713  0.00  0.00    +0.000 A 
ATOM     26  C   UNL     1      -0.031  17.922  21.302  0.00  0.00    +0.000 A 
ATOM     27  C   UNL     1      -1.264  17.911  21.950  0.00  0.00    +0.000 A 
ATOM     28  C   UNL     1      -1.916  16.878  21.248  0.00  0.00    +0.000 A 
ATOM     29  C   UNL     1      -1.302  15.782  20.386  0.00  0.00    +0.000 A 
ATOM     30  N   UNL     1      -1.674  14.642  19.656  0.00  0.00    +0.000 N 
ATOM     31  H   UNL     1      -2.623  14.302  19.540  0.00  0.00    +0.000 HD
ENDBRANCH  21  22
ENDBRANCH   6  21
TORSDOF 4
ENDMDL
