MODEL 1
REMARK VINA RESULT:      -8.0      0.000      0.000
REMARK  Name = 
REMARK  8 active torsions:
REMARK  status: ('A' for Active; 'I' for Inactive)
REMARK    1  A    between atoms: C_1  and  C_2
REMARK    2  A    between atoms: C_2  and  C_3
REMARK    3  A    between atoms: C_2  and  N_22
REMARK    4  A    between atoms: N_5  and  C_6
REMARK    5  A    between atoms: C_10  and  S_11
REMARK    6  A    between atoms: S_11  and  N_14
REMARK    7  A    between atoms: N_14  and  C_15
REMARK    8  A    between atoms: C_15  and  C_16
REMARK                            x       y       z     vdW  Elec       q    Type
REMARK                         _______ _______ _______ _____ _____    ______ ____
ROOT
ATOM      1  C   UNL     1       2.177   7.645  19.371  0.00  0.00    +0.000 C 
ATOM      2  O   UNL     1       1.752   8.386  18.474  0.00  0.00    +0.000 OA
ATOM      3  N   UNL     1       2.015   7.877  20.731  0.00  0.00    +0.000 N 
ATOM      4  H   UNL     1       2.718   7.519  21.359  0.00  0.00    +0.000 HD
ENDROOT
BRANCH   3   5
ATOM      5  C   UNL     1       1.126   8.839  21.236  0.00  0.00    +0.000 A 
ATOM      6  C   UNL     1       0.102   8.510  22.135  0.00  0.00    +0.000 A 
ATOM      7  C   UNL     1      -0.758   9.498  22.612  0.00  0.00    +0.000 A 
ATOM      8  C   UNL     1      -0.616  10.817  22.184  0.00  0.00    +0.000 A 
ATOM      9  C   UNL     1       0.404  11.133  21.283  0.00  0.00    +0.000 A 
ATOM     10  C   UNL     1       1.307  10.161  20.848  0.00  0.00    +0.000 A 
BRANCH   9  11
ATOM     11  S   UNL     1       0.619  12.801  20.724  0.00  0.00    +0.000 S 
ATOM     12  O   UNL     1       0.736  13.650  21.887  0.00  0.00    +0.000 OA
ATOM     13  O   UNL     1       1.644  12.771  19.700  0.00  0.00    +0.000 OA
BRANCH  11  14
ATOM     14  N   UNL     1      -0.842  13.130  19.944  0.00  0.00    +0.000 NA
ATOM     15  H   UNL     1      -1.197  14.069  20.152  0.00  0.00    +0.000 HD
BRANCH  14  16
ATOM     16  C   UNL     1      -0.848  12.857  18.499  0.00  0.00    +0.000 C 
BRANCH  16  17
ATOM     17  C   UNL     1      -1.703  11.677  18.214  0.00  0.00    +0.000 A 
ATOM     18  C   UNL     1      -1.420  10.337  18.049  0.00  0.00    +0.000 A 
ATOM     19  C   UNL     1      -2.636   9.714  17.679  0.00  0.00    +0.000 A 
ATOM     20  C   UNL     1      -3.585  10.706  17.669  0.00  0.00    +0.000 A 
ATOM     21  O   UNL     1      -3.033  11.904  17.998  0.00  0.00    +0.000 OA
ENDBRANCH  16  17
ENDBRANCH  14  16
ENDBRANCH  11  14
ENDBRANCH   9  11
ENDBRANCH   3   5
BRANCH   1  23
ATOM     22  C   UNL     1       3.505   6.427  17.667  0.00  0.00    +0.000 C 
ATOM     23  C   UNL     1       2.889   6.327  19.059  0.00  0.00    +0.000 C 
BRANCH  23  24
ATOM     24  N   UNL     1       1.947   5.228  19.308  0.00  0.00    +0.000 N 
ATOM     25  C   UNL     1       2.353   4.466  20.386  0.00  0.00    +0.000 C 
ATOM     26  O   UNL     1       2.270   4.695  21.578  0.00  0.00    +0.000 OA
ATOM     27  C   UNL     1       2.932   3.258  19.856  0.00  0.00    +0.000 A 
ATOM     28  C   UNL     1       3.965   2.492  20.353  0.00  0.00    +0.000 A 
ATOM     29  C   UNL     1       4.413   1.455  19.542  0.00  0.00    +0.000 A 
ATOM     30  C   UNL     1       3.789   1.194  18.298  0.00  0.00    +0.000 A 
ATOM     31  C   UNL     1       2.783   2.030  17.802  0.00  0.00    +0.000 A 
ATOM     32  C   UNL     1       2.417   3.100  18.592  0.00  0.00    +0.000 A 
ATOM     33  C   UNL     1       1.713   4.346  18.270  0.00  0.00    +0.000 C 
ATOM     34  O   UNL     1       1.120   4.536  17.226  0.00  0.00    +0.000 OA
ENDBRANCH  23  24
ENDBRANCH   1  23
TORSDOF 7
ENDMDL
MODEL 2
REMARK VINA RESULT:      -8.0      2.222      3.302
REMARK  Name = 
REMARK  8 active torsions:
REMARK  status: ('A' for Active; 'I' for Inactive)
REMARK    1  A    between atoms: C_1  and  C_2
REMARK    2  A    between atoms: C_2  and  C_3
REMARK    3  A    between atoms: C_2  and  N_22
REMARK    4  A    between atoms: N_5  and  C_6
REMARK    5  A    between atoms: C_10  and  S_11
REMARK    6  A    between atoms: S_11  and  N_14
REMARK    7  A    between atoms: N_14  and  C_15
REMARK    8  A    between atoms: C_15  and  C_16
REMARK                            x       y       z     vdW  Elec       q    Type
REMARK                         _______ _______ _______ _____ _____    ______ ____
ROOT
ATOM      1  C   UNL     1       2.349   6.046  19.862  0.00  0.00    +0.000 C 
ATOM      2  O   UNL     1       1.944   5.594  20.943  0.00  0.00    +0.000 OA
ATOM      3  N   UNL     1       2.043   7.308  19.369  0.00  0.00    +0.000 N 
ATOM      4  H   UNL     1       2.021   7.432  18.369  0.00  0.00    +0.000 HD
ENDROOT
BRANCH   3   5
ATOM      5  C   UNL     1       1.458   8.310  20.159  0.00  0.00    +0.000 A 
ATOM      6  C   UNL     1       1.017   8.067  21.467  0.00  0.00    +0.000 A 
ATOM      7  C   UNL     1       0.442   9.093  22.216  0.00  0.00    +0.000 A 
ATOM      8  C   UNL     1       0.284  10.362  21.663  0.00  0.00    +0.000 A 
ATOM      9  C   UNL     1       0.722  10.592  20.355  0.00  0.00    +0.000 A 
ATOM     10  C   UNL     1       1.353   9.587  19.620  0.00  0.00    +0.000 A 
BRANCH   9  11
ATOM     11  S   UNL     1       0.545  12.196  19.622  0.00  0.00    +0.000 S 
ATOM     12  O   UNL     1      -0.160  13.040  20.559  0.00  0.00    +0.000 OA
ATOM     13  O   UNL     1       1.846  12.563  19.098  0.00  0.00    +0.000 OA
BRANCH  11  14
ATOM     14  N   UNL     1      -0.451  11.896  18.291  0.00  0.00    +0.000 NA
ATOM     15  H   UNL     1      -0.033  11.236  17.627  0.00  0.00    +0.000 HD
BRANCH  14  16
ATOM     16  C   UNL     1      -1.835  11.526  18.624  0.00  0.00    +0.000 C 
BRANCH  16  17
ATOM     17  C   UNL     1      -2.504  10.959  17.425  0.00  0.00    +0.000 A 
ATOM     18  C   UNL     1      -2.162   9.944  16.557  0.00  0.00    +0.000 A 
ATOM     19  C   UNL     1      -3.141   9.943  15.536  0.00  0.00    +0.000 A 
ATOM     20  C   UNL     1      -4.032  10.936  15.860  0.00  0.00    +0.000 A 
ATOM     21  O   UNL     1      -3.659  11.559  17.010  0.00  0.00    +0.000 OA
ENDBRANCH  16  17
ENDBRANCH  14  16
ENDBRANCH  11  14
ENDBRANCH   9  11
ENDBRANCH   3   5
BRANCH   1  23
ATOM     22  C   UNL     1       3.514   3.875  19.577  0.00  0.00    +0.000 C 
ATOM     23  C   UNL     1       3.307   5.257  18.966  0.00  0.00    +0.000 C 
BRANCH  23  24
ATOM     24  N   UNL     1       4.498   6.084  18.732  0.00  0.00    +0.000 N 
ATOM     25  C   UNL     1       4.439   6.694  17.495  0.00  0.00    +0.000 C 
ATOM     26  O   UNL     1       3.799   7.663  17.133  0.00  0.00    +0.000 OA
ATOM     27  C   UNL     1       5.320   5.962  16.619  0.00  0.00    +0.000 A 
ATOM     28  C   UNL     1       5.210   5.728  15.265  0.00  0.00    +0.000 A 
ATOM     29  C   UNL     1       6.139   4.854  14.711  0.00  0.00    +0.000 A 
ATOM     30  C   UNL     1       7.162   4.290  15.512  0.00  0.00    +0.000 A 
ATOM     31  C   UNL     1       7.204   4.506  16.893  0.00  0.00    +0.000 A 
ATOM     32  C   UNL     1       6.220   5.310  17.428  0.00  0.00    +0.000 A 
ATOM     33  C   UNL     1       5.728   5.458  18.802  0.00  0.00    +0.000 C 
ATOM     34  O   UNL     1       6.303   5.013  19.776  0.00  0.00    +0.000 OA
ENDBRANCH  23  24
ENDBRANCH   1  23
TORSDOF 7
ENDMDL
MODEL 3
REMARK VINA RESULT:      -8.0      3.331      8.747
REMARK  Name = 
REMARK  8 active torsions:
REMARK  status: ('A' for Active; 'I' for Inactive)
REMARK    1  A    between atoms: C_1  and  C_2
REMARK    2  A    between atoms: C_2  and  C_3
REMARK    3  A    between atoms: C_2  and  N_22
REMARK    4  A    between atoms: N_5  and  C_6
REMARK    5  A    between atoms: C_10  and  S_11
REMARK    6  A    between atoms: S_11  and  N_14
REMARK    7  A    between atoms: N_14  and  C_15
REMARK    8  A    between atoms: C_15  and  C_16
REMARK                            x       y       z     vdW  Elec       q    Type
REMARK                         _______ _______ _______ _____ _____    ______ ____
ROOT
ATOM      1  C   UNL     1       0.832   8.401  20.996  0.00  0.00    +0.000 C 
ATOM      2  O   UNL     1      -0.175   7.814  21.417  0.00  0.00    +0.000 OA
ATOM      3  N   UNL     1       1.980   7.769  20.536  0.00  0.00    +0.000 N 
ATOM      4  H   UNL     1       2.859   8.253  20.634  0.00  0.00    +0.000 HD
ENDROOT
BRANCH   3   5
ATOM      5  C   UNL     1       2.027   6.395  20.249  0.00  0.00    +0.000 A 
ATOM      6  C   UNL     1       1.031   5.508  20.680  0.00  0.00    +0.000 A 
ATOM      7  C   UNL     1       1.118   4.151  20.371  0.00  0.00    +0.000 A 
ATOM      8  C   UNL     1       2.205   3.665  19.648  0.00  0.00    +0.000 A 
ATOM      9  C   UNL     1       3.196   4.557  19.229  0.00  0.00    +0.000 A 
ATOM     10  C   UNL     1       3.086   5.926  19.482  0.00  0.00    +0.000 A 
BRANCH   9  11
ATOM     11  S   UNL     1       4.589   3.975  18.300  0.00  0.00    +0.000 S 
ATOM     12  O   UNL     1       5.689   3.785  19.217  0.00  0.00    +0.000 OA
ATOM     13  O   UNL     1       4.109   2.898  17.456  0.00  0.00    +0.000 OA
BRANCH  11  14
ATOM     14  N   UNL     1       4.936   5.276  17.282  0.00  0.00    +0.000 NA
ATOM     15  H   UNL     1       4.704   6.180  17.705  0.00  0.00    +0.000 HD
BRANCH  14  16
ATOM     16  C   UNL     1       6.295   5.276  16.719  0.00  0.00    +0.000 C 
BRANCH  16  17
ATOM     17  C   UNL     1       7.101   6.350  17.354  0.00  0.00    +0.000 A 
ATOM     18  C   UNL     1       7.858   6.391  18.507  0.00  0.00    +0.000 A 
ATOM     19  C   UNL     1       8.296   7.729  18.651  0.00  0.00    +0.000 A 
ATOM     20  C   UNL     1       7.803   8.411  17.565  0.00  0.00    +0.000 A 
ATOM     21  O   UNL     1       7.079   7.583  16.766  0.00  0.00    +0.000 OA
ENDBRANCH  16  17
ENDBRANCH  14  16
ENDBRANCH  11  14
ENDBRANCH   9  11
ENDBRANCH   3   5
BRANCH   1  23
ATOM     22  C   UNL     1       0.235  10.530  22.120  0.00  0.00    +0.000 C 
ATOM     23  C   UNL     1       0.889   9.926  20.881  0.00  0.00    +0.000 C 
BRANCH  23  24
ATOM     24  N   UNL     1       0.343  10.305  19.571  0.00  0.00    +0.000 N 
ATOM     25  C   UNL     1       1.358  10.578  18.676  0.00  0.00    +0.000 C 
ATOM     26  O   UNL     1       2.080   9.817  18.060  0.00  0.00    +0.000 OA
ATOM     27  C   UNL     1       1.444  12.012  18.558  0.00  0.00    +0.000 A 
ATOM     28  C   UNL     1       2.549  12.806  18.334  0.00  0.00    +0.000 A 
ATOM     29  C   UNL     1       2.351  14.180  18.420  0.00  0.00    +0.000 A 
ATOM     30  C   UNL     1       1.063  14.706  18.679  0.00  0.00    +0.000 A 
ATOM     31  C   UNL     1      -0.021  13.866  18.959  0.00  0.00    +0.000 A 
ATOM     32  C   UNL     1       0.224  12.510  18.948  0.00  0.00    +0.000 A 
ATOM     33  C   UNL     1      -0.517  11.386  19.532  0.00  0.00    +0.000 C 
ATOM     34  O   UNL     1      -1.651  11.476  19.961  0.00  0.00    +0.000 OA
ENDBRANCH  23  24
ENDBRANCH   1  23
TORSDOF 7
ENDMDL
MODEL 4
REMARK VINA RESULT:      -7.8      1.138      1.357
REMARK  Name = 
REMARK  8 active torsions:
REMARK  status: ('A' for Active; 'I' for Inactive)
REMARK    1  A    between atoms: C_1  and  C_2
REMARK    2  A    between atoms: C_2  and  C_3
REMARK    3  A    between atoms: C_2  and  N_22
REMARK    4  A    between atoms: N_5  and  C_6
REMARK    5  A    between atoms: C_10  and  S_11
REMARK    6  A    between atoms: S_11  and  N_14
REMARK    7  A    between atoms: N_14  and  C_15
REMARK    8  A    between atoms: C_15  and  C_16
REMARK                            x       y       z     vdW  Elec       q    Type
REMARK                         _______ _______ _______ _____ _____    ______ ____
ROOT
ATOM      1  C   UNL     1       2.133   7.652  19.401  0.00  0.00    +0.000 C 
ATOM      2  O   UNL     1       1.680   8.303  18.449  0.00  0.00    +0.000 OA
ATOM      3  N   UNL     1       1.973   7.992  20.738  0.00  0.00    +0.000 N 
ATOM      4  H   UNL     1       2.690   7.708  21.387  0.00  0.00    +0.000 HD
ENDROOT
BRANCH   3   5
ATOM      5  C   UNL     1       1.058   8.965  21.169  0.00  0.00    +0.000 A 
ATOM      6  C   UNL     1       0.353   8.845  22.375  0.00  0.00    +0.000 A 
ATOM      7  C   UNL     1      -0.546   9.838  22.765  0.00  0.00    +0.000 A 
ATOM      8  C   UNL     1      -0.764  10.946  21.948  0.00  0.00    +0.000 A 
ATOM      9  C   UNL     1      -0.061  11.053  20.745  0.00  0.00    +0.000 A 
ATOM     10  C   UNL     1       0.886  10.094  20.377  0.00  0.00    +0.000 A 
BRANCH   9  11
ATOM     11  S   UNL     1      -0.307  12.452  19.687  0.00  0.00    +0.000 S 
ATOM     12  O   UNL     1      -1.383  13.244  20.236  0.00  0.00    +0.000 OA
ATOM     13  O   UNL     1       1.002  13.022  19.434  0.00  0.00    +0.000 OA
BRANCH  11  14
ATOM     14  N   UNL     1      -0.820  11.748  18.240  0.00  0.00    +0.000 NA
ATOM     15  H   UNL     1      -0.059  11.279  17.739  0.00  0.00    +0.000 HD
BRANCH  14  16
ATOM     16  C   UNL     1      -2.004  10.883  18.359  0.00  0.00    +0.000 C 
BRANCH  16  17
ATOM     17  C   UNL     1      -2.677  10.769  17.040  0.00  0.00    +0.000 A 
ATOM     18  C   UNL     1      -3.867  11.267  16.553  0.00  0.00    +0.000 A 
ATOM     19  C   UNL     1      -4.029  10.723  15.257  0.00  0.00    +0.000 A 
ATOM     20  C   UNL     1      -2.917   9.952  15.025  0.00  0.00    +0.000 A 
ATOM     21  O   UNL     1      -2.084   9.976  16.100  0.00  0.00    +0.000 OA
ENDBRANCH  16  17
ENDBRANCH  14  16
ENDBRANCH  11  14
ENDBRANCH   9  11
ENDBRANCH   3   5
BRANCH   1  23
ATOM     22  C   UNL     1       3.612   6.399  17.854  0.00  0.00    +0.000 C 
ATOM     23  C   UNL     1       2.884   6.335  19.192  0.00  0.00    +0.000 C 
BRANCH  23  24
ATOM     24  N   UNL     1       1.936   5.232  19.400  0.00  0.00    +0.000 N 
ATOM     25  C   UNL     1       2.338   4.427  20.447  0.00  0.00    +0.000 C 
ATOM     26  O   UNL     1       2.256   4.610  21.647  0.00  0.00    +0.000 OA
ATOM     27  C   UNL     1       2.912   3.237  19.871  0.00  0.00    +0.000 A 
ATOM     28  C   UNL     1       3.941   2.448  20.339  0.00  0.00    +0.000 A 
ATOM     29  C   UNL     1       4.384   1.441  19.488  0.00  0.00    +0.000 A 
ATOM     30  C   UNL     1       3.759   1.231  18.235  0.00  0.00    +0.000 A 
ATOM     31  C   UNL     1       2.757   2.091  17.772  0.00  0.00    +0.000 A 
ATOM     32  C   UNL     1       2.396   3.131  18.601  0.00  0.00    +0.000 A 
ATOM     33  C   UNL     1       1.698   4.392  18.328  0.00  0.00    +0.000 C 
ATOM     34  O   UNL     1       1.106   4.625  17.293  0.00  0.00    +0.000 OA
ENDBRANCH  23  24
ENDBRANCH   1  23
TORSDOF 7
ENDMDL
MODEL 5
REMARK VINA RESULT:      -7.8      2.124      3.241
REMARK  Name = 
REMARK  8 active torsions:
REMARK  status: ('A' for Active; 'I' for Inactive)
REMARK    1  A    between atoms: C_1  and  C_2
REMARK    2  A    between atoms: C_2  and  C_3
REMARK    3  A    between atoms: C_2  and  N_22
REMARK    4  A    between atoms: N_5  and  C_6
REMARK    5  A    between atoms: C_10  and  S_11
REMARK    6  A    between atoms: S_11  and  N_14
REMARK    7  A    between atoms: N_14  and  C_15
REMARK    8  A    between atoms: C_15  and  C_16
REMARK                            x       y       z     vdW  Elec       q    Type
REMARK                         _______ _______ _______ _____ _____    ______ ____
ROOT
ATOM      1  C   UNL     1       1.847   4.503  19.223  0.00  0.00    +0.000 C 
ATOM      2  O   UNL     1       1.077   4.566  18.254  0.00  0.00    +0.000 OA
ATOM      3  N   UNL     1       2.552   5.581  19.744  0.00  0.00    +0.000 N 
ATOM      4  H   UNL     1       3.434   5.395  20.195  0.00  0.00    +0.000 HD
ENDROOT
BRANCH   3   5
ATOM      5  C   UNL     1       2.269   6.911  19.396  0.00  0.00    +0.000 A 
ATOM      6  C   UNL     1       2.495   7.409  18.106  0.00  0.00    +0.000 A 
ATOM      7  C   UNL     1       2.198   8.738  17.804  0.00  0.00    +0.000 A 
ATOM      8  C   UNL     1       1.694   9.585  18.790  0.00  0.00    +0.000 A 
ATOM      9  C   UNL     1       1.479   9.079  20.075  0.00  0.00    +0.000 A 
ATOM     10  C   UNL     1       1.716   7.735  20.369  0.00  0.00    +0.000 A 
BRANCH   9  11
ATOM     11  S   UNL     1       0.830  10.125  21.350  0.00  0.00    +0.000 S 
ATOM     12  O   UNL     1       0.966   9.431  22.610  0.00  0.00    +0.000 OA
ATOM     13  O   UNL     1       1.401  11.442  21.144  0.00  0.00    +0.000 OA
BRANCH  11  14
ATOM     14  N   UNL     1      -0.808  10.235  20.954  0.00  0.00    +0.000 NA
ATOM     15  H   UNL     1      -1.420  10.033  21.751  0.00  0.00    +0.000 HD
BRANCH  14  16
ATOM     16  C   UNL     1      -1.198  11.479  20.273  0.00  0.00    +0.000 C 
BRANCH  16  17
ATOM     17  C   UNL     1      -1.918  11.157  19.015  0.00  0.00    +0.000 A 
ATOM     18  C   UNL     1      -2.972  11.761  18.361  0.00  0.00    +0.000 A 
ATOM     19  C   UNL     1      -3.297  10.925  17.266  0.00  0.00    +0.000 A 
ATOM     20  C   UNL     1      -2.404   9.883  17.305  0.00  0.00    +0.000 A 
ATOM     21  O   UNL     1      -1.557  10.014  18.360  0.00  0.00    +0.000 OA
ENDBRANCH  16  17
ENDBRANCH  14  16
ENDBRANCH  11  14
ENDBRANCH   9  11
ENDBRANCH   3   5
BRANCH   1  23
ATOM     22  C   UNL     1       2.313   3.554  21.467  0.00  0.00    +0.000 C 
ATOM     23  C   UNL     1       2.055   3.204  20.005  0.00  0.00    +0.000 C 
BRANCH  23  24
ATOM     24  N   UNL     1       3.073   2.408  19.306  0.00  0.00    +0.000 N 
ATOM     25  C   UNL     1       4.340   2.728  19.752  0.00  0.00    +0.000 C 
ATOM     26  O   UNL     1       4.912   2.403  20.775  0.00  0.00    +0.000 OA
ATOM     27  C   UNL     1       4.943   3.567  18.747  0.00  0.00    +0.000 A 
ATOM     28  C   UNL     1       5.845   4.600  18.896  0.00  0.00    +0.000 A 
ATOM     29  C   UNL     1       6.139   5.335  17.753  0.00  0.00    +0.000 A 
ATOM     30  C   UNL     1       5.564   4.986  16.507  0.00  0.00    +0.000 A 
ATOM     31  C   UNL     1       4.608   3.969  16.408  0.00  0.00    +0.000 A 
ATOM     32  C   UNL     1       4.275   3.312  17.573  0.00  0.00    +0.000 A 
ATOM     33  C   UNL     1       3.108   2.497  17.927  0.00  0.00    +0.000 C 
ATOM     34  O   UNL     1       2.308   2.075  17.115  0.00  0.00    +0.000 OA
ENDBRANCH  23  24
ENDBRANCH   1  23
TORSDOF 7
ENDMDL
MODEL 6
REMARK VINA RESULT:      -7.8      3.952      9.249
REMARK  Name = 
REMARK  8 active torsions:
REMARK  status: ('A' for Active; 'I' for Inactive)
REMARK    1  A    between atoms: C_1  and  C_2
REMARK    2  A    between atoms: C_2  and  C_3
REMARK    3  A    between atoms: C_2  and  N_22
REMARK    4  A    between atoms: N_5  and  C_6
REMARK    5  A    between atoms: C_10  and  S_11
REMARK    6  A    between atoms: S_11  and  N_14
REMARK    7  A    between atoms: N_14  and  C_15
REMARK    8  A    between atoms: C_15  and  C_16
REMARK                            x       y       z     vdW  Elec       q    Type
REMARK                         _______ _______ _______ _____ _____    ______ ____
ROOT
ATOM      1  C   UNL     1       1.399   8.317  20.195  0.00  0.00    +0.000 C 
ATOM      2  O   UNL     1       1.741   7.554  21.110  0.00  0.00    +0.000 OA
ATOM      3  N   UNL     1       1.881   8.256  18.894  0.00  0.00    +0.000 N 
ATOM      4  H   UNL     1       1.915   9.112  18.362  0.00  0.00    +0.000 HD
ENDROOT
BRANCH   3   5
ATOM      5  C   UNL     1       2.611   7.161  18.405  0.00  0.00    +0.000 A 
ATOM      6  C   UNL     1       2.044   5.886  18.271  0.00  0.00    +0.000 A 
ATOM      7  C   UNL     1       2.806   4.827  17.779  0.00  0.00    +0.000 A 
ATOM      8  C   UNL     1       4.143   5.025  17.437  0.00  0.00    +0.000 A 
ATOM      9  C   UNL     1       4.700   6.299  17.581  0.00  0.00    +0.000 A 
ATOM     10  C   UNL     1       3.927   7.378  18.015  0.00  0.00    +0.000 A 
BRANCH   9  11
ATOM     11  S   UNL     1       6.394   6.588  17.148  0.00  0.00    +0.000 S 
ATOM     12  O   UNL     1       6.630   8.012  17.193  0.00  0.00    +0.000 OA
ATOM     13  O   UNL     1       7.191   5.661  17.928  0.00  0.00    +0.000 OA
BRANCH  11  14
ATOM     14  N   UNL     1       6.469   6.066  15.544  0.00  0.00    +0.000 NA
ATOM     15  H   UNL     1       6.935   6.742  14.931  0.00  0.00    +0.000 HD
BRANCH  14  16
ATOM     16  C   UNL     1       7.005   4.709  15.358  0.00  0.00    +0.000 C 
BRANCH  16  17
ATOM     17  C   UNL     1       6.920   4.327  13.926  0.00  0.00    +0.000 A 
ATOM     18  C   UNL     1       7.587   4.766  12.801  0.00  0.00    +0.000 A 
ATOM     19  C   UNL     1       6.989   4.109  11.699  0.00  0.00    +0.000 A 
ATOM     20  C   UNL     1       6.018   3.292  12.223  0.00  0.00    +0.000 A 
ATOM     21  O   UNL     1       5.969   3.411  13.577  0.00  0.00    +0.000 OA
ENDBRANCH  16  17
ENDBRANCH  14  16
ENDBRANCH  11  14
ENDBRANCH   9  11
ENDBRANCH   3   5
BRANCH   1  23
ATOM     22  C   UNL     1      -0.163   9.853  19.031  0.00  0.00    +0.000 C 
ATOM     23  C   UNL     1       0.331   9.394  20.399  0.00  0.00    +0.000 C 
BRANCH  23  24
ATOM     24  N   UNL     1       0.880  10.415  21.302  0.00  0.00    +0.000 N 
ATOM     25  C   UNL     1       0.208  10.418  22.508  0.00  0.00    +0.000 C 
ATOM     26  O   UNL     1       0.298   9.657  23.453  0.00  0.00    +0.000 OA
ATOM     27  C   UNL     1      -0.685  11.549  22.492  0.00  0.00    +0.000 A 
ATOM     28  C   UNL     1      -1.925  11.692  23.077  0.00  0.00    +0.000 A 
ATOM     29  C   UNL     1      -2.627  12.851  22.764  0.00  0.00    +0.000 A 
ATOM     30  C   UNL     1      -2.052  13.835  21.925  0.00  0.00    +0.000 A 
ATOM     31  C   UNL     1      -0.816  13.627  21.304  0.00  0.00    +0.000 A 
ATOM     32  C   UNL     1      -0.180  12.432  21.568  0.00  0.00    +0.000 A 
ATOM     33  C   UNL     1       0.885  11.722  20.852  0.00  0.00    +0.000 C 
ATOM     34  O   UNL     1       1.559  12.224  19.973  0.00  0.00    +0.000 OA
ENDBRANCH  23  24
ENDBRANCH   1  23
TORSDOF 7
ENDMDL
MODEL 7
REMARK VINA RESULT:      -7.7      3.999      9.338
REMARK  Name = 
REMARK  8 active torsions:
REMARK  status: ('A' for Active; 'I' for Inactive)
REMARK    1  A    between atoms: C_1  and  C_2
REMARK    2  A    between atoms: C_2  and  C_3
REMARK    3  A    between atoms: C_2  and  N_22
REMARK    4  A    between atoms: N_5  and  C_6
REMARK    5  A    between atoms: C_10  and  S_11
REMARK    6  A    between atoms: S_11  and  N_14
REMARK    7  A    between atoms: N_14  and  C_15
REMARK    8  A    between atoms: C_15  and  C_16
REMARK                            x       y       z     vdW  Elec       q    Type
REMARK                         _______ _______ _______ _____ _____    ______ ____
ROOT
ATOM      1  C   UNL     1       1.924   8.440  18.542  0.00  0.00    +0.000 C 
ATOM      2  O   UNL     1       2.085   8.592  17.323  0.00  0.00    +0.000 OA
ATOM      3  N   UNL     1       2.096   7.238  19.218  0.00  0.00    +0.000 N 
ATOM      4  H   UNL     1       1.550   7.083  20.051  0.00  0.00    +0.000 HD
ENDROOT
BRANCH   3   5
ATOM      5  C   UNL     1       2.725   6.125  18.639  0.00  0.00    +0.000 A 
ATOM      6  C   UNL     1       2.030   4.944  18.345  0.00  0.00    +0.000 A 
ATOM      7  C   UNL     1       2.695   3.863  17.769  0.00  0.00    +0.000 A 
ATOM      8  C   UNL     1       4.060   3.942  17.498  0.00  0.00    +0.000 A 
ATOM      9  C   UNL     1       4.745   5.123  17.801  0.00  0.00    +0.000 A 
ATOM     10  C   UNL     1       4.074   6.231  18.322  0.00  0.00    +0.000 A 
BRANCH   9  11
ATOM     11  S   UNL     1       6.479   5.262  17.463  0.00  0.00    +0.000 S 
ATOM     12  O   UNL     1       6.714   6.553  16.857  0.00  0.00    +0.000 OA
ATOM     13  O   UNL     1       7.175   4.851  18.667  0.00  0.00    +0.000 OA
BRANCH  11  14
ATOM     14  N   UNL     1       6.739   4.055  16.312  0.00  0.00    +0.000 NA
ATOM     15  H   UNL     1       6.881   3.132  16.734  0.00  0.00    +0.000 HD
BRANCH  14  16
ATOM     16  C   UNL     1       5.744   4.007  15.230  0.00  0.00    +0.000 C 
BRANCH  16  17
ATOM     17  C   UNL     1       6.407   4.266  13.926  0.00  0.00    +0.000 A 
ATOM     18  C   UNL     1       6.332   3.639  12.700  0.00  0.00    +0.000 A 
ATOM     19  C   UNL     1       7.289   4.269  11.869  0.00  0.00    +0.000 A 
ATOM     20  C   UNL     1       7.864   5.256  12.630  0.00  0.00    +0.000 A 
ATOM     21  O   UNL     1       7.333   5.269  13.882  0.00  0.00    +0.000 OA
ENDBRANCH  16  17
ENDBRANCH  14  16
ENDBRANCH  11  14
ENDBRANCH   9  11
ENDBRANCH   3   5
BRANCH   1  23
ATOM     22  C   UNL     1       0.823   9.067  20.674  0.00  0.00    +0.000 C 
ATOM     23  C   UNL     1       1.571   9.611  19.461  0.00  0.00    +0.000 C 
BRANCH  23  24
ATOM     24  N   UNL     1       0.901  10.639  18.653  0.00  0.00    +0.000 N 
ATOM     25  C   UNL     1       1.475  11.878  18.858  0.00  0.00    +0.000 C 
ATOM     26  O   UNL     1       2.515  12.337  18.426  0.00  0.00    +0.000 OA
ATOM     27  C   UNL     1       0.591  12.616  19.725  0.00  0.00    +0.000 A 
ATOM     28  C   UNL     1       0.893  13.559  20.684  0.00  0.00    +0.000 A 
ATOM     29  C   UNL     1      -0.163  13.996  21.477  0.00  0.00    +0.000 A 
ATOM     30  C   UNL     1      -1.475  13.514  21.255  0.00  0.00    +0.000 A 
ATOM     31  C   UNL     1      -1.731  12.514  20.311  0.00  0.00    +0.000 A 
ATOM     32  C   UNL     1      -0.651  12.041  19.597  0.00  0.00    +0.000 A 
ATOM     33  C   UNL     1      -0.459  10.802  18.836  0.00  0.00    +0.000 C 
ATOM     34  O   UNL     1      -1.365  10.054  18.525  0.00  0.00    +0.000 OA
ENDBRANCH  23  24
ENDBRANCH   1  23
TORSDOF 7
ENDMDL
MODEL 8
REMARK VINA RESULT:      -7.7      4.255      9.036
REMARK  Name = 
REMARK  8 active torsions:
REMARK  status: ('A' for Active; 'I' for Inactive)
REMARK    1  A    between atoms: C_1  and  C_2
REMARK    2  A    between atoms: C_2  and  C_3
REMARK    3  A    between atoms: C_2  and  N_22
REMARK    4  A    between atoms: N_5  and  C_6
REMARK    5  A    between atoms: C_10  and  S_11
REMARK    6  A    between atoms: S_11  and  N_14
REMARK    7  A    between atoms: N_14  and  C_15
REMARK    8  A    between atoms: C_15  and  C_16
REMARK                            x       y       z     vdW  Elec       q    Type
REMARK                         _______ _______ _______ _____ _____    ______ ____
ROOT
ATOM      1  C   UNL     1       1.880   8.227  19.440  0.00  0.00    +0.000 C 
ATOM      2  O   UNL     1       2.136   7.569  20.459  0.00  0.00    +0.000 OA
ATOM      3  N   UNL     1       2.437   7.994  18.189  0.00  0.00    +0.000 N 
ATOM      4  H   UNL     1       2.537   8.778  17.563  0.00  0.00    +0.000 HD
ENDROOT
BRANCH   3   5
ATOM      5  C   UNL     1       3.149   6.824  17.881  0.00  0.00    +0.000 A 
ATOM      6  C   UNL     1       2.538   5.563  17.853  0.00  0.00    +0.000 A 
ATOM      7  C   UNL     1       3.285   4.428  17.541  0.00  0.00    +0.000 A 
ATOM      8  C   UNL     1       4.648   4.537  17.274  0.00  0.00    +0.000 A 
ATOM      9  C   UNL     1       5.249   5.799  17.311  0.00  0.00    +0.000 A 
ATOM     10  C   UNL     1       4.497   6.947  17.563  0.00  0.00    +0.000 A 
BRANCH   9  11
ATOM     11  S   UNL     1       6.979   5.976  16.968  0.00  0.00    +0.000 S 
ATOM     12  O   UNL     1       7.708   5.175  17.925  0.00  0.00    +0.000 OA
ATOM     13  O   UNL     1       7.144   5.789  15.540  0.00  0.00    +0.000 OA
BRANCH  11  14
ATOM     14  N   UNL     1       7.263   7.610  17.285  0.00  0.00    +0.000 NA
ATOM     15  H   UNL     1       6.396   8.153  17.355  0.00  0.00    +0.000 HD
BRANCH  14  16
ATOM     16  C   UNL     1       8.161   7.874  18.419  0.00  0.00    +0.000 C 
BRANCH  16  17
ATOM     17  C   UNL     1       8.528   9.313  18.443  0.00  0.00    +0.000 A 
ATOM     18  C   UNL     1       8.225  10.369  17.609  0.00  0.00    +0.000 A 
ATOM     19  C   UNL     1       8.963  11.479  18.083  0.00  0.00    +0.000 A 
ATOM     20  C   UNL     1       9.646  11.039  19.189  0.00  0.00    +0.000 A 
ATOM     21  O   UNL     1       9.387   9.725  19.423  0.00  0.00    +0.000 OA
ENDBRANCH  16  17
ENDBRANCH  14  16
ENDBRANCH  11  14
ENDBRANCH   9  11
ENDBRANCH   3   5
BRANCH   1  23
ATOM     22  C   UNL     1       0.424   9.635  18.008  0.00  0.00    +0.000 C 
ATOM     23  C   UNL     1       0.847   9.356  19.447  0.00  0.00    +0.000 C 
BRANCH  23  24
ATOM     24  N   UNL     1       1.398  10.474  20.224  0.00  0.00    +0.000 N 
ATOM     25  C   UNL     1       0.794  10.558  21.462  0.00  0.00    +0.000 C 
ATOM     26  O   UNL     1       0.970   9.888  22.462  0.00  0.00    +0.000 OA
ATOM     27  C   UNL     1      -0.149  11.646  21.401  0.00  0.00    +0.000 A 
ATOM     28  C   UNL     1      -1.360  11.791  22.043  0.00  0.00    +0.000 A 
ATOM     29  C   UNL     1      -2.130  12.888  21.673  0.00  0.00    +0.000 A 
ATOM     30  C   UNL     1      -1.647  13.816  20.719  0.00  0.00    +0.000 A 
ATOM     31  C   UNL     1      -0.439  13.603  20.047  0.00  0.00    +0.000 A 
ATOM     32  C   UNL     1       0.264  12.463  20.375  0.00  0.00    +0.000 A 
ATOM     33  C   UNL     1       1.319  11.735  19.662  0.00  0.00    +0.000 C 
ATOM     34  O   UNL     1       1.920  12.183  18.705  0.00  0.00    +0.000 OA
ENDBRANCH  23  24
ENDBRANCH   1  23
TORSDOF 7
ENDMDL
MODEL 9
REMARK VINA RESULT:      -7.6      3.944      9.290
REMARK  Name = 
REMARK  8 active torsions:
REMARK  status: ('A' for Active; 'I' for Inactive)
REMARK    1  A    between atoms: C_1  and  C_2
REMARK    2  A    between atoms: C_2  and  C_3
REMARK    3  A    between atoms: C_2  and  N_22
REMARK    4  A    between atoms: N_5  and  C_6
REMARK    5  A    between atoms: C_10  and  S_11
REMARK    6  A    between atoms: S_11  and  N_14
REMARK    7  A    between atoms: N_14  and  C_15
REMARK    8  A    between atoms: C_15  and  C_16
REMARK                            x       y       z     vdW  Elec       q    Type
REMARK                         _______ _______ _______ _____ _____    ______ ____
ROOT
ATOM      1  C   UNL     1       1.360   8.391  20.197  0.00  0.00    +0.000 C 
ATOM      2  O   UNL     1       1.524   7.621  21.154  0.00  0.00    +0.000 OA
ATOM      3  N   UNL     1       1.980   8.258  18.961  0.00  0.00    +0.000 N 
ATOM      4  H   UNL     1       2.153   9.095  18.427  0.00  0.00    +0.000 HD
ENDROOT
BRANCH   3   5
ATOM      5  C   UNL     1       2.656   7.091  18.573  0.00  0.00    +0.000 A 
ATOM      6  C   UNL     1       2.377   5.842  19.143  0.00  0.00    +0.000 A 
ATOM      7  C   UNL     1       3.073   4.708  18.725  0.00  0.00    +0.000 A 
ATOM      8  C   UNL     1       4.064   4.813  17.751  0.00  0.00    +0.000 A 
ATOM      9  C   UNL     1       4.339   6.065  17.194  0.00  0.00    +0.000 A 
ATOM     10  C   UNL     1       3.605   7.194  17.563  0.00  0.00    +0.000 A 
BRANCH   9  11
ATOM     11  S   UNL     1       5.587   6.234  15.947  0.00  0.00    +0.000 S 
ATOM     12  O   UNL     1       5.066   7.089  14.906  0.00  0.00    +0.000 OA
ATOM     13  O   UNL     1       6.826   6.543  16.634  0.00  0.00    +0.000 OA
BRANCH  11  14
ATOM     14  N   UNL     1       5.739   4.662  15.348  0.00  0.00    +0.000 NA
ATOM     15  H   UNL     1       4.836   4.247  15.098  0.00  0.00    +0.000 HD
BRANCH  14  16
ATOM     16  C   UNL     1       6.725   4.504  14.267  0.00  0.00    +0.000 C 
BRANCH  16  17
ATOM     17  C   UNL     1       6.123   3.734  13.149  0.00  0.00    +0.000 A 
ATOM     18  C   UNL     1       6.659   2.873  12.213  0.00  0.00    +0.000 A 
ATOM     19  C   UNL     1       5.608   2.539  11.328  0.00  0.00    +0.000 A 
ATOM     20  C   UNL     1       4.494   3.193  11.794  0.00  0.00    +0.000 A 
ATOM     21  O   UNL     1       4.792   3.919  12.905  0.00  0.00    +0.000 OA
ENDBRANCH  16  17
ENDBRANCH  14  16
ENDBRANCH  11  14
ENDBRANCH   9  11
ENDBRANCH   3   5
BRANCH   1  23
ATOM     22  C   UNL     1       0.084  10.031  18.843  0.00  0.00    +0.000 C 
ATOM     23  C   UNL     1       0.380   9.565  20.265  0.00  0.00    +0.000 C 
BRANCH  23  24
ATOM     24  N   UNL     1       0.919  10.554  21.208  0.00  0.00    +0.000 N 
ATOM     25  C   UNL     1       0.243  10.508  22.410  0.00  0.00    +0.000 C 
ATOM     26  O   UNL     1       0.334   9.712  23.326  0.00  0.00    +0.000 OA
ATOM     27  C   UNL     1      -0.658  11.632  22.433  0.00  0.00    +0.000 A 
ATOM     28  C   UNL     1      -1.902  11.744  23.018  0.00  0.00    +0.000 A 
ATOM     29  C   UNL     1      -2.611  12.909  22.746  0.00  0.00    +0.000 A 
ATOM     30  C   UNL     1      -2.039  13.929  21.947  0.00  0.00    +0.000 A 
ATOM     31  C   UNL     1      -0.799  13.752  21.324  0.00  0.00    +0.000 A 
ATOM     32  C   UNL     1      -0.156  12.553  21.545  0.00  0.00    +0.000 A 
ATOM     33  C   UNL     1       0.917  11.877  20.807  0.00  0.00    +0.000 C 
ATOM     34  O   UNL     1       1.590  12.416  19.951  0.00  0.00    +0.000 OA
ENDBRANCH  23  24
ENDBRANCH   1  23
TORSDOF 7
ENDMDL
