MODEL 1
REMARK VINA RESULT:      -8.8      0.000      0.000
REMARK  Name = 
REMARK  7 active torsions:
REMARK  status: ('A' for Active; 'I' for Inactive)
REMARK    1  A    between atoms: C_1  and  N_2
REMARK    2  A    between atoms: C_3  and  C_5
REMARK    3  A    between atoms: C_9  and  N_10
REMARK    4  A    between atoms: C_11  and  C_13
REMARK    5  A    between atoms: C_16  and  S_17
REMARK    6  A    between atoms: S_17  and  N_20
REMARK    7  A    between atoms: N_20  and  C_21
REMARK                            x       y       z     vdW  Elec       q    Type
REMARK                         _______ _______ _______ _____ _____    ______ ____
ROOT
ATOM      1  C   UNL     1       2.251   7.791  18.800  0.00  0.00    +0.000 A 
ATOM      2  C   UNL     1       1.752   8.028  20.087  0.00  0.00    +0.000 A 
ATOM      3  C   UNL     1       0.930   9.146  20.330  0.00  0.00    +0.000 A 
ATOM      4  C   UNL     1       0.619  10.028  19.278  0.00  0.00    +0.000 A 
ATOM      5  C   UNL     1       1.091   9.775  17.993  0.00  0.00    +0.000 A 
ATOM      6  C   UNL     1       1.902   8.672  17.757  0.00  0.00    +0.000 A 
ENDROOT
BRANCH   1   8
ATOM      7  N   UNL     1       4.313   7.030  17.660  0.00  0.00    +0.000 N 
ATOM      8  C   UNL     1       3.233   6.715  18.476  0.00  0.00    +0.000 C 
ATOM      9  O   UNL     1       3.027   5.624  19.000  0.00  0.00    +0.000 OA
ATOM     10  H   UNL     1       4.492   8.004  17.454  0.00  0.00    +0.000 HD
BRANCH   7  15
ATOM     11  C   UNL     1       6.609   4.947  15.576  0.00  0.00    +0.000 A 
ATOM     12  C   UNL     1       7.488   4.448  16.543  0.00  0.00    +0.000 A 
ATOM     13  C   UNL     1       7.270   4.731  17.886  0.00  0.00    +0.000 A 
ATOM     14  C   UNL     1       6.200   5.546  18.259  0.00  0.00    +0.000 A 
ATOM     15  C   UNL     1       5.342   6.109  17.308  0.00  0.00    +0.000 A 
ATOM     16  C   UNL     1       5.530   5.770  15.960  0.00  0.00    +0.000 A 
BRANCH  11  19
ATOM     17  C   UNL     1       6.357   3.237  12.202  0.00  0.00    +0.000 C 
ATOM     18  N   UNL     1       6.187   3.604  13.583  0.00  0.00    +0.000 N 
ATOM     19  C   UNL     1       6.857   4.681  14.131  0.00  0.00    +0.000 C 
ATOM     20  O   UNL     1       7.614   5.403  13.493  0.00  0.00    +0.000 OA
ATOM     21  H   UNL     1       5.503   3.096  14.127  0.00  0.00    +0.000 HD
ENDBRANCH  11  19
ENDBRANCH   7  15
ENDBRANCH   1   8
BRANCH   4  22
ATOM     22  S   UNL     1      -0.483  11.418  19.486  0.00  0.00    +0.000 S 
ATOM     23  O   UNL     1      -1.822  10.954  19.175  0.00  0.00    +0.000 OA
ATOM     24  O   UNL     1      -0.181  12.013  20.766  0.00  0.00    +0.000 OA
BRANCH  22  25
ATOM     25  N   UNL     1      -0.023  12.520  18.309  0.00  0.00    +0.000 N 
ATOM     26  H   UNL     1      -0.604  12.581  17.476  0.00  0.00    +0.000 HD
BRANCH  25  27
ATOM     27  C   UNL     1       1.000  13.475  18.513  0.00  0.00    +0.000 A 
ATOM     28  C   UNL     1       2.340  13.177  18.236  0.00  0.00    +0.000 A 
ATOM     29  C   UNL     1       3.313  14.187  18.332  0.00  0.00    +0.000 A 
ATOM     30  C   UNL     1       2.939  15.479  18.697  0.00  0.00    +0.000 A 
ATOM     31 CL   UNL     1       4.124  16.723  18.786  0.00  0.00    +0.000 Cl
ATOM     32  C   UNL     1       1.604  15.773  18.977  0.00  0.00    +0.000 A 
ATOM     33  C   UNL     1       0.640  14.771  18.879  0.00  0.00    +0.000 A 
ENDBRANCH  25  27
ENDBRANCH  22  25
ENDBRANCH   4  22
TORSDOF 6
ENDMDL
MODEL 2
REMARK VINA RESULT:      -8.6      3.073      3.954
REMARK  Name = 
REMARK  7 active torsions:
REMARK  status: ('A' for Active; 'I' for Inactive)
REMARK    1  A    between atoms: C_1  and  N_2
REMARK    2  A    between atoms: C_3  and  C_5
REMARK    3  A    between atoms: C_9  and  N_10
REMARK    4  A    between atoms: C_11  and  C_13
REMARK    5  A    between atoms: C_16  and  S_17
REMARK    6  A    between atoms: S_17  and  N_20
REMARK    7  A    between atoms: N_20  and  C_21
REMARK                            x       y       z     vdW  Elec       q    Type
REMARK                         _______ _______ _______ _____ _____    ______ ____
ROOT
ATOM      1  C   UNL     1       2.304   8.273  18.696  0.00  0.00    +0.000 A 
ATOM      2  C   UNL     1       2.062   9.294  17.770  0.00  0.00    +0.000 A 
ATOM      3  C   UNL     1       1.103  10.287  18.048  0.00  0.00    +0.000 A 
ATOM      4  C   UNL     1       0.383  10.245  19.258  0.00  0.00    +0.000 A 
ATOM      5  C   UNL     1       0.646   9.247  20.191  0.00  0.00    +0.000 A 
ATOM      6  C   UNL     1       1.592   8.268  19.912  0.00  0.00    +0.000 A 
ENDROOT
BRANCH   1   8
ATOM      7  N   UNL     1       4.286   7.289  17.585  0.00  0.00    +0.000 N 
ATOM      8  C   UNL     1       3.198   7.109  18.432  0.00  0.00    +0.000 C 
ATOM      9  O   UNL     1       2.921   6.071  19.028  0.00  0.00    +0.000 OA
ATOM     10  H   UNL     1       4.533   8.232  17.315  0.00  0.00    +0.000 HD
BRANCH   7  15
ATOM     11  C   UNL     1       6.486   5.003  15.613  0.00  0.00    +0.000 A 
ATOM     12  C   UNL     1       7.253   4.413  16.624  0.00  0.00    +0.000 A 
ATOM     13  C   UNL     1       6.983   4.707  17.955  0.00  0.00    +0.000 A 
ATOM     14  C   UNL     1       5.979   5.621  18.275  0.00  0.00    +0.000 A 
ATOM     15  C   UNL     1       5.238   6.273  17.283  0.00  0.00    +0.000 A 
ATOM     16  C   UNL     1       5.472   5.926  15.944  0.00  0.00    +0.000 A 
BRANCH  11  19
ATOM     17  C   UNL     1       6.349   3.279  12.240  0.00  0.00    +0.000 C 
ATOM     18  N   UNL     1       6.125   3.657  13.611  0.00  0.00    +0.000 N 
ATOM     19  C   UNL     1       6.792   4.724  14.182  0.00  0.00    +0.000 C 
ATOM     20  O   UNL     1       7.591   5.427  13.575  0.00  0.00    +0.000 OA
ATOM     21  H   UNL     1       5.408   3.166  14.126  0.00  0.00    +0.000 HD
ENDBRANCH  11  19
ENDBRANCH   7  15
ENDBRANCH   1   8
BRANCH   4  22
ATOM     22  S   UNL     1      -0.787  11.512  19.722  0.00  0.00    +0.000 S 
ATOM     23  O   UNL     1      -0.780  11.594  21.170  0.00  0.00    +0.000 OA
ATOM     24  O   UNL     1      -0.504  12.672  18.911  0.00  0.00    +0.000 OA
BRANCH  22  25
ATOM     25  N   UNL     1      -2.281  10.925  19.237  0.00  0.00    +0.000 N 
ATOM     26  H   UNL     1      -2.990  10.807  19.957  0.00  0.00    +0.000 HD
BRANCH  25  27
ATOM     27  C   UNL     1      -2.641  10.779  17.877  0.00  0.00    +0.000 A 
ATOM     28  C   UNL     1      -1.999   9.850  17.050  0.00  0.00    +0.000 A 
ATOM     29  C   UNL     1      -2.465   9.643  15.740  0.00  0.00    +0.000 A 
ATOM     30  C   UNL     1      -3.564  10.362  15.273  0.00  0.00    +0.000 A 
ATOM     31 CL   UNL     1      -4.153  10.089  13.680  0.00  0.00    +0.000 Cl
ATOM     32  C   UNL     1      -4.200  11.291  16.097  0.00  0.00    +0.000 A 
ATOM     33  C   UNL     1      -3.738  11.492  17.397  0.00  0.00    +0.000 A 
ENDBRANCH  25  27
ENDBRANCH  22  25
ENDBRANCH   4  22
TORSDOF 6
ENDMDL
MODEL 3
REMARK VINA RESULT:      -8.6      3.623      9.255
REMARK  Name = 
REMARK  7 active torsions:
REMARK  status: ('A' for Active; 'I' for Inactive)
REMARK    1  A    between atoms: C_1  and  N_2
REMARK    2  A    between atoms: C_3  and  C_5
REMARK    3  A    between atoms: C_9  and  N_10
REMARK    4  A    between atoms: C_11  and  C_13
REMARK    5  A    between atoms: C_16  and  S_17
REMARK    6  A    between atoms: S_17  and  N_20
REMARK    7  A    between atoms: N_20  and  C_21
REMARK                            x       y       z     vdW  Elec       q    Type
REMARK                         _______ _______ _______ _____ _____    ______ ____
ROOT
ATOM      1  C   UNL     1       2.078   7.089  19.496  0.00  0.00    +0.000 A 
ATOM      2  C   UNL     1       2.318   6.186  20.539  0.00  0.00    +0.000 A 
ATOM      3  C   UNL     1       2.790   4.890  20.255  0.00  0.00    +0.000 A 
ATOM      4  C   UNL     1       3.011   4.502  18.920  0.00  0.00    +0.000 A 
ATOM      5  C   UNL     1       2.801   5.410  17.887  0.00  0.00    +0.000 A 
ATOM      6  C   UNL     1       2.334   6.687  18.170  0.00  0.00    +0.000 A 
ENDROOT
BRANCH   1   8
ATOM      7  N   UNL     1       1.219   9.216  18.565  0.00  0.00    +0.000 N 
ATOM      8  C   UNL     1       1.453   8.430  19.687  0.00  0.00    +0.000 C 
ATOM      9  O   UNL     1       1.153   8.724  20.841  0.00  0.00    +0.000 OA
ATOM     10  H   UNL     1       1.318   8.792  17.652  0.00  0.00    +0.000 HD
BRANCH   7  15
ATOM     11  C   UNL     1      -1.449  11.832  18.535  0.00  0.00    +0.000 A 
ATOM     12  C   UNL     1      -0.719  12.978  18.868  0.00  0.00    +0.000 A 
ATOM     13  C   UNL     1       0.659  12.899  19.017  0.00  0.00    +0.000 A 
ATOM     14  C   UNL     1       1.305  11.670  18.876  0.00  0.00    +0.000 A 
ATOM     15  C   UNL     1       0.593  10.496  18.604  0.00  0.00    +0.000 A 
ATOM     16  C   UNL     1      -0.790  10.592  18.394  0.00  0.00    +0.000 A 
BRANCH  11  19
ATOM     17  C   UNL     1      -4.866  11.752  16.896  0.00  0.00    +0.000 C 
ATOM     18  N   UNL     1      -3.450  11.696  17.146  0.00  0.00    +0.000 N 
ATOM     19  C   UNL     1      -2.932  11.898  18.410  0.00  0.00    +0.000 C 
ATOM     20  O   UNL     1      -3.623  12.114  19.399  0.00  0.00    +0.000 OA
ATOM     21  H   UNL     1      -2.845  11.429  16.381  0.00  0.00    +0.000 HD
ENDBRANCH  11  19
ENDBRANCH   7  15
ENDBRANCH   1   8
BRANCH   4  22
ATOM     22  S   UNL     1       3.688   2.907  18.484  0.00  0.00    +0.000 S 
ATOM     23  O   UNL     1       4.103   2.266  19.717  0.00  0.00    +0.000 OA
ATOM     24  O   UNL     1       2.742   2.271  17.598  0.00  0.00    +0.000 OA
BRANCH  22  25
ATOM     25  N   UNL     1       5.058   3.247  17.581  0.00  0.00    +0.000 N 
ATOM     26  H   UNL     1       5.312   2.584  16.851  0.00  0.00    +0.000 HD
BRANCH  25  27
ATOM     27  C   UNL     1       5.742   4.483  17.662  0.00  0.00    +0.000 A 
ATOM     28  C   UNL     1       6.459   4.843  18.809  0.00  0.00    +0.000 A 
ATOM     29  C   UNL     1       7.227   6.020  18.810  0.00  0.00    +0.000 A 
ATOM     30  C   UNL     1       7.274   6.819  17.669  0.00  0.00    +0.000 A 
ATOM     31 CL   UNL     1       8.238   8.245  17.658  0.00  0.00    +0.000 Cl
ATOM     32  C   UNL     1       6.555   6.461  16.528  0.00  0.00    +0.000 A 
ATOM     33  C   UNL     1       5.796   5.292  16.528  0.00  0.00    +0.000 A 
ENDBRANCH  25  27
ENDBRANCH  22  25
ENDBRANCH   4  22
TORSDOF 6
ENDMDL
MODEL 4
REMARK VINA RESULT:      -8.6      4.130      9.983
REMARK  Name = 
REMARK  7 active torsions:
REMARK  status: ('A' for Active; 'I' for Inactive)
REMARK    1  A    between atoms: C_1  and  N_2
REMARK    2  A    between atoms: C_3  and  C_5
REMARK    3  A    between atoms: C_9  and  N_10
REMARK    4  A    between atoms: C_11  and  C_13
REMARK    5  A    between atoms: C_16  and  S_17
REMARK    6  A    between atoms: S_17  and  N_20
REMARK    7  A    between atoms: N_20  and  C_21
REMARK                            x       y       z     vdW  Elec       q    Type
REMARK                         _______ _______ _______ _____ _____    ______ ____
ROOT
ATOM      1  C   UNL     1       2.458   7.856  18.358  0.00  0.00    +0.000 A 
ATOM      2  C   UNL     1       3.545   7.634  17.504  0.00  0.00    +0.000 A 
ATOM      3  C   UNL     1       4.377   6.514  17.697  0.00  0.00    +0.000 A 
ATOM      4  C   UNL     1       4.117   5.623  18.756  0.00  0.00    +0.000 A 
ATOM      5  C   UNL     1       3.019   5.829  19.585  0.00  0.00    +0.000 A 
ATOM      6  C   UNL     1       2.201   6.935  19.393  0.00  0.00    +0.000 A 
ENDROOT
BRANCH   1   8
ATOM      7  N   UNL     1       0.560   9.190  19.224  0.00  0.00    +0.000 N 
ATOM      8  C   UNL     1       1.606   9.080  18.315  0.00  0.00    +0.000 C 
ATOM      9  O   UNL     1       1.927   9.931  17.489  0.00  0.00    +0.000 OA
ATOM     10  H   UNL     1       0.515   8.527  19.987  0.00  0.00    +0.000 HD
BRANCH   7  15
ATOM     11  C   UNL     1      -2.357  11.450  18.639  0.00  0.00    +0.000 A 
ATOM     12  C   UNL     1      -2.139  12.441  19.602  0.00  0.00    +0.000 A 
ATOM     13  C   UNL     1      -0.989  12.405  20.381  0.00  0.00    +0.000 A 
ATOM     14  C   UNL     1      -0.078  11.360  20.228  0.00  0.00    +0.000 A 
ATOM     15  C   UNL     1      -0.301  10.321  19.317  0.00  0.00    +0.000 A 
ATOM     16  C   UNL     1      -1.432  10.395  18.490  0.00  0.00    +0.000 A 
BRANCH  11  19
ATOM     17  C   UNL     1      -5.851  12.422  17.535  0.00  0.00    +0.000 C 
ATOM     18  N   UNL     1      -4.594  12.334  18.230  0.00  0.00    +0.000 N 
ATOM     19  C   UNL     1      -3.605  11.458  17.826  0.00  0.00    +0.000 C 
ATOM     20  O   UNL     1      -3.711  10.720  16.854  0.00  0.00    +0.000 OA
ATOM     21  H   UNL     1      -4.422  12.988  18.982  0.00  0.00    +0.000 HD
ENDBRANCH  11  19
ENDBRANCH   7  15
ENDBRANCH   1   8
BRANCH   4  22
ATOM     22  S   UNL     1       5.072   4.137  19.015  0.00  0.00    +0.000 S 
ATOM     23  O   UNL     1       6.422   4.548  19.355  0.00  0.00    +0.000 OA
ATOM     24  O   UNL     1       4.310   3.289  19.900  0.00  0.00    +0.000 OA
BRANCH  22  25
ATOM     25  N   UNL     1       5.114   3.379  17.521  0.00  0.00    +0.000 N 
ATOM     26  H   UNL     1       4.542   2.545  17.406  0.00  0.00    +0.000 HD
BRANCH  25  27
ATOM     27  C   UNL     1       5.744   3.950  16.391  0.00  0.00    +0.000 A 
ATOM     28  C   UNL     1       7.028   4.501  16.474  0.00  0.00    +0.000 A 
ATOM     29  C   UNL     1       7.672   4.947  15.307  0.00  0.00    +0.000 A 
ATOM     30  C   UNL     1       7.032   4.835  14.074  0.00  0.00    +0.000 A 
ATOM     31 CL   UNL     1       7.831   5.353  12.641  0.00  0.00    +0.000 Cl
ATOM     32  C   UNL     1       5.751   4.289  13.993  0.00  0.00    +0.000 A 
ATOM     33  C   UNL     1       5.114   3.845  15.151  0.00  0.00    +0.000 A 
ENDBRANCH  25  27
ENDBRANCH  22  25
ENDBRANCH   4  22
TORSDOF 6
ENDMDL
MODEL 5
REMARK VINA RESULT:      -8.5      3.028      3.566
REMARK  Name = 
REMARK  7 active torsions:
REMARK  status: ('A' for Active; 'I' for Inactive)
REMARK    1  A    between atoms: C_1  and  N_2
REMARK    2  A    between atoms: C_3  and  C_5
REMARK    3  A    between atoms: C_9  and  N_10
REMARK    4  A    between atoms: C_11  and  C_13
REMARK    5  A    between atoms: C_16  and  S_17
REMARK    6  A    between atoms: S_17  and  N_20
REMARK    7  A    between atoms: N_20  and  C_21
REMARK                            x       y       z     vdW  Elec       q    Type
REMARK                         _______ _______ _______ _____ _____    ______ ____
ROOT
ATOM      1  C   UNL     1       2.268   7.789  18.785  0.00  0.00    +0.000 A 
ATOM      2  C   UNL     1       1.792   7.969  20.090  0.00  0.00    +0.000 A 
ATOM      3  C   UNL     1       1.018   9.102  20.408  0.00  0.00    +0.000 A 
ATOM      4  C   UNL     1       0.730  10.055  19.413  0.00  0.00    +0.000 A 
ATOM      5  C   UNL     1       1.177   9.860  18.110  0.00  0.00    +0.000 A 
ATOM      6  C   UNL     1       1.942   8.742  17.800  0.00  0.00    +0.000 A 
ENDROOT
BRANCH   1   8
ATOM      7  N   UNL     1       4.412   7.045  17.796  0.00  0.00    +0.000 N 
ATOM      8  C   UNL     1       3.203   6.697  18.387  0.00  0.00    +0.000 C 
ATOM      9  O   UNL     1       2.841   5.554  18.654  0.00  0.00    +0.000 OA
ATOM     10  H   UNL     1       4.692   8.017  17.811  0.00  0.00    +0.000 HD
BRANCH   7  15
ATOM     11  C   UNL     1       6.617   4.948  15.629  0.00  0.00    +0.000 A 
ATOM     12  C   UNL     1       7.497   4.404  16.571  0.00  0.00    +0.000 A 
ATOM     13  C   UNL     1       7.308   4.663  17.922  0.00  0.00    +0.000 A 
ATOM     14  C   UNL     1       6.268   5.497  18.332  0.00  0.00    +0.000 A 
ATOM     15  C   UNL     1       5.410   6.105  17.407  0.00  0.00    +0.000 A 
ATOM     16  C   UNL     1       5.567   5.791  16.050  0.00  0.00    +0.000 A 
BRANCH  11  19
ATOM     17  C   UNL     1       6.311   3.284  12.237  0.00  0.00    +0.000 C 
ATOM     18  N   UNL     1       6.169   3.627  13.627  0.00  0.00    +0.000 N 
ATOM     19  C   UNL     1       6.834   4.707  14.175  0.00  0.00    +0.000 C 
ATOM     20  O   UNL     1       7.563   5.452  13.531  0.00  0.00    +0.000 OA
ATOM     21  H   UNL     1       5.506   3.100  14.180  0.00  0.00    +0.000 HD
ENDBRANCH  11  19
ENDBRANCH   7  15
ENDBRANCH   1   8
BRANCH   4  22
ATOM     22  S   UNL     1      -0.315  11.472  19.716  0.00  0.00    +0.000 S 
ATOM     23  O   UNL     1       0.296  12.606  19.048  0.00  0.00    +0.000 OA
ATOM     24  O   UNL     1      -1.670  11.075  19.416  0.00  0.00    +0.000 OA
BRANCH  22  25
ATOM     25  N   UNL     1      -0.231  11.730  21.371  0.00  0.00    +0.000 N 
ATOM     26  H   UNL     1       0.634  11.469  21.839  0.00  0.00    +0.000 HD
BRANCH  25  27
ATOM     27  C   UNL     1      -1.215  12.455  22.082  0.00  0.00    +0.000 A 
ATOM     28  C   UNL     1      -1.438  13.814  21.834  0.00  0.00    +0.000 A 
ATOM     29  C   UNL     1      -2.505  14.473  22.470  0.00  0.00    +0.000 A 
ATOM     30  C   UNL     1      -3.336  13.769  23.339  0.00  0.00    +0.000 A 
ATOM     31 CL   UNL     1      -4.661  14.567  24.095  0.00  0.00    +0.000 Cl
ATOM     32  C   UNL     1      -3.110  12.415  23.589  0.00  0.00    +0.000 A 
ATOM     33  C   UNL     1      -2.053  11.763  22.956  0.00  0.00    +0.000 A 
ENDBRANCH  25  27
ENDBRANCH  22  25
ENDBRANCH   4  22
TORSDOF 6
ENDMDL
MODEL 6
REMARK VINA RESULT:      -8.5      3.580      8.965
REMARK  Name = 
REMARK  7 active torsions:
REMARK  status: ('A' for Active; 'I' for Inactive)
REMARK    1  A    between atoms: C_1  and  N_2
REMARK    2  A    between atoms: C_3  and  C_5
REMARK    3  A    between atoms: C_9  and  N_10
REMARK    4  A    between atoms: C_11  and  C_13
REMARK    5  A    between atoms: C_16  and  S_17
REMARK    6  A    between atoms: S_17  and  N_20
REMARK    7  A    between atoms: N_20  and  C_21
REMARK                            x       y       z     vdW  Elec       q    Type
REMARK                         _______ _______ _______ _____ _____    ______ ____
ROOT
ATOM      1  C   UNL     1       1.882   7.249  19.525  0.00  0.00    +0.000 A 
ATOM      2  C   UNL     1       1.902   6.281  20.537  0.00  0.00    +0.000 A 
ATOM      3  C   UNL     1       2.181   4.937  20.221  0.00  0.00    +0.000 A 
ATOM      4  C   UNL     1       2.431   4.569  18.885  0.00  0.00    +0.000 A 
ATOM      5  C   UNL     1       2.441   5.537  17.886  0.00  0.00    +0.000 A 
ATOM      6  C   UNL     1       2.164   6.862  18.201  0.00  0.00    +0.000 A 
ENDROOT
BRANCH   1   8
ATOM      7  N   UNL     1       1.240   9.466  18.627  0.00  0.00    +0.000 N 
ATOM      8  C   UNL     1       1.466   8.666  19.741  0.00  0.00    +0.000 C 
ATOM      9  O   UNL     1       1.314   9.010  20.910  0.00  0.00    +0.000 OA
ATOM     10  H   UNL     1       1.197   9.023  17.719  0.00  0.00    +0.000 HD
BRANCH   7  15
ATOM     11  C   UNL     1       1.346  13.198  18.728  0.00  0.00    +0.000 A 
ATOM     12  C   UNL     1      -0.012  13.519  18.626  0.00  0.00    +0.000 A 
ATOM     13  C   UNL     1      -0.961  12.504  18.610  0.00  0.00    +0.000 A 
ATOM     14  C   UNL     1      -0.554  11.171  18.653  0.00  0.00    +0.000 A 
ATOM     15  C   UNL     1       0.801  10.819  18.693  0.00  0.00    +0.000 A 
ATOM     16  C   UNL     1       1.751  11.848  18.772  0.00  0.00    +0.000 A 
BRANCH  11  19
ATOM     17  C   UNL     1       4.521  15.040  17.779  0.00  0.00    +0.000 C 
ATOM     18  N   UNL     1       3.456  14.076  17.873  0.00  0.00    +0.000 N 
ATOM     19  C   UNL     1       2.373  14.277  18.708  0.00  0.00    +0.000 C 
ATOM     20  O   UNL     1       2.228  15.278  19.400  0.00  0.00    +0.000 OA
ATOM     21  H   UNL     1       3.483  13.279  17.253  0.00  0.00    +0.000 HD
ENDBRANCH  11  19
ENDBRANCH   7  15
ENDBRANCH   1   8
BRANCH   4  22
ATOM     22  S   UNL     1       2.875   2.904  18.416  0.00  0.00    +0.000 S 
ATOM     23  O   UNL     1       2.604   2.050  19.557  0.00  0.00    +0.000 OA
ATOM     24  O   UNL     1       2.266   2.645  17.134  0.00  0.00    +0.000 OA
BRANCH  22  25
ATOM     25  N   UNL     1       4.534   2.946  18.175  0.00  0.00    +0.000 N 
ATOM     26  H   UNL     1       4.998   2.062  17.979  0.00  0.00    +0.000 HD
BRANCH  25  27
ATOM     27  C   UNL     1       5.257   4.154  18.042  0.00  0.00    +0.000 A 
ATOM     28  C   UNL     1       5.835   4.781  19.152  0.00  0.00    +0.000 A 
ATOM     29  C   UNL     1       6.651   5.911  18.968  0.00  0.00    +0.000 A 
ATOM     30  C   UNL     1       6.882   6.398  17.682  0.00  0.00    +0.000 A 
ATOM     31 CL   UNL     1       7.904   7.764  17.453  0.00  0.00    +0.000 Cl
ATOM     32  C   UNL     1       6.302   5.774  16.577  0.00  0.00    +0.000 A 
ATOM     33  C   UNL     1       5.495   4.652  16.762  0.00  0.00    +0.000 A 
ENDBRANCH  25  27
ENDBRANCH  22  25
ENDBRANCH   4  22
TORSDOF 6
ENDMDL
MODEL 7
REMARK VINA RESULT:      -8.5      3.604      9.349
REMARK  Name = 
REMARK  7 active torsions:
REMARK  status: ('A' for Active; 'I' for Inactive)
REMARK    1  A    between atoms: C_1  and  N_2
REMARK    2  A    between atoms: C_3  and  C_5
REMARK    3  A    between atoms: C_9  and  N_10
REMARK    4  A    between atoms: C_11  and  C_13
REMARK    5  A    between atoms: C_16  and  S_17
REMARK    6  A    between atoms: S_17  and  N_20
REMARK    7  A    between atoms: N_20  and  C_21
REMARK                            x       y       z     vdW  Elec       q    Type
REMARK                         _______ _______ _______ _____ _____    ______ ____
ROOT
ATOM      1  C   UNL     1       2.244   7.221  19.417  0.00  0.00    +0.000 A 
ATOM      2  C   UNL     1       2.427   6.283  20.441  0.00  0.00    +0.000 A 
ATOM      3  C   UNL     1       3.015   5.035  20.158  0.00  0.00    +0.000 A 
ATOM      4  C   UNL     1       3.410   4.730  18.841  0.00  0.00    +0.000 A 
ATOM      5  C   UNL     1       3.255   5.673  17.831  0.00  0.00    +0.000 A 
ATOM      6  C   UNL     1       2.673   6.904  18.113  0.00  0.00    +0.000 A 
ENDROOT
BRANCH   1   8
ATOM      7  N   UNL     1       1.217   9.261  18.463  0.00  0.00    +0.000 N 
ATOM      8  C   UNL     1       1.512   8.509  19.594  0.00  0.00    +0.000 C 
ATOM      9  O   UNL     1       1.186   8.789  20.744  0.00  0.00    +0.000 OA
ATOM     10  H   UNL     1       1.352   8.837  17.555  0.00  0.00    +0.000 HD
BRANCH   7  15
ATOM     11  C   UNL     1      -1.652  11.653  18.373  0.00  0.00    +0.000 A 
ATOM     12  C   UNL     1      -1.025  12.854  18.721  0.00  0.00    +0.000 A 
ATOM     13  C   UNL     1       0.352  12.886  18.901  0.00  0.00    +0.000 A 
ATOM     14  C   UNL     1       1.098  11.714  18.775  0.00  0.00    +0.000 A 
ATOM     15  C   UNL     1       0.489  10.486  18.488  0.00  0.00    +0.000 A 
ATOM     16  C   UNL     1      -0.892  10.471  18.246  0.00  0.00    +0.000 A 
BRANCH  11  19
ATOM     17  C   UNL     1      -5.308  12.385  19.056  0.00  0.00    +0.000 C 
ATOM     18  N   UNL     1      -3.870  12.366  19.098  0.00  0.00    +0.000 N 
ATOM     19  C   UNL     1      -3.132  11.599  18.215  0.00  0.00    +0.000 C 
ATOM     20  O   UNL     1      -3.633  10.909  17.335  0.00  0.00    +0.000 OA
ATOM     21  H   UNL     1      -3.407  12.990  19.744  0.00  0.00    +0.000 HD
ENDBRANCH  11  19
ENDBRANCH   7  15
ENDBRANCH   1   8
BRANCH   4  22
ATOM     22  S   UNL     1       4.238   3.205  18.417  0.00  0.00    +0.000 S 
ATOM     23  O   UNL     1       4.858   2.702  19.628  0.00  0.00    +0.000 OA
ATOM     24  O   UNL     1       3.296   2.401  17.675  0.00  0.00    +0.000 OA
BRANCH  22  25
ATOM     25  N   UNL     1       5.452   3.650  17.351  0.00  0.00    +0.000 N 
ATOM     26  H   UNL     1       5.490   3.162  16.458  0.00  0.00    +0.000 HD
BRANCH  25  27
ATOM     27  C   UNL     1       6.279   4.778  17.560  0.00  0.00    +0.000 A 
ATOM     28  C   UNL     1       6.292   5.848  16.657  0.00  0.00    +0.000 A 
ATOM     29  C   UNL     1       7.030   7.006  16.959  0.00  0.00    +0.000 A 
ATOM     30  C   UNL     1       7.739   7.085  18.156  0.00  0.00    +0.000 A 
ATOM     31 CL   UNL     1       8.619   8.513  18.540  0.00  0.00    +0.000 Cl
ATOM     32  C   UNL     1       7.728   6.017  19.053  0.00  0.00    +0.000 A 
ATOM     33  C   UNL     1       6.994   4.870  18.753  0.00  0.00    +0.000 A 
ENDBRANCH  25  27
ENDBRANCH  22  25
ENDBRANCH   4  22
TORSDOF 6
ENDMDL
MODEL 8
REMARK VINA RESULT:      -8.5      3.691      9.742
REMARK  Name = 
REMARK  7 active torsions:
REMARK  status: ('A' for Active; 'I' for Inactive)
REMARK    1  A    between atoms: C_1  and  N_2
REMARK    2  A    between atoms: C_3  and  C_5
REMARK    3  A    between atoms: C_9  and  N_10
REMARK    4  A    between atoms: C_11  and  C_13
REMARK    5  A    between atoms: C_16  and  S_17
REMARK    6  A    between atoms: S_17  and  N_20
REMARK    7  A    between atoms: N_20  and  C_21
REMARK                            x       y       z     vdW  Elec       q    Type
REMARK                         _______ _______ _______ _____ _____    ______ ____
ROOT
ATOM      1  C   UNL     1       1.860   7.131  19.993  0.00  0.00    +0.000 A 
ATOM      2  C   UNL     1       1.786   5.978  20.785  0.00  0.00    +0.000 A 
ATOM      3  C   UNL     1       2.010   4.712  20.211  0.00  0.00    +0.000 A 
ATOM      4  C   UNL     1       2.301   4.607  18.837  0.00  0.00    +0.000 A 
ATOM      5  C   UNL     1       2.403   5.755  18.058  0.00  0.00    +0.000 A 
ATOM      6  C   UNL     1       2.181   7.003  18.627  0.00  0.00    +0.000 A 
ENDROOT
BRANCH   1   8
ATOM      7  N   UNL     1       0.999   9.413  19.567  0.00  0.00    +0.000 N 
ATOM      8  C   UNL     1       1.508   8.496  20.480  0.00  0.00    +0.000 C 
ATOM      9  O   UNL     1       1.660   8.695  21.682  0.00  0.00    +0.000 OA
ATOM     10  H   UNL     1       0.726   9.078  18.652  0.00  0.00    +0.000 HD
BRANCH   7  15
ATOM     11  C   UNL     1      -1.064  12.212  20.933  0.00  0.00    +0.000 A 
ATOM     12  C   UNL     1      -0.195  13.298  20.781  0.00  0.00    +0.000 A 
ATOM     13  C   UNL     1       1.030  13.119  20.153  0.00  0.00    +0.000 A 
ATOM     14  C   UNL     1       1.408  11.849  19.714  0.00  0.00    +0.000 A 
ATOM     15  C   UNL     1       0.586  10.733  19.908  0.00  0.00    +0.000 A 
ATOM     16  C   UNL     1      -0.676  10.931  20.487  0.00  0.00    +0.000 A 
BRANCH  11  19
ATOM     17  C   UNL     1      -3.527  12.405  23.809  0.00  0.00    +0.000 C 
ATOM     18  N   UNL     1      -2.332  12.273  23.016  0.00  0.00    +0.000 N 
ATOM     19  C   UNL     1      -2.364  12.386  21.639  0.00  0.00    +0.000 C 
ATOM     20  O   UNL     1      -3.383  12.623  21.003  0.00  0.00    +0.000 OA
ATOM     21  H   UNL     1      -1.451  12.170  23.501  0.00  0.00    +0.000 HD
ENDBRANCH  11  19
ENDBRANCH   7  15
ENDBRANCH   1   8
BRANCH   4  22
ATOM     22  S   UNL     1       2.679   3.048  18.053  0.00  0.00    +0.000 S 
ATOM     23  O   UNL     1       2.069   2.005  18.855  0.00  0.00    +0.000 OA
ATOM     24  O   UNL     1       2.364   3.188  16.651  0.00  0.00    +0.000 OA
BRANCH  22  25
ATOM     25  N   UNL     1       4.345   2.894  18.171  0.00  0.00    +0.000 N 
ATOM     26  H   UNL     1       4.720   1.952  18.251  0.00  0.00    +0.000 HD
BRANCH  25  27
ATOM     27  C   UNL     1       5.229   3.979  17.971  0.00  0.00    +0.000 A 
ATOM     28  C   UNL     1       5.461   4.503  16.694  0.00  0.00    +0.000 A 
ATOM     29  C   UNL     1       6.248   5.659  16.547  0.00  0.00    +0.000 A 
ATOM     30  C   UNL     1       6.789   6.278  17.672  0.00  0.00    +0.000 A 
ATOM     31 CL   UNL     1       7.728   7.709  17.496  0.00  0.00    +0.000 Cl
ATOM     32  C   UNL     1       6.561   5.752  18.944  0.00  0.00    +0.000 A 
ATOM     33  C   UNL     1       5.778   4.607  19.088  0.00  0.00    +0.000 A 
ENDBRANCH  25  27
ENDBRANCH  22  25
ENDBRANCH   4  22
TORSDOF 6
ENDMDL
MODEL 9
REMARK VINA RESULT:      -8.4      3.734      9.306
REMARK  Name = 
REMARK  7 active torsions:
REMARK  status: ('A' for Active; 'I' for Inactive)
REMARK    1  A    between atoms: C_1  and  N_2
REMARK    2  A    between atoms: C_3  and  C_5
REMARK    3  A    between atoms: C_9  and  N_10
REMARK    4  A    between atoms: C_11  and  C_13
REMARK    5  A    between atoms: C_16  and  S_17
REMARK    6  A    between atoms: S_17  and  N_20
REMARK    7  A    between atoms: N_20  and  C_21
REMARK                            x       y       z     vdW  Elec       q    Type
REMARK                         _______ _______ _______ _____ _____    ______ ____
ROOT
ATOM      1  C   UNL     1       2.487   7.602  18.602  0.00  0.00    +0.000 A 
ATOM      2  C   UNL     1       2.501   6.770  19.728  0.00  0.00    +0.000 A 
ATOM      3  C   UNL     1       3.130   5.511  19.668  0.00  0.00    +0.000 A 
ATOM      4  C   UNL     1       3.737   5.088  18.470  0.00  0.00    +0.000 A 
ATOM      5  C   UNL     1       3.748   5.928  17.360  0.00  0.00    +0.000 A 
ATOM      6  C   UNL     1       3.126   7.169  17.423  0.00  0.00    +0.000 A 
ENDROOT
BRANCH   1   8
ATOM      7  N   UNL     1       0.983   9.276  19.633  0.00  0.00    +0.000 N 
ATOM      8  C   UNL     1       1.733   8.887  18.530  0.00  0.00    +0.000 C 
ATOM      9  O   UNL     1       1.870   9.534  17.495  0.00  0.00    +0.000 OA
ATOM     10  H   UNL     1       1.106   8.770  20.501  0.00  0.00    +0.000 HD
BRANCH   7  15
ATOM     11  C   UNL     1      -1.791  11.748  19.239  0.00  0.00    +0.000 A 
ATOM     12  C   UNL     1      -1.319  12.821  20.003  0.00  0.00    +0.000 A 
ATOM     13  C   UNL     1      -0.054  12.758  20.573  0.00  0.00    +0.000 A 
ATOM     14  C   UNL     1       0.723  11.609  20.417  0.00  0.00    +0.000 A 
ATOM     15  C   UNL     1       0.251  10.496  19.711  0.00  0.00    +0.000 A 
ATOM     16  C   UNL     1      -1.001  10.589  19.086  0.00  0.00    +0.000 A 
BRANCH  11  19
ATOM     17  C   UNL     1      -4.555  11.358  16.674  0.00  0.00    +0.000 C 
ATOM     18  N   UNL     1      -3.285  11.350  17.352  0.00  0.00    +0.000 N 
ATOM     19  C   UNL     1      -3.161  11.790  18.656  0.00  0.00    +0.000 C 
ATOM     20  O   UNL     1      -4.104  12.190  19.328  0.00  0.00    +0.000 OA
ATOM     21  H   UNL     1      -2.495  10.942  16.872  0.00  0.00    +0.000 HD
ENDBRANCH  11  19
ENDBRANCH   7  15
ENDBRANCH   1   8
BRANCH   4  22
ATOM     22  S   UNL     1       4.627   3.546  18.337  0.00  0.00    +0.000 S 
ATOM     23  O   UNL     1       5.021   3.161  19.679  0.00  0.00    +0.000 OA
ATOM     24  O   UNL     1       3.832   2.665  17.515  0.00  0.00    +0.000 OA
BRANCH  22  25
ATOM     25  N   UNL     1       6.012   3.914  17.469  0.00  0.00    +0.000 N 
ATOM     26  H   UNL     1       6.230   3.325  16.668  0.00  0.00    +0.000 HD
BRANCH  25  27
ATOM     27  C   UNL     1       6.759   5.096  17.685  0.00  0.00    +0.000 A 
ATOM     28  C   UNL     1       6.754   6.140  16.753  0.00  0.00    +0.000 A 
ATOM     29  C   UNL     1       7.406   7.348  17.056  0.00  0.00    +0.000 A 
ATOM     30  C   UNL     1       8.050   7.501  18.283  0.00  0.00    +0.000 A 
ATOM     31 CL   UNL     1       8.823   8.989  18.667  0.00  0.00    +0.000 Cl
ATOM     32  C   UNL     1       8.057   6.457  19.209  0.00  0.00    +0.000 A 
ATOM     33  C   UNL     1       7.408   5.261  18.907  0.00  0.00    +0.000 A 
ENDBRANCH  25  27
ENDBRANCH  22  25
ENDBRANCH   4  22
TORSDOF 6
ENDMDL
