MODEL 1
REMARK VINA RESULT:      -7.9      0.000      0.000
REMARK  Name = 
REMARK  4 active torsions:
REMARK  status: ('A' for Active; 'I' for Inactive)
REMARK    1  A    between atoms: C_1  and  N_2
REMARK    2  A    between atoms: C_7  and  C_8
REMARK    3  A    between atoms: C_12  and  N_13
REMARK    4  A    between atoms: C_18  and  C_19
REMARK                            x       y       z     vdW  Elec       q    Type
REMARK                         _______ _______ _______ _____ _____    ______ ____
ROOT
ATOM      1  C   UNL     1       2.162   4.174  18.555  0.00  0.00    +0.000 A 
ATOM      2  C   UNL     1       1.759   3.653  19.788  0.00  0.00    +0.000 A 
ATOM      3  C   UNL     1       1.162   4.489  20.736  0.00  0.00    +0.000 A 
ATOM      4  C   UNL     1       1.094   5.864  20.508  0.00  0.00    +0.000 A 
ATOM      5  C   UNL     1       1.678   6.401  19.352  0.00  0.00    +0.000 A 
ATOM      6  C   UNL     1       2.004   5.540  18.304  0.00  0.00    +0.000 A 
ENDROOT
BRANCH   5   7
ATOM      7  N   UNL     1       2.428   7.654  19.406  0.00  0.00    +0.000 N 
ATOM      8  C   UNL     1       2.031   8.454  20.596  0.00  0.00    +0.000 C 
ATOM      9  C   UNL     1       0.902   9.267  20.047  0.00  0.00    +0.000 A 
ATOM     10  C   UNL     1      -0.327   9.567  20.602  0.00  0.00    +0.000 A 
ATOM     11  C   UNL     1      -1.338  10.013  19.741  0.00  0.00    +0.000 A 
ATOM     12  C   UNL     1      -1.107  10.172  18.349  0.00  0.00    +0.000 A 
ATOM     13  C   UNL     1       0.164   9.907  17.815  0.00  0.00    +0.000 A 
ATOM     14  C   UNL     1       1.130   9.433  18.678  0.00  0.00    +0.000 A 
ATOM     15  C   UNL     1       2.239   8.522  18.298  0.00  0.00    +0.000 C 
ATOM     16  O   UNL     1       2.704   8.444  17.182  0.00  0.00    +0.000 OA
BRANCH  12  17
ATOM     17  C   UNL     1      -2.237  10.499  17.402  0.00  0.00    +0.000 C 
ATOM     18  F   UNL     1      -1.950  10.230  16.099  0.00  0.00    +0.000 F 
ATOM     19  F   UNL     1      -3.375   9.817  17.691  0.00  0.00    +0.000 F 
ATOM     20  F   UNL     1      -2.569  11.822  17.440  0.00  0.00    +0.000 F 
ENDBRANCH  12  17
ENDBRANCH   5   7
BRANCH   1  27
ATOM     21  C   UNL     1       6.307   4.201  16.222  0.00  0.00    +0.000 C 
ATOM     22  N   UNL     1       5.185   4.477  17.138  0.00  0.00    +0.000 N 
ATOM     23  C   UNL     1       5.590   4.656  18.452  0.00  0.00    +0.000 C 
ATOM     24  N   UNL     1       5.468   3.780  19.409  0.00  0.00    +0.000 NA
ATOM     25  N   UNL     1       4.977   2.501  18.991  0.00  0.00    +0.000 NA
ATOM     26  C   UNL     1       4.081   2.491  18.052  0.00  0.00    +0.000 C 
ATOM     27  C   UNL     1       3.004   3.410  17.641  0.00  0.00    +0.000 C 
ATOM     28  C   UNL     1       4.128   3.591  17.004  0.00  0.00    +0.000 C 
ENDBRANCH   1  27
TORSDOF 3
ENDMDL
MODEL 2
REMARK VINA RESULT:      -7.5      4.781      9.136
REMARK  Name = 
REMARK  4 active torsions:
REMARK  status: ('A' for Active; 'I' for Inactive)
REMARK    1  A    between atoms: C_1  and  N_2
REMARK    2  A    between atoms: C_7  and  C_8
REMARK    3  A    between atoms: C_12  and  N_13
REMARK    4  A    between atoms: C_18  and  C_19
REMARK                            x       y       z     vdW  Elec       q    Type
REMARK                         _______ _______ _______ _____ _____    ______ ____
ROOT
ATOM      1  C   UNL     1      -3.487  11.541  18.692  0.00  0.00    +0.000 A 
ATOM      2  C   UNL     1      -3.420  11.221  17.333  0.00  0.00    +0.000 A 
ATOM      3  C   UNL     1      -2.349  10.463  16.847  0.00  0.00    +0.000 A 
ATOM      4  C   UNL     1      -1.282  10.146  17.689  0.00  0.00    +0.000 A 
ATOM      5  C   UNL     1      -1.269  10.640  19.002  0.00  0.00    +0.000 A 
ATOM      6  C   UNL     1      -2.454  11.136  19.543  0.00  0.00    +0.000 A 
ENDROOT
BRANCH   5   7
ATOM      7  N   UNL     1      -0.033  11.143  19.599  0.00  0.00    +0.000 N 
ATOM      8  C   UNL     1       1.058  11.189  18.590  0.00  0.00    +0.000 C 
ATOM      9  C   UNL     1       1.658   9.827  18.735  0.00  0.00    +0.000 A 
ATOM     10  C   UNL     1       2.073   8.932  17.768  0.00  0.00    +0.000 A 
ATOM     11  C   UNL     1       2.236   7.594  18.148  0.00  0.00    +0.000 A 
ATOM     12  C   UNL     1       2.004   7.170  19.483  0.00  0.00    +0.000 A 
ATOM     13  C   UNL     1       1.630   8.106  20.460  0.00  0.00    +0.000 A 
ATOM     14  C   UNL     1       1.439   9.410  20.052  0.00  0.00    +0.000 A 
ATOM     15  C   UNL     1       0.484  10.365  20.668  0.00  0.00    +0.000 C 
ATOM     16  O   UNL     1       0.107  10.304  21.818  0.00  0.00    +0.000 OA
BRANCH  12  17
ATOM     17  C   UNL     1       2.026   5.706  19.854  0.00  0.00    +0.000 C 
ATOM     18  F   UNL     1       3.221   5.290  20.355  0.00  0.00    +0.000 F 
ATOM     19  F   UNL     1       1.089   5.388  20.783  0.00  0.00    +0.000 F 
ATOM     20  F   UNL     1       1.779   4.903  18.778  0.00  0.00    +0.000 F 
ENDBRANCH  12  17
ENDBRANCH   5   7
BRANCH   1  27
ATOM     21  C   UNL     1      -7.875  13.287  18.129  0.00  0.00    +0.000 C 
ATOM     22  N   UNL     1      -6.651  12.465  18.085  0.00  0.00    +0.000 N 
ATOM     23  C   UNL     1      -6.899  11.115  18.278  0.00  0.00    +0.000 C 
ATOM     24  N   UNL     1      -6.674  10.451  19.377  0.00  0.00    +0.000 NA
ATOM     25  N   UNL     1      -6.247  11.254  20.484  0.00  0.00    +0.000 NA
ATOM     26  C   UNL     1      -5.467  12.257  20.219  0.00  0.00    +0.000 C 
ATOM     27  C   UNL     1      -4.437  12.524  19.199  0.00  0.00    +0.000 C 
ATOM     28  C   UNL     1      -5.626  12.955  18.878  0.00  0.00    +0.000 C 
ENDBRANCH   1  27
TORSDOF 3
ENDMDL
MODEL 3
REMARK VINA RESULT:      -7.2      3.511      4.800
REMARK  Name = 
REMARK  4 active torsions:
REMARK  status: ('A' for Active; 'I' for Inactive)
REMARK    1  A    between atoms: C_1  and  N_2
REMARK    2  A    between atoms: C_7  and  C_8
REMARK    3  A    between atoms: C_12  and  N_13
REMARK    4  A    between atoms: C_18  and  C_19
REMARK                            x       y       z     vdW  Elec       q    Type
REMARK                         _______ _______ _______ _____ _____    ______ ____
ROOT
ATOM      1  C   UNL     1       2.155   7.092  19.694  0.00  0.00    +0.000 A 
ATOM      2  C   UNL     1       2.376   7.310  18.331  0.00  0.00    +0.000 A 
ATOM      3  C   UNL     1       2.098   8.561  17.771  0.00  0.00    +0.000 A 
ATOM      4  C   UNL     1       1.473   9.544  18.539  0.00  0.00    +0.000 A 
ATOM      5  C   UNL     1       1.077   9.247  19.851  0.00  0.00    +0.000 A 
ATOM      6  C   UNL     1       1.612   8.119  20.472  0.00  0.00    +0.000 A 
ENDROOT
BRANCH   5   7
ATOM      7  N   UNL     1      -0.207   9.714  20.369  0.00  0.00    +0.000 N 
ATOM      8  C   UNL     1      -0.978  10.417  19.309  0.00  0.00    +0.000 C 
ATOM      9  C   UNL     1      -0.507  11.826  19.480  0.00  0.00    +0.000 A 
ATOM     10  C   UNL     1      -0.147  12.763  18.530  0.00  0.00    +0.000 A 
ATOM     11  C   UNL     1       0.614  13.859  18.954  0.00  0.00    +0.000 A 
ATOM     12  C   UNL     1       0.989  14.018  20.314  0.00  0.00    +0.000 A 
ATOM     13  C   UNL     1       0.571  13.078  21.271  0.00  0.00    +0.000 A 
ATOM     14  C   UNL     1      -0.144  11.988  20.820  0.00  0.00    +0.000 A 
ATOM     15  C   UNL     1      -0.126  10.640  21.442  0.00  0.00    +0.000 C 
ATOM     16  O   UNL     1       0.122  10.433  22.610  0.00  0.00    +0.000 OA
BRANCH  12  17
ATOM     17  C   UNL     1       1.940  15.111  20.741  0.00  0.00    +0.000 C 
ATOM     18  F   UNL     1       1.380  16.351  20.735  0.00  0.00    +0.000 F 
ATOM     19  F   UNL     1       2.430  14.919  21.993  0.00  0.00    +0.000 F 
ATOM     20  F   UNL     1       3.026  15.193  19.919  0.00  0.00    +0.000 F 
ENDBRANCH  12  17
ENDBRANCH   5   7
BRANCH   1  27
ATOM     21  C   UNL     1       0.971   2.549  18.928  0.00  0.00    +0.000 C 
ATOM     22  N   UNL     1       1.270   3.987  18.792  0.00  0.00    +0.000 N 
ATOM     23  C   UNL     1       2.050   4.275  17.682  0.00  0.00    +0.000 C 
ATOM     24  N   UNL     1       3.324   4.549  17.700  0.00  0.00    +0.000 NA
ATOM     25  N   UNL     1       3.948   4.411  18.982  0.00  0.00    +0.000 NA
ATOM     26  C   UNL     1       3.247   4.754  20.019  0.00  0.00    +0.000 C 
ATOM     27  C   UNL     1       2.191   5.752  20.269  0.00  0.00    +0.000 C 
ATOM     28  C   UNL     1       1.739   4.568  19.959  0.00  0.00    +0.000 C 
ENDBRANCH   1  27
TORSDOF 3
ENDMDL
MODEL 4
REMARK VINA RESULT:      -7.2      4.023      7.792
REMARK  Name = 
REMARK  4 active torsions:
REMARK  status: ('A' for Active; 'I' for Inactive)
REMARK    1  A    between atoms: C_1  and  N_2
REMARK    2  A    between atoms: C_7  and  C_8
REMARK    3  A    between atoms: C_12  and  N_13
REMARK    4  A    between atoms: C_18  and  C_19
REMARK                            x       y       z     vdW  Elec       q    Type
REMARK                         _______ _______ _______ _____ _____    ______ ____
ROOT
ATOM      1  C   UNL     1       1.885   7.925  19.708  0.00  0.00    +0.000 A 
ATOM      2  C   UNL     1       2.311   8.578  18.548  0.00  0.00    +0.000 A 
ATOM      3  C   UNL     1       2.834   7.838  17.482  0.00  0.00    +0.000 A 
ATOM      4  C   UNL     1       3.058   6.468  17.630  0.00  0.00    +0.000 A 
ATOM      5  C   UNL     1       2.808   5.858  18.868  0.00  0.00    +0.000 A 
ATOM      6  C   UNL     1       2.032   6.538  19.805  0.00  0.00    +0.000 A 
ENDROOT
BRANCH   5   7
ATOM      7  N   UNL     1       3.724   4.853  19.404  0.00  0.00    +0.000 N 
ATOM      8  C   UNL     1       5.071   5.439  19.636  0.00  0.00    +0.000 C 
ATOM      9  C   UNL     1       5.734   5.198  18.317  0.00  0.00    +0.000 A 
ATOM     10  C   UNL     1       6.532   6.034  17.559  0.00  0.00    +0.000 A 
ATOM     11  C   UNL     1       6.706   5.716  16.206  0.00  0.00    +0.000 A 
ATOM     12  C   UNL     1       6.102   4.566  15.634  0.00  0.00    +0.000 A 
ATOM     13  C   UNL     1       5.335   3.704  16.434  0.00  0.00    +0.000 A 
ATOM     14  C   UNL     1       5.148   4.061  17.753  0.00  0.00    +0.000 A 
ATOM     15  C   UNL     1       3.949   3.731  18.564  0.00  0.00    +0.000 C 
ATOM     16  O   UNL     1       3.231   2.777  18.358  0.00  0.00    +0.000 OA
BRANCH  12  17
ATOM     17  C   UNL     1       6.160   4.312  14.145  0.00  0.00    +0.000 C 
ATOM     18  F   UNL     1       7.076   5.081  13.497  0.00  0.00    +0.000 F 
ATOM     19  F   UNL     1       6.463   3.023  13.846  0.00  0.00    +0.000 F 
ATOM     20  F   UNL     1       4.966   4.571  13.537  0.00  0.00    +0.000 F 
ENDBRANCH  12  17
ENDBRANCH   5   7
BRANCH   1  27
ATOM     21  C   UNL     1       0.714  12.207  21.415  0.00  0.00    +0.000 C 
ATOM     22  N   UNL     1       0.985  11.041  20.554  0.00  0.00    +0.000 N 
ATOM     23  C   UNL     1      -0.009  10.823  19.611  0.00  0.00    +0.000 C 
ATOM     24  N   UNL     1      -0.927   9.900  19.675  0.00  0.00    +0.000 NA
ATOM     25  N   UNL     1      -0.940   9.154  20.897  0.00  0.00    +0.000 NA
ATOM     26  C   UNL     1       0.208   8.895  21.444  0.00  0.00    +0.000 C 
ATOM     27  C   UNL     1       1.569   8.660  20.926  0.00  0.00    +0.000 C 
ATOM     28  C   UNL     1       1.333   9.900  21.259  0.00  0.00    +0.000 C 
ENDBRANCH   1  27
TORSDOF 3
ENDMDL
MODEL 5
REMARK VINA RESULT:      -7.2      3.357      4.567
REMARK  Name = 
REMARK  4 active torsions:
REMARK  status: ('A' for Active; 'I' for Inactive)
REMARK    1  A    between atoms: C_1  and  N_2
REMARK    2  A    between atoms: C_7  and  C_8
REMARK    3  A    between atoms: C_12  and  N_13
REMARK    4  A    between atoms: C_18  and  C_19
REMARK                            x       y       z     vdW  Elec       q    Type
REMARK                         _______ _______ _______ _____ _____    ______ ____
ROOT
ATOM      1  C   UNL     1       2.224   7.252  19.351  0.00  0.00    +0.000 A 
ATOM      2  C   UNL     1       2.372   7.697  18.034  0.00  0.00    +0.000 A 
ATOM      3  C   UNL     1       2.043   9.015  17.702  0.00  0.00    +0.000 A 
ATOM      4  C   UNL     1       1.440   9.842  18.651  0.00  0.00    +0.000 A 
ATOM      5  C   UNL     1       1.117   9.323  19.913  0.00  0.00    +0.000 A 
ATOM      6  C   UNL     1       1.703   8.122  20.313  0.00  0.00    +0.000 A 
ENDROOT
BRANCH   5   7
ATOM      7  N   UNL     1      -0.147   9.665  20.561  0.00  0.00    +0.000 N 
ATOM      8  C   UNL     1      -1.097  10.258  19.582  0.00  0.00    +0.000 C 
ATOM      9  C   UNL     1      -0.763  11.712  19.685  0.00  0.00    +0.000 A 
ATOM     10  C   UNL     1      -0.609  12.660  18.691  0.00  0.00    +0.000 A 
ATOM     11  C   UNL     1       0.073  13.839  19.017  0.00  0.00    +0.000 A 
ATOM     12  C   UNL     1       0.571  14.067  20.327  0.00  0.00    +0.000 A 
ATOM     13  C   UNL     1       0.360  13.112  21.334  0.00  0.00    +0.000 A 
ATOM     14  C   UNL     1      -0.279  11.943  20.976  0.00  0.00    +0.000 A 
ATOM     15  C   UNL     1      -0.052  10.619  21.609  0.00  0.00    +0.000 C 
ATOM     16  O   UNL     1       0.339  10.466  22.745  0.00  0.00    +0.000 OA
BRANCH  12  17
ATOM     17  C   UNL     1       1.440  15.264  20.635  0.00  0.00    +0.000 C 
ATOM     18  F   UNL     1       2.347  15.037  21.623  0.00  0.00    +0.000 F 
ATOM     19  F   UNL     1       2.147  15.689  19.557  0.00  0.00    +0.000 F 
ATOM     20  F   UNL     1       0.704  16.336  21.051  0.00  0.00    +0.000 F 
ENDBRANCH  12  17
ENDBRANCH   5   7
BRANCH   1  27
ATOM     21  C   UNL     1       2.837   2.893  17.548  0.00  0.00    +0.000 C 
ATOM     22  N   UNL     1       2.773   4.351  17.764  0.00  0.00    +0.000 N 
ATOM     23  C   UNL     1       3.901   5.016  17.306  0.00  0.00    +0.000 C 
ATOM     24  N   UNL     1       4.865   5.477  18.052  0.00  0.00    +0.000 NA
ATOM     25  N   UNL     1       4.761   5.140  19.440  0.00  0.00    +0.000 NA
ATOM     26  C   UNL     1       3.570   5.109  19.953  0.00  0.00    +0.000 C 
ATOM     27  C   UNL     1       2.314   5.838  19.694  0.00  0.00    +0.000 C 
ATOM     28  C   UNL     1       2.412   4.705  19.054  0.00  0.00    +0.000 C 
ENDBRANCH   1  27
TORSDOF 3
ENDMDL
MODEL 6
REMARK VINA RESULT:      -7.1      6.313      9.981
REMARK  Name = 
REMARK  4 active torsions:
REMARK  status: ('A' for Active; 'I' for Inactive)
REMARK    1  A    between atoms: C_1  and  N_2
REMARK    2  A    between atoms: C_7  and  C_8
REMARK    3  A    between atoms: C_12  and  N_13
REMARK    4  A    between atoms: C_18  and  C_19
REMARK                            x       y       z     vdW  Elec       q    Type
REMARK                         _______ _______ _______ _____ _____    ______ ____
ROOT
ATOM      1  C   UNL     1      -3.666  13.259  21.260  0.00  0.00    +0.000 A 
ATOM      2  C   UNL     1      -3.496  12.664  22.513  0.00  0.00    +0.000 A 
ATOM      3  C   UNL     1      -2.413  13.029  23.318  0.00  0.00    +0.000 A 
ATOM      4  C   UNL     1      -1.428  13.882  22.816  0.00  0.00    +0.000 A 
ATOM      5  C   UNL     1      -1.508  14.319  21.485  0.00  0.00    +0.000 A 
ATOM      6  C   UNL     1      -2.719  14.182  20.807  0.00  0.00    +0.000 A 
ENDROOT
BRANCH   5   7
ATOM      7  N   UNL     1      -0.311  14.393  20.650  0.00  0.00    +0.000 N 
ATOM      8  C   UNL     1      -0.590  13.880  19.283  0.00  0.00    +0.000 C 
ATOM      9  C   UNL     1      -0.273  12.427  19.437  0.00  0.00    +0.000 A 
ATOM     10  C   UNL     1      -0.955  11.316  18.978  0.00  0.00    +0.000 A 
ATOM     11  C   UNL     1      -0.667  10.083  19.577  0.00  0.00    +0.000 A 
ATOM     12  C   UNL     1       0.305   9.970  20.606  0.00  0.00    +0.000 A 
ATOM     13  C   UNL     1       1.020  11.104  21.023  0.00  0.00    +0.000 A 
ATOM     14  C   UNL     1       0.689  12.312  20.444  0.00  0.00    +0.000 A 
ATOM     15  C   UNL     1       0.796  13.633  21.111  0.00  0.00    +0.000 C 
ATOM     16  O   UNL     1       1.568  13.881  22.012  0.00  0.00    +0.000 OA
BRANCH  12  17
ATOM     17  C   UNL     1       0.500   8.673  21.357  0.00  0.00    +0.000 C 
ATOM     18  F   UNL     1       1.246   7.760  20.680  0.00  0.00    +0.000 F 
ATOM     19  F   UNL     1       1.110   8.852  22.557  0.00  0.00    +0.000 F 
ATOM     20  F   UNL     1      -0.686   8.054  21.624  0.00  0.00    +0.000 F 
ENDBRANCH  12  17
ENDBRANCH   5   7
BRANCH   1  27
ATOM     21  C   UNL     1      -7.902  11.145  20.800  0.00  0.00    +0.000 C 
ATOM     22  N   UNL     1      -6.712  11.862  21.297  0.00  0.00    +0.000 N 
ATOM     23  C   UNL     1      -7.031  12.993  22.033  0.00  0.00    +0.000 C 
ATOM     24  N   UNL     1      -6.946  14.223  21.610  0.00  0.00    +0.000 NA
ATOM     25  N   UNL     1      -6.604  14.357  20.225  0.00  0.00    +0.000 NA
ATOM     26  C   UNL     1      -5.763  13.496  19.739  0.00  0.00    +0.000 C 
ATOM     27  C   UNL     1      -4.623  12.740  20.291  0.00  0.00    +0.000 C 
ATOM     28  C   UNL     1      -5.756  12.092  20.321  0.00  0.00    +0.000 C 
ENDBRANCH   1  27
TORSDOF 3
ENDMDL
MODEL 7
REMARK VINA RESULT:      -7.1      4.540      8.205
REMARK  Name = 
REMARK  4 active torsions:
REMARK  status: ('A' for Active; 'I' for Inactive)
REMARK    1  A    between atoms: C_1  and  N_2
REMARK    2  A    between atoms: C_7  and  C_8
REMARK    3  A    between atoms: C_12  and  N_13
REMARK    4  A    between atoms: C_18  and  C_19
REMARK                            x       y       z     vdW  Elec       q    Type
REMARK                         _______ _______ _______ _____ _____    ______ ____
ROOT
ATOM      1  C   UNL     1       0.908   9.697  19.584  0.00  0.00    +0.000 A 
ATOM      2  C   UNL     1       0.525   9.055  20.765  0.00  0.00    +0.000 A 
ATOM      3  C   UNL     1       1.119   7.840  21.122  0.00  0.00    +0.000 A 
ATOM      4  C   UNL     1       1.988   7.202  20.235  0.00  0.00    +0.000 A 
ATOM      5  C   UNL     1       2.213   7.762  18.968  0.00  0.00    +0.000 A 
ATOM      6  C   UNL     1       1.850   9.090  18.748  0.00  0.00    +0.000 A 
ENDROOT
BRANCH   5   7
ATOM      7  N   UNL     1       2.290   6.914  17.780  0.00  0.00    +0.000 N 
ATOM      8  C   UNL     1       2.171   5.478  18.150  0.00  0.00    +0.000 C 
ATOM      9  C   UNL     1       3.601   5.110  18.385  0.00  0.00    +0.000 A 
ATOM     10  C   UNL     1       4.169   4.355  19.393  0.00  0.00    +0.000 A 
ATOM     11  C   UNL     1       5.549   4.480  19.601  0.00  0.00    +0.000 A 
ATOM     12  C   UNL     1       6.344   5.335  18.793  0.00  0.00    +0.000 A 
ATOM     13  C   UNL     1       5.753   6.055  17.742  0.00  0.00    +0.000 A 
ATOM     14  C   UNL     1       4.387   5.944  17.584  0.00  0.00    +0.000 A 
ATOM     15  C   UNL     1       3.502   7.008  17.047  0.00  0.00    +0.000 C 
ATOM     16  O   UNL     1       3.869   7.879  16.289  0.00  0.00    +0.000 OA
BRANCH  12  17
ATOM     17  C   UNL     1       7.797   5.588  19.118  0.00  0.00    +0.000 C 
ATOM     18  F   UNL     1       8.244   6.803  18.698  0.00  0.00    +0.000 F 
ATOM     19  F   UNL     1       8.054   5.525  20.449  0.00  0.00    +0.000 F 
ATOM     20  F   UNL     1       8.619   4.671  18.530  0.00  0.00    +0.000 F 
ENDBRANCH  12  17
ENDBRANCH   5   7
BRANCH   1  27
ATOM     21  C   UNL     1      -2.130  13.176  20.722  0.00  0.00    +0.000 C 
ATOM     22  N   UNL     1      -1.145  12.078  20.747  0.00  0.00    +0.000 N 
ATOM     23  C   UNL     1      -0.093  12.315  21.619  0.00  0.00    +0.000 C 
ATOM     24  N   UNL     1       1.109  12.682  21.276  0.00  0.00    +0.000 NA
ATOM     25  N   UNL     1       1.273  12.966  19.881  0.00  0.00    +0.000 NA
ATOM     26  C   UNL     1       0.612  12.225  19.046  0.00  0.00    +0.000 C 
ATOM     27  C   UNL     1       0.153  10.824  19.047  0.00  0.00    +0.000 C 
ATOM     28  C   UNL     1      -0.734  11.673  19.487  0.00  0.00    +0.000 C 
ENDBRANCH   1  27
TORSDOF 3
ENDMDL
MODEL 8
REMARK VINA RESULT:      -6.9      5.019      9.433
REMARK  Name = 
REMARK  4 active torsions:
REMARK  status: ('A' for Active; 'I' for Inactive)
REMARK    1  A    between atoms: C_1  and  N_2
REMARK    2  A    between atoms: C_7  and  C_8
REMARK    3  A    between atoms: C_12  and  N_13
REMARK    4  A    between atoms: C_18  and  C_19
REMARK                            x       y       z     vdW  Elec       q    Type
REMARK                         _______ _______ _______ _____ _____    ______ ____
ROOT
ATOM      1  C   UNL     1      -3.537  12.164  19.638  0.00  0.00    +0.000 A 
ATOM      2  C   UNL     1      -3.676  11.781  18.301  0.00  0.00    +0.000 A 
ATOM      3  C   UNL     1      -2.711  10.961  17.707  0.00  0.00    +0.000 A 
ATOM      4  C   UNL     1      -1.545  10.640  18.403  0.00  0.00    +0.000 A 
ATOM      5  C   UNL     1      -1.327  11.191  19.675  0.00  0.00    +0.000 A 
ATOM      6  C   UNL     1      -2.406  11.757  20.353  0.00  0.00    +0.000 A 
ENDROOT
BRANCH   5   7
ATOM      7  N   UNL     1      -0.003  11.672  20.064  0.00  0.00    +0.000 N 
ATOM      8  C   UNL     1       0.895  11.754  18.882  0.00  0.00    +0.000 C 
ATOM      9  C   UNL     1       1.503  10.387  18.871  0.00  0.00    +0.000 A 
ATOM     10  C   UNL     1       1.736   9.528  17.815  0.00  0.00    +0.000 A 
ATOM     11  C   UNL     1       1.953   8.176  18.111  0.00  0.00    +0.000 A 
ATOM     12  C   UNL     1       1.955   7.705  19.450  0.00  0.00    +0.000 A 
ATOM     13  C   UNL     1       1.764   8.604  20.511  0.00  0.00    +0.000 A 
ATOM     14  C   UNL     1       1.513   9.922  20.189  0.00  0.00    +0.000 A 
ATOM     15  C   UNL     1       0.687  10.854  20.997  0.00  0.00    +0.000 C 
ATOM     16  O   UNL     1       0.517  10.751  22.192  0.00  0.00    +0.000 OA
BRANCH  12  17
ATOM     17  C   UNL     1       2.032   6.227  19.758  0.00  0.00    +0.000 C 
ATOM     18  F   UNL     1       1.713   5.434  18.700  0.00  0.00    +0.000 F 
ATOM     19  F   UNL     1       3.268   5.842  20.167  0.00  0.00    +0.000 F 
ATOM     20  F   UNL     1       1.174   5.869  20.757  0.00  0.00    +0.000 F 
ENDBRANCH  12  17
ENDBRANCH   5   7
BRANCH   1  27
ATOM     21  C   UNL     1      -7.916  14.019  19.660  0.00  0.00    +0.000 C 
ATOM     22  N   UNL     1      -6.734  13.156  19.477  0.00  0.00    +0.000 N 
ATOM     23  C   UNL     1      -6.981  11.827  19.789  0.00  0.00    +0.000 C 
ATOM     24  N   UNL     1      -6.600  11.221  20.878  0.00  0.00    +0.000 NA
ATOM     25  N   UNL     1      -5.985  12.071  21.853  0.00  0.00    +0.000 NA
ATOM     26  C   UNL     1      -5.234  13.031  21.408  0.00  0.00    +0.000 C 
ATOM     27  C   UNL     1      -4.371  13.205  20.225  0.00  0.00    +0.000 C 
ATOM     28  C   UNL     1      -5.586  13.656  20.068  0.00  0.00    +0.000 C 
ENDBRANCH   1  27
TORSDOF 3
ENDMDL
MODEL 9
REMARK VINA RESULT:      -6.9      5.857      9.268
REMARK  Name = 
REMARK  4 active torsions:
REMARK  status: ('A' for Active; 'I' for Inactive)
REMARK    1  A    between atoms: C_1  and  N_2
REMARK    2  A    between atoms: C_7  and  C_8
REMARK    3  A    between atoms: C_12  and  N_13
REMARK    4  A    between atoms: C_18  and  C_19
REMARK                            x       y       z     vdW  Elec       q    Type
REMARK                         _______ _______ _______ _____ _____    ______ ____
ROOT
ATOM      1  C   UNL     1      -3.711  11.535  18.498  0.00  0.00    +0.000 A 
ATOM      2  C   UNL     1      -3.966  11.216  17.162  0.00  0.00    +0.000 A 
ATOM      3  C   UNL     1      -3.095  10.367  16.470  0.00  0.00    +0.000 A 
ATOM      4  C   UNL     1      -1.904   9.953  17.068  0.00  0.00    +0.000 A 
ATOM      5  C   UNL     1      -1.566  10.439  18.340  0.00  0.00    +0.000 A 
ATOM      6  C   UNL     1      -2.559  11.037  19.114  0.00  0.00    +0.000 A 
ENDROOT
BRANCH   5   7
ATOM      7  N   UNL     1      -0.192  10.827  18.649  0.00  0.00    +0.000 N 
ATOM      8  C   UNL     1       0.374   9.959  19.716  0.00  0.00    +0.000 C 
ATOM      9  C   UNL     1      -0.012  10.710  20.950  0.00  0.00    +0.000 A 
ATOM     10  C   UNL     1      -0.526  10.247  22.147  0.00  0.00    +0.000 A 
ATOM     11  C   UNL     1      -1.156  11.175  22.986  0.00  0.00    +0.000 A 
ATOM     12  C   UNL     1      -1.249  12.546  22.634  0.00  0.00    +0.000 A 
ATOM     13  C   UNL     1      -0.678  13.003  21.435  0.00  0.00    +0.000 A 
ATOM     14  C   UNL     1      -0.098  12.063  20.609  0.00  0.00    +0.000 A 
ATOM     15  C   UNL     1      -0.031  12.154  19.129  0.00  0.00    +0.000 C 
ATOM     16  O   UNL     1      -0.049  13.196  18.510  0.00  0.00    +0.000 OA
BRANCH  12  17
ATOM     17  C   UNL     1      -2.065  13.512  23.462  0.00  0.00    +0.000 C 
ATOM     18  F   UNL     1      -1.326  14.214  24.363  0.00  0.00    +0.000 F 
ATOM     19  F   UNL     1      -2.716  14.431  22.702  0.00  0.00    +0.000 F 
ATOM     20  F   UNL     1      -3.026  12.874  24.190  0.00  0.00    +0.000 F 
ENDBRANCH  12  17
ENDBRANCH   5   7
BRANCH   1  27
ATOM     21  C   UNL     1      -7.917  13.738  18.787  0.00  0.00    +0.000 C 
ATOM     22  N   UNL     1      -6.816  12.796  18.507  0.00  0.00    +0.000 N 
ATOM     23  C   UNL     1      -7.166  11.474  18.736  0.00  0.00    +0.000 C 
ATOM     24  N   UNL     1      -6.810  10.763  19.768  0.00  0.00    +0.000 NA
ATOM     25  N   UNL     1      -6.100  11.488  20.778  0.00  0.00    +0.000 NA
ATOM     26  C   UNL     1      -5.282  12.412  20.377  0.00  0.00    +0.000 C 
ATOM     27  C   UNL     1      -4.439  12.598  19.182  0.00  0.00    +0.000 C 
ATOM     28  C   UNL     1      -5.615  13.158  19.095  0.00  0.00    +0.000 C 
ENDBRANCH   1  27
TORSDOF 3
ENDMDL
