MODEL 1
REMARK VINA RESULT:      -9.1      0.000      0.000
REMARK  Name = 
REMARK  6 active torsions:
REMARK  status: ('A' for Active; 'I' for Inactive)
REMARK    1  A    between atoms: C_1  and  N_2
REMARK    2  A    between atoms: C_6  and  C_7
REMARK    3  A    between atoms: C_7  and  C_8
REMARK    4  A    between atoms: C_8  and  C_9
REMARK    5  A    between atoms: C_13  and  N_14
REMARK    6  A    between atoms: C_21  and  C_22
REMARK                            x       y       z     vdW  Elec       q    Type
REMARK                         _______ _______ _______ _____ _____    ______ ____
ROOT
ATOM      1  C   UNL     1       4.475   4.608  17.860  0.00  0.00    +0.000 C 
ATOM      2  C   UNL     1       4.062   3.520  18.539  0.00  0.00    +0.000 C 
ATOM      3  C   UNL     1       2.898   3.576  19.489  0.00  0.00    +0.000 C 
ATOM      4  C   UNL     1       2.637   4.983  20.054  0.00  0.00    +0.000 C 
ATOM      5  C   UNL     1       2.909   6.090  19.048  0.00  0.00    +0.000 C 
ATOM      6  C   UNL     1       3.738   5.858  18.011  0.00  0.00    +0.000 C 
ENDROOT
BRANCH   5   7
ATOM      7  N   UNL     1       2.273   7.310  19.238  0.00  0.00    +0.000 N 
ATOM      8  C   UNL     1       1.585   7.672  20.474  0.00  0.00    +0.000 C 
ATOM      9  C   UNL     1       1.098   9.063  20.213  0.00  0.00    +0.000 A 
ATOM     10  C   UNL     1       1.441   9.439  18.917  0.00  0.00    +0.000 A 
ATOM     11  C   UNL     1       1.075  10.653  18.365  0.00  0.00    +0.000 A 
ATOM     12  C   UNL     1       0.349  11.531  19.168  0.00  0.00    +0.000 A 
ATOM     13  C   UNL     1       0.023  11.182  20.492  0.00  0.00    +0.000 A 
ATOM     14  C   UNL     1       0.396   9.937  21.040  0.00  0.00    +0.000 A 
ATOM     15  C   UNL     1       2.211   8.351  18.302  0.00  0.00    +0.000 C 
ATOM     16  O   UNL     1       2.654   8.415  17.170  0.00  0.00    +0.000 OA
BRANCH  14  17
ATOM     17  C   UNL     1       0.047   9.609  22.468  0.00  0.00    +0.000 C 
ATOM     18  F   UNL     1       1.122   9.270  23.230  0.00  0.00    +0.000 F 
ATOM     19  F   UNL     1      -0.547  10.653  23.108  0.00  0.00    +0.000 F 
ATOM     20  F   UNL     1      -0.822   8.565  22.564  0.00  0.00    +0.000 F 
ENDBRANCH  14  17
ENDBRANCH   5   7
BRANCH   1  21
ATOM     21  C   UNL     1       5.701   4.618  16.967  0.00  0.00    +0.000 C 
BRANCH  21  22
ATOM     22  C   UNL     1       5.441   4.180  15.520  0.00  0.00    +0.000 C 
BRANCH  22  28
ATOM     23  C   UNL     1       5.888   3.363  12.509  0.00  0.00    +0.000 C 
ATOM     24  N   UNL     1       6.692   4.265  13.290  0.00  0.00    +0.000 N 
ATOM     25  C   UNL     1       7.789   4.934  12.840  0.00  0.00    +0.000 A 
ATOM     26  N   UNL     1       8.288   5.661  13.810  0.00  0.00    +0.000 NA
ATOM     27  N   UNL     1       7.498   5.471  14.919  0.00  0.00    +0.000 NA
ATOM     28  C   UNL     1       6.531   4.631  14.603  0.00  0.00    +0.000 A 
ENDBRANCH  22  28
ENDBRANCH  21  22
ENDBRANCH   1  21
TORSDOF 5
ENDMDL
MODEL 2
REMARK VINA RESULT:      -8.9      1.227      1.864
REMARK  Name = 
REMARK  6 active torsions:
REMARK  status: ('A' for Active; 'I' for Inactive)
REMARK    1  A    between atoms: C_1  and  N_2
REMARK    2  A    between atoms: C_6  and  C_7
REMARK    3  A    between atoms: C_7  and  C_8
REMARK    4  A    between atoms: C_8  and  C_9
REMARK    5  A    between atoms: C_13  and  N_14
REMARK    6  A    between atoms: C_21  and  C_22
REMARK                            x       y       z     vdW  Elec       q    Type
REMARK                         _______ _______ _______ _____ _____    ______ ____
ROOT
ATOM      1  C   UNL     1       4.425   4.571  19.268  0.00  0.00    +0.000 C 
ATOM      2  C   UNL     1       3.654   3.468  19.241  0.00  0.00    +0.000 C 
ATOM      3  C   UNL     1       2.154   3.552  19.310  0.00  0.00    +0.000 C 
ATOM      4  C   UNL     1       1.644   4.834  19.990  0.00  0.00    +0.000 C 
ATOM      5  C   UNL     1       2.504   6.051  19.691  0.00  0.00    +0.000 C 
ATOM      6  C   UNL     1       3.787   5.882  19.311  0.00  0.00    +0.000 C 
ENDROOT
BRANCH   5   7
ATOM      7  N   UNL     1       1.919   7.305  19.815  0.00  0.00    +0.000 N 
ATOM      8  C   UNL     1       1.208   7.744  21.011  0.00  0.00    +0.000 C 
ATOM      9  C   UNL     1       0.795   9.145  20.683  0.00  0.00    +0.000 A 
ATOM     10  C   UNL     1       1.198   9.455  19.387  0.00  0.00    +0.000 A 
ATOM     11  C   UNL     1       0.907  10.663  18.779  0.00  0.00    +0.000 A 
ATOM     12  C   UNL     1       0.196  11.602  19.524  0.00  0.00    +0.000 A 
ATOM     13  C   UNL     1      -0.189  11.319  20.847  0.00  0.00    +0.000 A 
ATOM     14  C   UNL     1       0.107  10.080  21.453  0.00  0.00    +0.000 A 
ATOM     15  C   UNL     1       1.937   8.311  18.839  0.00  0.00    +0.000 C 
ATOM     16  O   UNL     1       2.419   8.312  17.722  0.00  0.00    +0.000 OA
BRANCH  14  17
ATOM     17  C   UNL     1      -0.304   9.822  22.879  0.00  0.00    +0.000 C 
ATOM     18  F   UNL     1      -1.141   8.759  23.023  0.00  0.00    +0.000 F 
ATOM     19  F   UNL     1       0.762   9.567  23.686  0.00  0.00    +0.000 F 
ATOM     20  F   UNL     1      -0.951  10.883  23.434  0.00  0.00    +0.000 F 
ENDBRANCH  14  17
ENDBRANCH   5   7
BRANCH   1  21
ATOM     21  C   UNL     1       5.942   4.528  19.296  0.00  0.00    +0.000 C 
BRANCH  21  22
ATOM     22  C   UNL     1       6.628   5.675  18.544  0.00  0.00    +0.000 C 
BRANCH  22  28
ATOM     23  C   UNL     1       4.954   6.613  16.044  0.00  0.00    +0.000 C 
ATOM     24  N   UNL     1       6.117   5.767  16.039  0.00  0.00    +0.000 N 
ATOM     25  C   UNL     1       6.701   5.237  14.929  0.00  0.00    +0.000 A 
ATOM     26  N   UNL     1       7.733   4.509  15.282  0.00  0.00    +0.000 NA
ATOM     27  N   UNL     1       7.834   4.568  16.652  0.00  0.00    +0.000 NA
ATOM     28  C   UNL     1       6.860   5.333  17.108  0.00  0.00    +0.000 A 
ENDBRANCH  22  28
ENDBRANCH  21  22
ENDBRANCH   1  21
TORSDOF 5
ENDMDL
MODEL 3
REMARK VINA RESULT:      -8.9      1.987      2.680
REMARK  Name = 
REMARK  6 active torsions:
REMARK  status: ('A' for Active; 'I' for Inactive)
REMARK    1  A    between atoms: C_1  and  N_2
REMARK    2  A    between atoms: C_6  and  C_7
REMARK    3  A    between atoms: C_7  and  C_8
REMARK    4  A    between atoms: C_8  and  C_9
REMARK    5  A    between atoms: C_13  and  N_14
REMARK    6  A    between atoms: C_21  and  C_22
REMARK                            x       y       z     vdW  Elec       q    Type
REMARK                         _______ _______ _______ _____ _____    ______ ____
ROOT
ATOM      1  C   UNL     1       3.638   4.791  17.580  0.00  0.00    +0.000 C 
ATOM      2  C   UNL     1       3.274   3.720  18.311  0.00  0.00    +0.000 C 
ATOM      3  C   UNL     1       2.291   3.832  19.443  0.00  0.00    +0.000 C 
ATOM      4  C   UNL     1       2.223   5.243  20.054  0.00  0.00    +0.000 C 
ATOM      5  C   UNL     1       2.395   6.348  19.025  0.00  0.00    +0.000 C 
ATOM      6  C   UNL     1       3.022   6.082  17.862  0.00  0.00    +0.000 C 
ENDROOT
BRANCH   5   7
ATOM      7  N   UNL     1       1.882   7.603  19.329  0.00  0.00    +0.000 N 
ATOM      8  C   UNL     1       1.234   7.919  20.598  0.00  0.00    +0.000 C 
ATOM      9  C   UNL     1       0.886   9.369  20.467  0.00  0.00    +0.000 A 
ATOM     10  C   UNL     1       1.262   9.823  19.205  0.00  0.00    +0.000 A 
ATOM     11  C   UNL     1       1.017  11.111  18.766  0.00  0.00    +0.000 A 
ATOM     12  C   UNL     1       0.382  11.981  19.651  0.00  0.00    +0.000 A 
ATOM     13  C   UNL     1       0.025  11.549  20.942  0.00  0.00    +0.000 A 
ATOM     14  C   UNL     1       0.274  10.230  21.375  0.00  0.00    +0.000 A 
ATOM     15  C   UNL     1       1.922   8.723  18.489  0.00  0.00    +0.000 C 
ATOM     16  O   UNL     1       2.367   8.844  17.363  0.00  0.00    +0.000 OA
BRANCH  14  17
ATOM     17  C   UNL     1      -0.104   9.812  22.771  0.00  0.00    +0.000 C 
ATOM     18  F   UNL     1      -0.714  10.793  23.490  0.00  0.00    +0.000 F 
ATOM     19  F   UNL     1      -0.965   8.757  22.779  0.00  0.00    +0.000 F 
ATOM     20  F   UNL     1       0.973   9.425  23.508  0.00  0.00    +0.000 F 
ENDBRANCH  14  17
ENDBRANCH   5   7
BRANCH   1  21
ATOM     21  C   UNL     1       4.695   4.739  16.493  0.00  0.00    +0.000 C 
BRANCH  21  22
ATOM     22  C   UNL     1       5.671   5.922  16.494  0.00  0.00    +0.000 C 
BRANCH  22  28
ATOM     23  C   UNL     1       7.591   8.166  17.594  0.00  0.00    +0.000 C 
ATOM     24  N   UNL     1       7.491   6.809  18.058  0.00  0.00    +0.000 N 
ATOM     25  C   UNL     1       8.216   6.269  19.076  0.00  0.00    +0.000 A 
ATOM     26  N   UNL     1       7.885   5.010  19.231  0.00  0.00    +0.000 NA
ATOM     27  N   UNL     1       6.917   4.718  18.300  0.00  0.00    +0.000 NA
ATOM     28  C   UNL     1       6.676   5.807  17.594  0.00  0.00    +0.000 A 
ENDBRANCH  22  28
ENDBRANCH  21  22
ENDBRANCH   1  21
TORSDOF 5
ENDMDL
MODEL 4
REMARK VINA RESULT:      -8.9      1.451      2.115
REMARK  Name = 
REMARK  6 active torsions:
REMARK  status: ('A' for Active; 'I' for Inactive)
REMARK    1  A    between atoms: C_1  and  N_2
REMARK    2  A    between atoms: C_6  and  C_7
REMARK    3  A    between atoms: C_7  and  C_8
REMARK    4  A    between atoms: C_8  and  C_9
REMARK    5  A    between atoms: C_13  and  N_14
REMARK    6  A    between atoms: C_21  and  C_22
REMARK                            x       y       z     vdW  Elec       q    Type
REMARK                         _______ _______ _______ _____ _____    ______ ____
ROOT
ATOM      1  C   UNL     1       2.823   3.482  18.707  0.00  0.00    +0.000 C 
ATOM      2  C   UNL     1       2.646   2.696  19.786  0.00  0.00    +0.000 C 
ATOM      3  C   UNL     1       2.043   3.224  21.058  0.00  0.00    +0.000 C 
ATOM      4  C   UNL     1       2.214   4.744  21.229  0.00  0.00    +0.000 C 
ATOM      5  C   UNL     1       2.121   5.506  19.918  0.00  0.00    +0.000 C 
ATOM      6  C   UNL     1       2.368   4.867  18.757  0.00  0.00    +0.000 C 
ENDROOT
BRANCH   5   7
ATOM      7  N   UNL     1       1.771   6.850  19.972  0.00  0.00    +0.000 N 
ATOM      8  C   UNL     1       1.076   7.453  21.105  0.00  0.00    +0.000 C 
ATOM      9  C   UNL     1       0.951   8.893  20.717  0.00  0.00    +0.000 A 
ATOM     10  C   UNL     1       1.488   9.079  19.446  0.00  0.00    +0.000 A 
ATOM     11  C   UNL     1       1.465  10.298  18.792  0.00  0.00    +0.000 A 
ATOM     12  C   UNL     1       0.893  11.377  19.463  0.00  0.00    +0.000 A 
ATOM     13  C   UNL     1       0.376  11.215  20.762  0.00  0.00    +0.000 A 
ATOM     14  C   UNL     1       0.399   9.965  21.415  0.00  0.00    +0.000 A 
ATOM     15  C   UNL     1       2.038   7.801  18.978  0.00  0.00    +0.000 C 
ATOM     16  O   UNL     1       2.584   7.675  17.898  0.00  0.00    +0.000 OA
BRANCH  14  17
ATOM     17  C   UNL     1      -0.146   9.836  22.813  0.00  0.00    +0.000 C 
ATOM     18  F   UNL     1       0.793   9.497  23.737  0.00  0.00    +0.000 F 
ATOM     19  F   UNL     1      -0.703  10.996  23.259  0.00  0.00    +0.000 F 
ATOM     20  F   UNL     1      -1.120   8.890  22.908  0.00  0.00    +0.000 F 
ENDBRANCH  14  17
ENDBRANCH   5   7
BRANCH   1  21
ATOM     21  C   UNL     1       3.512   3.014  17.439  0.00  0.00    +0.000 C 
BRANCH  21  22
ATOM     22  C   UNL     1       4.276   4.110  16.686  0.00  0.00    +0.000 C 
BRANCH  22  28
ATOM     23  C   UNL     1       6.936   4.546  15.052  0.00  0.00    +0.000 C 
ATOM     24  N   UNL     1       6.799   4.484  16.482  0.00  0.00    +0.000 N 
ATOM     25  C   UNL     1       7.816   4.620  17.378  0.00  0.00    +0.000 A 
ATOM     26  N   UNL     1       7.347   4.502  18.596  0.00  0.00    +0.000 NA
ATOM     27  N   UNL     1       5.991   4.291  18.499  0.00  0.00    +0.000 NA
ATOM     28  C   UNL     1       5.661   4.285  17.222  0.00  0.00    +0.000 A 
ENDBRANCH  22  28
ENDBRANCH  21  22
ENDBRANCH   1  21
TORSDOF 5
ENDMDL
MODEL 5
REMARK VINA RESULT:      -8.8      4.407      8.724
REMARK  Name = 
REMARK  6 active torsions:
REMARK  status: ('A' for Active; 'I' for Inactive)
REMARK    1  A    between atoms: C_1  and  N_2
REMARK    2  A    between atoms: C_6  and  C_7
REMARK    3  A    between atoms: C_7  and  C_8
REMARK    4  A    between atoms: C_8  and  C_9
REMARK    5  A    between atoms: C_13  and  N_14
REMARK    6  A    between atoms: C_21  and  C_22
REMARK                            x       y       z     vdW  Elec       q    Type
REMARK                         _______ _______ _______ _____ _____    ______ ____
ROOT
ATOM      1  C   UNL     1       0.421  10.242  19.766  0.00  0.00    +0.000 C 
ATOM      2  C   UNL     1       0.485  10.382  21.103  0.00  0.00    +0.000 C 
ATOM      3  C   UNL     1       1.276   9.432  21.960  0.00  0.00    +0.000 C 
ATOM      4  C   UNL     1       1.469   8.047  21.318  0.00  0.00    +0.000 C 
ATOM      5  C   UNL     1       1.646   8.108  19.809  0.00  0.00    +0.000 C 
ATOM      6  C   UNL     1       1.182   9.174  19.127  0.00  0.00    +0.000 C 
ENDROOT
BRANCH   5   7
ATOM      7  N   UNL     1       2.297   7.049  19.189  0.00  0.00    +0.000 N 
ATOM      8  C   UNL     1       3.261   7.221  18.106  0.00  0.00    +0.000 C 
ATOM      9  C   UNL     1       3.701   5.825  17.797  0.00  0.00    +0.000 A 
ATOM     10  C   UNL     1       3.006   4.931  18.607  0.00  0.00    +0.000 A 
ATOM     11  C   UNL     1       3.155   3.559  18.512  0.00  0.00    +0.000 A 
ATOM     12  C   UNL     1       4.062   3.075  17.571  0.00  0.00    +0.000 A 
ATOM     13  C   UNL     1       4.799   3.966  16.768  0.00  0.00    +0.000 A 
ATOM     14  C   UNL     1       4.631   5.362  16.870  0.00  0.00    +0.000 A 
ATOM     15  C   UNL     1       2.139   5.695  19.513  0.00  0.00    +0.000 C 
ATOM     16  O   UNL     1       1.424   5.165  20.344  0.00  0.00    +0.000 OA
BRANCH  14  17
ATOM     17  C   UNL     1       5.452   6.284  16.007  0.00  0.00    +0.000 C 
ATOM     18  F   UNL     1       4.707   7.089  15.202  0.00  0.00    +0.000 F 
ATOM     19  F   UNL     1       6.236   7.119  16.743  0.00  0.00    +0.000 F 
ATOM     20  F   UNL     1       6.296   5.608  15.180  0.00  0.00    +0.000 F 
ENDBRANCH  14  17
ENDBRANCH   5   7
BRANCH   1  21
ATOM     21  C   UNL     1      -0.440  11.120  18.876  0.00  0.00    +0.000 C 
BRANCH  21  22
ATOM     22  C   UNL     1      -1.196  10.366  17.775  0.00  0.00    +0.000 C 
BRANCH  22  28
ATOM     23  C   UNL     1      -2.905  10.375  15.127  0.00  0.00    +0.000 C 
ATOM     24  N   UNL     1      -3.295  10.892  16.410  0.00  0.00    +0.000 N 
ATOM     25  C   UNL     1      -4.495  11.469  16.696  0.00  0.00    +0.000 A 
ATOM     26  N   UNL     1      -4.517  11.837  17.954  0.00  0.00    +0.000 NA
ATOM     27  N   UNL     1      -3.308  11.488  18.509  0.00  0.00    +0.000 NA
ATOM     28  C   UNL     1      -2.572  10.914  17.577  0.00  0.00    +0.000 A 
ENDBRANCH  22  28
ENDBRANCH  21  22
ENDBRANCH   1  21
TORSDOF 5
ENDMDL
MODEL 6
REMARK VINA RESULT:      -8.8      1.741      2.305
REMARK  Name = 
REMARK  6 active torsions:
REMARK  status: ('A' for Active; 'I' for Inactive)
REMARK    1  A    between atoms: C_1  and  N_2
REMARK    2  A    between atoms: C_6  and  C_7
REMARK    3  A    between atoms: C_7  and  C_8
REMARK    4  A    between atoms: C_8  and  C_9
REMARK    5  A    between atoms: C_13  and  N_14
REMARK    6  A    between atoms: C_21  and  C_22
REMARK                            x       y       z     vdW  Elec       q    Type
REMARK                         _______ _______ _______ _____ _____    ______ ____
ROOT
ATOM      1  C   UNL     1       2.905   3.563  18.672  0.00  0.00    +0.000 C 
ATOM      2  C   UNL     1       2.661   2.741  19.711  0.00  0.00    +0.000 C 
ATOM      3  C   UNL     1       1.974   3.226  20.958  0.00  0.00    +0.000 C 
ATOM      4  C   UNL     1       2.127   4.740  21.190  0.00  0.00    +0.000 C 
ATOM      5  C   UNL     1       2.117   5.545  19.901  0.00  0.00    +0.000 C 
ATOM      6  C   UNL     1       2.442   4.945  18.738  0.00  0.00    +0.000 C 
ENDROOT
BRANCH   5   7
ATOM      7  N   UNL     1       1.757   6.885  19.976  0.00  0.00    +0.000 N 
ATOM      8  C   UNL     1       1.056   7.465  21.117  0.00  0.00    +0.000 C 
ATOM      9  C   UNL     1       0.923   8.911  20.752  0.00  0.00    +0.000 A 
ATOM     10  C   UNL     1       1.462   9.121  19.486  0.00  0.00    +0.000 A 
ATOM     11  C   UNL     1       1.433  10.350  18.852  0.00  0.00    +0.000 A 
ATOM     12  C   UNL     1       0.852  11.414  19.539  0.00  0.00    +0.000 A 
ATOM     13  C   UNL     1       0.333  11.228  20.834  0.00  0.00    +0.000 A 
ATOM     14  C   UNL     1       0.362   9.967  21.466  0.00  0.00    +0.000 A 
ATOM     15  C   UNL     1       2.021   7.854  18.998  0.00  0.00    +0.000 C 
ATOM     16  O   UNL     1       2.571   7.749  17.917  0.00  0.00    +0.000 OA
BRANCH  14  17
ATOM     17  C   UNL     1      -0.185   9.812  22.861  0.00  0.00    +0.000 C 
ATOM     18  F   UNL     1       0.761   9.498  23.788  0.00  0.00    +0.000 F 
ATOM     19  F   UNL     1      -0.781  10.951  23.311  0.00  0.00    +0.000 F 
ATOM     20  F   UNL     1      -1.128   8.835  22.945  0.00  0.00    +0.000 F 
ENDBRANCH  14  17
ENDBRANCH   5   7
BRANCH   1  21
ATOM     21  C   UNL     1       3.678   3.139  17.437  0.00  0.00    +0.000 C 
BRANCH  21  22
ATOM     22  C   UNL     1       4.297   4.296  16.643  0.00  0.00    +0.000 C 
BRANCH  22  28
ATOM     23  C   UNL     1       5.796   5.282  19.235  0.00  0.00    +0.000 C 
ATOM     24  N   UNL     1       6.394   4.815  18.014  0.00  0.00    +0.000 N 
ATOM     25  C   UNL     1       7.732   4.710  17.782  0.00  0.00    +0.000 A 
ATOM     26  N   UNL     1       7.933   4.261  16.567  0.00  0.00    +0.000 NA
ATOM     27  N   UNL     1       6.701   4.060  15.990  0.00  0.00    +0.000 NA
ATOM     28  C   UNL     1       5.772   4.391  16.866  0.00  0.00    +0.000 A 
ENDBRANCH  22  28
ENDBRANCH  21  22
ENDBRANCH   1  21
TORSDOF 5
ENDMDL
MODEL 7
REMARK VINA RESULT:      -8.7      3.071      4.199
REMARK  Name = 
REMARK  6 active torsions:
REMARK  status: ('A' for Active; 'I' for Inactive)
REMARK    1  A    between atoms: C_1  and  N_2
REMARK    2  A    between atoms: C_6  and  C_7
REMARK    3  A    between atoms: C_7  and  C_8
REMARK    4  A    between atoms: C_8  and  C_9
REMARK    5  A    between atoms: C_13  and  N_14
REMARK    6  A    between atoms: C_21  and  C_22
REMARK                            x       y       z     vdW  Elec       q    Type
REMARK                         _______ _______ _______ _____ _____    ______ ____
ROOT
ATOM      1  C   UNL     1       2.609   4.842  17.763  0.00  0.00    +0.000 C 
ATOM      2  C   UNL     1       3.916   4.902  17.445  0.00  0.00    +0.000 C 
ATOM      3  C   UNL     1       4.734   6.140  17.694  0.00  0.00    +0.000 C 
ATOM      4  C   UNL     1       3.892   7.427  17.747  0.00  0.00    +0.000 C 
ATOM      5  C   UNL     1       2.528   7.222  18.386  0.00  0.00    +0.000 C 
ATOM      6  C   UNL     1       1.984   5.989  18.413  0.00  0.00    +0.000 C 
ENDROOT
BRANCH   5   7
ATOM      7  N   UNL     1       1.894   8.331  18.930  0.00  0.00    +0.000 N 
ATOM      8  C   UNL     1       1.257   8.328  20.244  0.00  0.00    +0.000 C 
ATOM      9  C   UNL     1       0.752   9.728  20.396  0.00  0.00    +0.000 A 
ATOM     10  C   UNL     1       1.037  10.452  19.241  0.00  0.00    +0.000 A 
ATOM     11  C   UNL     1       0.640  11.764  19.060  0.00  0.00    +0.000 A 
ATOM     12  C   UNL     1      -0.055  12.375  20.102  0.00  0.00    +0.000 A 
ATOM     13  C   UNL     1      -0.322  11.669  21.291  0.00  0.00    +0.000 A 
ATOM     14  C   UNL     1       0.081  10.329  21.459  0.00  0.00    +0.000 A 
ATOM     15  C   UNL     1       1.786   9.588  18.320  0.00  0.00    +0.000 C 
ATOM     16  O   UNL     1       2.179   9.969  17.233  0.00  0.00    +0.000 OA
BRANCH  14  17
ATOM     17  C   UNL     1      -0.205   9.614  22.754  0.00  0.00    +0.000 C 
ATOM     18  F   UNL     1       0.914   9.275  23.450  0.00  0.00    +0.000 F 
ATOM     19  F   UNL     1      -0.957  10.366  23.604  0.00  0.00    +0.000 F 
ATOM     20  F   UNL     1      -0.893   8.455  22.567  0.00  0.00    +0.000 F 
ENDBRANCH  14  17
ENDBRANCH   5   7
BRANCH   1  21
ATOM     21  C   UNL     1       1.727   3.649  17.443  0.00  0.00    +0.000 C 
BRANCH  21  22
ATOM     22  C   UNL     1       1.494   2.693  18.619  0.00  0.00    +0.000 C 
BRANCH  22  28
ATOM     23  C   UNL     1       2.320   3.599  21.523  0.00  0.00    +0.000 C 
ATOM     24  N   UNL     1       3.091   2.793  20.616  0.00  0.00    +0.000 N 
ATOM     25  C   UNL     1       4.321   2.271  20.877  0.00  0.00    +0.000 A 
ATOM     26  N   UNL     1       4.742   1.597  19.834  0.00  0.00    +0.000 NA
ATOM     27  N   UNL     1       3.766   1.673  18.869  0.00  0.00    +0.000 NA
ATOM     28  C   UNL     1       2.766   2.392  19.344  0.00  0.00    +0.000 A 
ENDBRANCH  22  28
ENDBRANCH  21  22
ENDBRANCH   1  21
TORSDOF 5
ENDMDL
MODEL 8
REMARK VINA RESULT:      -8.7      3.312      4.528
REMARK  Name = 
REMARK  6 active torsions:
REMARK  status: ('A' for Active; 'I' for Inactive)
REMARK    1  A    between atoms: C_1  and  N_2
REMARK    2  A    between atoms: C_6  and  C_7
REMARK    3  A    between atoms: C_7  and  C_8
REMARK    4  A    between atoms: C_8  and  C_9
REMARK    5  A    between atoms: C_13  and  N_14
REMARK    6  A    between atoms: C_21  and  C_22
REMARK                            x       y       z     vdW  Elec       q    Type
REMARK                         _______ _______ _______ _____ _____    ______ ____
ROOT
ATOM      1  C   UNL     1       2.696   4.904  17.786  0.00  0.00    +0.000 C 
ATOM      2  C   UNL     1       4.000   4.997  17.464  0.00  0.00    +0.000 C 
ATOM      3  C   UNL     1       4.785   6.258  17.701  0.00  0.00    +0.000 C 
ATOM      4  C   UNL     1       3.909   7.522  17.748  0.00  0.00    +0.000 C 
ATOM      5  C   UNL     1       2.553   7.285  18.393  0.00  0.00    +0.000 C 
ATOM      6  C   UNL     1       2.043   6.038  18.431  0.00  0.00    +0.000 C 
ENDROOT
BRANCH   5   7
ATOM      7  N   UNL     1       1.891   8.381  18.933  0.00  0.00    +0.000 N 
ATOM      8  C   UNL     1       1.253   8.367  20.245  0.00  0.00    +0.000 C 
ATOM      9  C   UNL     1       0.713   9.755  20.392  0.00  0.00    +0.000 A 
ATOM     10  C   UNL     1       0.982  10.481  19.234  0.00  0.00    +0.000 A 
ATOM     11  C   UNL     1       0.554  11.783  19.048  0.00  0.00    +0.000 A 
ATOM     12  C   UNL     1      -0.158  12.380  20.086  0.00  0.00    +0.000 A 
ATOM     13  C   UNL     1      -0.409  11.673  21.277  0.00  0.00    +0.000 A 
ATOM     14  C   UNL     1       0.026  10.343  21.452  0.00  0.00    +0.000 A 
ATOM     15  C   UNL     1       1.754   9.632  18.317  0.00  0.00    +0.000 C 
ATOM     16  O   UNL     1       2.139  10.018  17.229  0.00  0.00    +0.000 OA
BRANCH  14  17
ATOM     17  C   UNL     1      -0.244   9.627  22.748  0.00  0.00    +0.000 C 
ATOM     18  F   UNL     1      -1.004  10.343  23.621  0.00  0.00    +0.000 F 
ATOM     19  F   UNL     1      -0.903   8.450  22.561  0.00  0.00    +0.000 F 
ATOM     20  F   UNL     1       0.899   9.315  23.419  0.00  0.00    +0.000 F 
ENDBRANCH  14  17
ENDBRANCH   5   7
BRANCH   1  21
ATOM     21  C   UNL     1       1.845   3.686  17.478  0.00  0.00    +0.000 C 
BRANCH  21  22
ATOM     22  C   UNL     1       0.915   3.252  18.617  0.00  0.00    +0.000 C 
BRANCH  22  28
ATOM     23  C   UNL     1       3.559   1.583  19.016  0.00  0.00    +0.000 C 
ATOM     24  N   UNL     1       2.826   2.298  20.026  0.00  0.00    +0.000 N 
ATOM     25  C   UNL     1       3.172   2.381  21.340  0.00  0.00    +0.000 A 
ATOM     26  N   UNL     1       2.283   3.100  21.983  0.00  0.00    +0.000 NA
ATOM     27  N   UNL     1       1.338   3.504  21.070  0.00  0.00    +0.000 NA
ATOM     28  C   UNL     1       1.669   3.023  19.887  0.00  0.00    +0.000 A 
ENDBRANCH  22  28
ENDBRANCH  21  22
ENDBRANCH   1  21
TORSDOF 5
ENDMDL
MODEL 9
REMARK VINA RESULT:      -8.7      4.312      8.649
REMARK  Name = 
REMARK  6 active torsions:
REMARK  status: ('A' for Active; 'I' for Inactive)
REMARK    1  A    between atoms: C_1  and  N_2
REMARK    2  A    between atoms: C_6  and  C_7
REMARK    3  A    between atoms: C_7  and  C_8
REMARK    4  A    between atoms: C_8  and  C_9
REMARK    5  A    between atoms: C_13  and  N_14
REMARK    6  A    between atoms: C_21  and  C_22
REMARK                            x       y       z     vdW  Elec       q    Type
REMARK                         _______ _______ _______ _____ _____    ______ ____
ROOT
ATOM      1  C   UNL     1       0.435  10.207  19.605  0.00  0.00    +0.000 C 
ATOM      2  C   UNL     1       0.484  10.363  20.942  0.00  0.00    +0.000 C 
ATOM      3  C   UNL     1       1.266   9.425  21.819  0.00  0.00    +0.000 C 
ATOM      4  C   UNL     1       1.468   8.033  21.197  0.00  0.00    +0.000 C 
ATOM      5  C   UNL     1       1.662   8.075  19.690  0.00  0.00    +0.000 C 
ATOM      6  C   UNL     1       1.205   9.132  18.989  0.00  0.00    +0.000 C 
ENDROOT
BRANCH   5   7
ATOM      7  N   UNL     1       2.322   7.009  19.091  0.00  0.00    +0.000 N 
ATOM      8  C   UNL     1       3.298   7.169  18.018  0.00  0.00    +0.000 C 
ATOM      9  C   UNL     1       3.743   5.770  17.731  0.00  0.00    +0.000 A 
ATOM     10  C   UNL     1       3.038   4.885  18.543  0.00  0.00    +0.000 A 
ATOM     11  C   UNL     1       3.190   3.512  18.466  0.00  0.00    +0.000 A 
ATOM     12  C   UNL     1       4.109   3.018  17.542  0.00  0.00    +0.000 A 
ATOM     13  C   UNL     1       4.855   3.899  16.738  0.00  0.00    +0.000 A 
ATOM     14  C   UNL     1       4.685   5.297  16.821  0.00  0.00    +0.000 A 
ATOM     15  C   UNL     1       2.160   5.659  19.429  0.00  0.00    +0.000 C 
ATOM     16  O   UNL     1       1.436   5.139  20.257  0.00  0.00    +0.000 OA
BRANCH  14  17
ATOM     17  C   UNL     1       5.517   6.209  15.957  0.00  0.00    +0.000 C 
ATOM     18  F   UNL     1       6.310   7.058  16.664  0.00  0.00    +0.000 F 
ATOM     19  F   UNL     1       6.353   5.519  15.134  0.00  0.00    +0.000 F 
ATOM     20  F   UNL     1       4.756   6.996  15.148  0.00  0.00    +0.000 F 
ENDBRANCH  14  17
ENDBRANCH   5   7
BRANCH   1  21
ATOM     21  C   UNL     1      -0.416  11.072  18.695  0.00  0.00    +0.000 C 
BRANCH  21  22
ATOM     22  C   UNL     1      -1.924  10.804  18.786  0.00  0.00    +0.000 C 
BRANCH  22  28
ATOM     23  C   UNL     1      -4.719  11.857  17.779  0.00  0.00    +0.000 C 
ATOM     24  N   UNL     1      -3.753  11.107  17.023  0.00  0.00    +0.000 N 
ATOM     25  C   UNL     1      -3.888  10.736  15.720  0.00  0.00    +0.000 A 
ATOM     26  N   UNL     1      -2.831  10.058  15.344  0.00  0.00    +0.000 NA
ATOM     27  N   UNL     1      -1.980   9.988  16.422  0.00  0.00    +0.000 NA
ATOM     28  C   UNL     1      -2.535  10.626  17.434  0.00  0.00    +0.000 A 
ENDBRANCH  22  28
ENDBRANCH  21  22
ENDBRANCH   1  21
TORSDOF 5
ENDMDL
