MODEL 1
REMARK VINA RESULT:      -9.2      0.000      0.000
REMARK  Name = 
REMARK  4 active torsions:
REMARK  status: ('A' for Active; 'I' for Inactive)
REMARK    1  A    between atoms: C_4  and  C_5
REMARK    2  A    between atoms: C_5  and  C_6
REMARK    3  A    between atoms: C_6  and  N_7
REMARK    4  A    between atoms: C_6  and  C_17
REMARK                            x       y       z     vdW  Elec       q    Type
REMARK                         _______ _______ _______ _____ _____    ______ ____
ROOT
ATOM      1  C   UNL     1       2.695   6.143  19.430  0.00  0.00    +0.000 C 
ENDROOT
BRANCH   1   2
ATOM      2  N   UNL     1       4.132   5.949  19.658  0.00  0.00    +0.000 N 
ATOM      3  C   UNL     1       5.014   5.679  18.632  0.00  0.00    +0.000 A 
ATOM      4  C   UNL     1       6.304   4.982  18.986  0.00  0.00    +0.000 A 
ATOM      5  C   UNL     1       7.192   4.710  18.018  0.00  0.00    +0.000 A 
ATOM      6  C   UNL     1       6.879   5.094  16.704  0.00  0.00    +0.000 A 
ATOM      7  N   UNL     1       7.500   4.991  15.549  0.00  0.00    +0.000 NA
ATOM      8  N   UNL     1       6.653   5.563  14.624  0.00  0.00    +0.000 NA
ATOM      9  N   UNL     1       5.539   6.005  15.196  0.00  0.00    +0.000 NA
ATOM     10  N   UNL     1       5.669   5.719  16.500  0.00  0.00    +0.000 N 
ATOM     11  N   UNL     1       4.716   6.030  17.409  0.00  0.00    +0.000 NA
ATOM     12  H   UNL     1       4.335   5.525  20.552  0.00  0.00    +0.000 HD
ENDBRANCH   1   2
BRANCH   1  13
ATOM     13  C   UNL     1       2.023   4.779  19.545  0.00  0.00    +0.000 A 
ATOM     14  C   UNL     1       1.678   4.079  18.379  0.00  0.00    +0.000 A 
ATOM     15  C   UNL     1       1.101   2.810  18.455  0.00  0.00    +0.000 A 
ATOM     16  C   UNL     1       0.867   2.220  19.694  0.00  0.00    +0.000 A 
ATOM     17  C   UNL     1       1.210   2.898  20.862  0.00  0.00    +0.000 A 
ATOM     18  C   UNL     1       1.782   4.168  20.790  0.00  0.00    +0.000 A 
ENDBRANCH   1  13
BRANCH   1  19
ATOM     19  C   UNL     1       2.084   7.164  20.424  0.00  0.00    +0.000 C 
BRANCH  19  23
ATOM     20  C   UNL     1       0.316  10.694  18.649  0.00  0.00    +0.000 A 
ATOM     21  C   UNL     1       0.038  10.384  19.978  0.00  0.00    +0.000 A 
ATOM     22  C   UNL     1       0.620   9.263  20.577  0.00  0.00    +0.000 A 
ATOM     23  C   UNL     1       1.468   8.423  19.844  0.00  0.00    +0.000 A 
ATOM     24  C   UNL     1       1.789   8.786  18.525  0.00  0.00    +0.000 A 
ATOM     25  C   UNL     1       1.207   9.906  17.928  0.00  0.00    +0.000 A 
ENDBRANCH  19  23
ENDBRANCH   1  19
TORSDOF 4
ENDMDL
MODEL 2
REMARK VINA RESULT:      -9.1      0.181      1.001
REMARK  Name = 
REMARK  4 active torsions:
REMARK  status: ('A' for Active; 'I' for Inactive)
REMARK    1  A    between atoms: C_4  and  C_5
REMARK    2  A    between atoms: C_5  and  C_6
REMARK    3  A    between atoms: C_6  and  N_7
REMARK    4  A    between atoms: C_6  and  C_17
REMARK                            x       y       z     vdW  Elec       q    Type
REMARK                         _______ _______ _______ _____ _____    ______ ____
ROOT
ATOM      1  C   UNL     1       2.683   6.073  19.364  0.00  0.00    +0.000 C 
ENDROOT
BRANCH   1   2
ATOM      2  N   UNL     1       4.125   5.953  19.604  0.00  0.00    +0.000 N 
ATOM      3  C   UNL     1       5.023   5.680  18.593  0.00  0.00    +0.000 A 
ATOM      4  C   UNL     1       6.342   5.056  18.978  0.00  0.00    +0.000 A 
ATOM      5  C   UNL     1       7.246   4.785  18.025  0.00  0.00    +0.000 A 
ATOM      6  C   UNL     1       6.922   5.102  16.695  0.00  0.00    +0.000 A 
ATOM      7  N   UNL     1       7.553   4.980  15.547  0.00  0.00    +0.000 NA
ATOM      8  N   UNL     1       6.686   5.476  14.598  0.00  0.00    +0.000 NA
ATOM      9  N   UNL     1       5.550   5.891  15.148  0.00  0.00    +0.000 NA
ATOM     10  N   UNL     1       5.686   5.665  16.463  0.00  0.00    +0.000 N 
ATOM     11  N   UNL     1       4.716   5.969  17.355  0.00  0.00    +0.000 NA
ATOM     12  H   UNL     1       4.343   5.573  20.516  0.00  0.00    +0.000 HD
ENDBRANCH   1   2
BRANCH   1  13
ATOM     13  C   UNL     1       2.081   4.676  19.469  0.00  0.00    +0.000 A 
ATOM     14  C   UNL     1       1.861   4.114  20.735  0.00  0.00    +0.000 A 
ATOM     15  C   UNL     1       1.272   2.854  20.862  0.00  0.00    +0.000 A 
ATOM     16  C   UNL     1       0.888   2.143  19.728  0.00  0.00    +0.000 A 
ATOM     17  C   UNL     1       1.093   2.689  18.463  0.00  0.00    +0.000 A 
ATOM     18  C   UNL     1       1.687   3.945  18.332  0.00  0.00    +0.000 A 
ENDBRANCH   1  13
BRANCH   1  19
ATOM     19  C   UNL     1       2.011   7.058  20.356  0.00  0.00    +0.000 C 
BRANCH  19  23
ATOM     20  C   UNL     1       0.739  10.848  18.696  0.00  0.00    +0.000 A 
ATOM     21  C   UNL     1       0.473  10.562  20.033  0.00  0.00    +0.000 A 
ATOM     22  C   UNL     1       0.899   9.355  20.595  0.00  0.00    +0.000 A 
ATOM     23  C   UNL     1       1.575   8.406  19.817  0.00  0.00    +0.000 A 
ATOM     24  C   UNL     1       1.892   8.737  18.488  0.00  0.00    +0.000 A 
ATOM     25  C   UNL     1       1.466   9.944  17.928  0.00  0.00    +0.000 A 
ENDBRANCH  19  23
ENDBRANCH   1  19
TORSDOF 4
ENDMDL
MODEL 3
REMARK VINA RESULT:      -8.6      1.532      2.292
REMARK  Name = 
REMARK  4 active torsions:
REMARK  status: ('A' for Active; 'I' for Inactive)
REMARK    1  A    between atoms: C_4  and  C_5
REMARK    2  A    between atoms: C_5  and  C_6
REMARK    3  A    between atoms: C_6  and  N_7
REMARK    4  A    between atoms: C_6  and  C_17
REMARK                            x       y       z     vdW  Elec       q    Type
REMARK                         _______ _______ _______ _____ _____    ______ ____
ROOT
ATOM      1  C   UNL     1       2.124   5.402  18.191  0.00  0.00    +0.000 C 
ENDROOT
BRANCH   1   2
ATOM      2  N   UNL     1       2.852   4.651  17.163  0.00  0.00    +0.000 N 
ATOM      3  C   UNL     1       4.229   4.575  17.138  0.00  0.00    +0.000 A 
ATOM      4  C   UNL     1       4.889   4.270  15.817  0.00  0.00    +0.000 A 
ATOM      5  C   UNL     1       6.226   4.178  15.754  0.00  0.00    +0.000 A 
ATOM      6  C   UNL     1       6.960   4.369  16.936  0.00  0.00    +0.000 A 
ATOM      7  N   UNL     1       8.242   4.347  17.229  0.00  0.00    +0.000 NA
ATOM      8  N   UNL     1       8.315   4.619  18.578  0.00  0.00    +0.000 NA
ATOM      9  N   UNL     1       7.107   4.804  19.101  0.00  0.00    +0.000 NA
ATOM     10  N   UNL     1       6.249   4.647  18.083  0.00  0.00    +0.000 N 
ATOM     11  N   UNL     1       4.910   4.761  18.239  0.00  0.00    +0.000 NA
ATOM     12  H   UNL     1       2.384   4.653  16.267  0.00  0.00    +0.000 HD
ENDBRANCH   1   2
BRANCH   1  13
ATOM     13  C   UNL     1       1.882   4.460  19.365  0.00  0.00    +0.000 A 
ATOM     14  C   UNL     1       1.128   3.293  19.168  0.00  0.00    +0.000 A 
ATOM     15  C   UNL     1       0.926   2.391  20.215  0.00  0.00    +0.000 A 
ATOM     16  C   UNL     1       1.480   2.637  21.468  0.00  0.00    +0.000 A 
ATOM     17  C   UNL     1       2.237   3.787  21.679  0.00  0.00    +0.000 A 
ATOM     18  C   UNL     1       2.436   4.694  20.638  0.00  0.00    +0.000 A 
ENDBRANCH   1  13
BRANCH   1  19
ATOM     19  C   UNL     1       2.894   6.673  18.633  0.00  0.00    +0.000 C 
BRANCH  19  23
ATOM     20  C   UNL     1       0.633  10.232  19.613  0.00  0.00    +0.000 A 
ATOM     21  C   UNL     1       1.027  10.013  18.295  0.00  0.00    +0.000 A 
ATOM     22  C   UNL     1       1.735   8.858  17.953  0.00  0.00    +0.000 A 
ATOM     23  C   UNL     1       2.080   7.917  18.933  0.00  0.00    +0.000 A 
ATOM     24  C   UNL     1       1.619   8.122  20.245  0.00  0.00    +0.000 A 
ATOM     25  C   UNL     1       0.912   9.277  20.585  0.00  0.00    +0.000 A 
ENDBRANCH  19  23
ENDBRANCH   1  19
TORSDOF 4
ENDMDL
MODEL 4
REMARK VINA RESULT:      -8.5      1.464      4.953
REMARK  Name = 
REMARK  4 active torsions:
REMARK  status: ('A' for Active; 'I' for Inactive)
REMARK    1  A    between atoms: C_4  and  C_5
REMARK    2  A    between atoms: C_5  and  C_6
REMARK    3  A    between atoms: C_6  and  N_7
REMARK    4  A    between atoms: C_6  and  C_17
REMARK                            x       y       z     vdW  Elec       q    Type
REMARK                         _______ _______ _______ _____ _____    ______ ____
ROOT
ATOM      1  C   UNL     1       2.666   6.784  19.633  0.00  0.00    +0.000 C 
ENDROOT
BRANCH   1   2
ATOM      2  N   UNL     1       2.902   6.293  18.271  0.00  0.00    +0.000 N 
ATOM      3  C   UNL     1       4.149   5.896  17.834  0.00  0.00    +0.000 A 
ATOM      4  C   UNL     1       4.412   5.929  16.349  0.00  0.00    +0.000 A 
ATOM      5  C   UNL     1       5.609   5.541  15.884  0.00  0.00    +0.000 A 
ATOM      6  C   UNL     1       6.574   5.113  16.810  0.00  0.00    +0.000 A 
ATOM      7  N   UNL     1       7.810   4.676  16.707  0.00  0.00    +0.000 NA
ATOM      8  N   UNL     1       8.220   4.424  17.998  0.00  0.00    +0.000 NA
ATOM      9  N   UNL     1       7.260   4.700  18.874  0.00  0.00    +0.000 NA
ATOM     10  N   UNL     1       6.222   5.131  18.142  0.00  0.00    +0.000 N 
ATOM     11  N   UNL     1       5.048   5.506  18.700  0.00  0.00    +0.000 NA
ATOM     12  H   UNL     1       2.301   6.728  17.585  0.00  0.00    +0.000 HD
ENDBRANCH   1   2
BRANCH   1  13
ATOM     13  C   UNL     1       1.885   8.089  19.523  0.00  0.00    +0.000 A 
ATOM     14  C   UNL     1       1.833   8.760  18.292  0.00  0.00    +0.000 A 
ATOM     15  C   UNL     1       1.091   9.934  18.151  0.00  0.00    +0.000 A 
ATOM     16  C   UNL     1       0.385  10.450  19.235  0.00  0.00    +0.000 A 
ATOM     17  C   UNL     1       0.419   9.793  20.463  0.00  0.00    +0.000 A 
ATOM     18  C   UNL     1       1.165   8.623  20.608  0.00  0.00    +0.000 A 
ENDBRANCH   1  13
BRANCH   1  19
ATOM     19  C   UNL     1       1.912   5.743  20.501  0.00  0.00    +0.000 C 
BRANCH  19  23
ATOM     20  C   UNL     1       1.945   1.653  19.083  0.00  0.00    +0.000 A 
ATOM     21  C   UNL     1       3.001   2.114  19.865  0.00  0.00    +0.000 A 
ATOM     22  C   UNL     1       2.996   3.423  20.355  0.00  0.00    +0.000 A 
ATOM     23  C   UNL     1       1.945   4.296  20.045  0.00  0.00    +0.000 A 
ATOM     24  C   UNL     1       0.857   3.795  19.309  0.00  0.00    +0.000 A 
ATOM     25  C   UNL     1       0.863   2.487  18.821  0.00  0.00    +0.000 A 
ENDBRANCH  19  23
ENDBRANCH   1  19
TORSDOF 4
ENDMDL
MODEL 5
REMARK VINA RESULT:      -8.5      1.522      2.251
REMARK  Name = 
REMARK  4 active torsions:
REMARK  status: ('A' for Active; 'I' for Inactive)
REMARK    1  A    between atoms: C_4  and  C_5
REMARK    2  A    between atoms: C_5  and  C_6
REMARK    3  A    between atoms: C_6  and  N_7
REMARK    4  A    between atoms: C_6  and  C_17
REMARK                            x       y       z     vdW  Elec       q    Type
REMARK                         _______ _______ _______ _____ _____    ______ ____
ROOT
ATOM      1  C   UNL     1       2.109   5.326  18.307  0.00  0.00    +0.000 C 
ENDROOT
BRANCH   1   2
ATOM      2  N   UNL     1       2.777   4.619  17.208  0.00  0.00    +0.000 N 
ATOM      3  C   UNL     1       4.151   4.545  17.105  0.00  0.00    +0.000 A 
ATOM      4  C   UNL     1       4.736   4.297  15.736  0.00  0.00    +0.000 A 
ATOM      5  C   UNL     1       6.067   4.208  15.596  0.00  0.00    +0.000 A 
ATOM      6  C   UNL     1       6.866   4.348  16.743  0.00  0.00    +0.000 A 
ATOM      7  N   UNL     1       8.162   4.314  16.964  0.00  0.00    +0.000 NA
ATOM      8  N   UNL     1       8.310   4.527  18.317  0.00  0.00    +0.000 NA
ATOM      9  N   UNL     1       7.133   4.689  18.913  0.00  0.00    +0.000 NA
ATOM     10  N   UNL     1       6.220   4.577  17.938  0.00  0.00    +0.000 N 
ATOM     11  N   UNL     1       4.892   4.684  18.173  0.00  0.00    +0.000 NA
ATOM     12  H   UNL     1       2.261   4.660  16.340  0.00  0.00    +0.000 HD
ENDBRANCH   1   2
BRANCH   1  13
ATOM     13  C   UNL     1       1.932   4.335  19.452  0.00  0.00    +0.000 A 
ATOM     14  C   UNL     1       2.424   4.657  20.725  0.00  0.00    +0.000 A 
ATOM     15  C   UNL     1       2.239   3.787  21.801  0.00  0.00    +0.000 A 
ATOM     16  C   UNL     1       1.554   2.588  21.622  0.00  0.00    +0.000 A 
ATOM     17  C   UNL     1       1.052   2.255  20.366  0.00  0.00    +0.000 A 
ATOM     18  C   UNL     1       1.241   3.120  19.287  0.00  0.00    +0.000 A 
ENDBRANCH   1  13
BRANCH   1  19
ATOM     19  C   UNL     1       2.905   6.579  18.757  0.00  0.00    +0.000 C 
BRANCH  19  23
ATOM     20  C   UNL     1       0.612  10.200  19.364  0.00  0.00    +0.000 A 
ATOM     21  C   UNL     1       0.849   9.351  20.443  0.00  0.00    +0.000 A 
ATOM     22  C   UNL     1       1.609   8.191  20.273  0.00  0.00    +0.000 A 
ATOM     23  C   UNL     1       2.121   7.852  19.014  0.00  0.00    +0.000 A 
ATOM     24  C   UNL     1       1.928   8.751  17.951  0.00  0.00    +0.000 A 
ATOM     25  C   UNL     1       1.168   9.911  18.123  0.00  0.00    +0.000 A 
ENDBRANCH  19  23
ENDBRANCH   1  19
TORSDOF 4
ENDMDL
MODEL 6
REMARK VINA RESULT:      -8.4      2.953      7.209
REMARK  Name = 
REMARK  4 active torsions:
REMARK  status: ('A' for Active; 'I' for Inactive)
REMARK    1  A    between atoms: C_4  and  C_5
REMARK    2  A    between atoms: C_5  and  C_6
REMARK    3  A    between atoms: C_6  and  N_7
REMARK    4  A    between atoms: C_6  and  C_17
REMARK                            x       y       z     vdW  Elec       q    Type
REMARK                         _______ _______ _______ _____ _____    ______ ____
ROOT
ATOM      1  C   UNL     1       4.945   5.415  16.702  0.00  0.00    +0.000 C 
ENDROOT
BRANCH   1   2
ATOM      2  N   UNL     1       3.896   5.245  17.713  0.00  0.00    +0.000 N 
ATOM      3  C   UNL     1       3.186   6.311  18.229  0.00  0.00    +0.000 A 
ATOM      4  C   UNL     1       2.550   6.135  19.585  0.00  0.00    +0.000 A 
ATOM      5  C   UNL     1       1.843   7.145  20.116  0.00  0.00    +0.000 A 
ATOM      6  C   UNL     1       1.723   8.332  19.375  0.00  0.00    +0.000 A 
ATOM      7  N   UNL     1       1.121   9.482  19.584  0.00  0.00    +0.000 NA
ATOM      8  N   UNL     1       1.387  10.244  18.467  0.00  0.00    +0.000 NA
ATOM      9  N   UNL     1       2.137   9.579  17.594  0.00  0.00    +0.000 NA
ATOM     10  N   UNL     1       2.352   8.378  18.150  0.00  0.00    +0.000 N 
ATOM     11  N   UNL     1       3.083   7.417  17.540  0.00  0.00    +0.000 NA
ATOM     12  H   UNL     1       4.075   4.476  18.343  0.00  0.00    +0.000 HD
ENDBRANCH   1   2
BRANCH   1  13
ATOM     13  C   UNL     1       6.161   6.017  17.398  0.00  0.00    +0.000 A 
ATOM     14  C   UNL     1       6.615   7.288  17.016  0.00  0.00    +0.000 A 
ATOM     15  C   UNL     1       7.700   7.882  17.665  0.00  0.00    +0.000 A 
ATOM     16  C   UNL     1       8.340   7.218  18.708  0.00  0.00    +0.000 A 
ATOM     17  C   UNL     1       7.898   5.958  19.105  0.00  0.00    +0.000 A 
ATOM     18  C   UNL     1       6.819   5.360  18.455  0.00  0.00    +0.000 A 
ENDBRANCH   1  13
BRANCH   1  19
ATOM     19  C   UNL     1       5.296   4.076  16.003  0.00  0.00    +0.000 C 
BRANCH  19  23
ATOM     20  C   UNL     1       7.098   4.281  12.072  0.00  0.00    +0.000 A 
ATOM     21  C   UNL     1       5.911   3.574  12.245  0.00  0.00    +0.000 A 
ATOM     22  C   UNL     1       5.299   3.518  13.500  0.00  0.00    +0.000 A 
ATOM     23  C   UNL     1       5.883   4.149  14.606  0.00  0.00    +0.000 A 
ATOM     24  C   UNL     1       7.046   4.912  14.401  0.00  0.00    +0.000 A 
ATOM     25  C   UNL     1       7.656   4.967  13.146  0.00  0.00    +0.000 A 
ENDBRANCH  19  23
ENDBRANCH   1  19
TORSDOF 4
ENDMDL
MODEL 7
REMARK VINA RESULT:      -8.4      2.957      7.256
REMARK  Name = 
REMARK  4 active torsions:
REMARK  status: ('A' for Active; 'I' for Inactive)
REMARK    1  A    between atoms: C_4  and  C_5
REMARK    2  A    between atoms: C_5  and  C_6
REMARK    3  A    between atoms: C_6  and  N_7
REMARK    4  A    between atoms: C_6  and  C_17
REMARK                            x       y       z     vdW  Elec       q    Type
REMARK                         _______ _______ _______ _____ _____    ______ ____
ROOT
ATOM      1  C   UNL     1       4.910   5.476  16.699  0.00  0.00    +0.000 C 
ENDROOT
BRANCH   1   2
ATOM      2  N   UNL     1       3.853   5.296  17.700  0.00  0.00    +0.000 N 
ATOM      3  C   UNL     1       3.145   6.357  18.227  0.00  0.00    +0.000 A 
ATOM      4  C   UNL     1       2.499   6.163  19.576  0.00  0.00    +0.000 A 
ATOM      5  C   UNL     1       1.794   7.168  20.118  0.00  0.00    +0.000 A 
ATOM      6  C   UNL     1       1.685   8.367  19.396  0.00  0.00    +0.000 A 
ATOM      7  N   UNL     1       1.086   9.517  19.618  0.00  0.00    +0.000 NA
ATOM      8  N   UNL     1       1.364  10.295  18.515  0.00  0.00    +0.000 NA
ATOM      9  N   UNL     1       2.116   9.640  17.637  0.00  0.00    +0.000 NA
ATOM     10  N   UNL     1       2.322   8.429  18.176  0.00  0.00    +0.000 N 
ATOM     11  N   UNL     1       3.053   7.475  17.556  0.00  0.00    +0.000 NA
ATOM     12  H   UNL     1       4.024   4.515  18.319  0.00  0.00    +0.000 HD
ENDBRANCH   1   2
BRANCH   1  13
ATOM     13  C   UNL     1       6.103   6.117  17.400  0.00  0.00    +0.000 A 
ATOM     14  C   UNL     1       6.796   5.392  18.382  0.00  0.00    +0.000 A 
ATOM     15  C   UNL     1       7.918   5.938  19.010  0.00  0.00    +0.000 A 
ATOM     16  C   UNL     1       8.366   7.209  18.661  0.00  0.00    +0.000 A 
ATOM     17  C   UNL     1       7.694   7.940  17.684  0.00  0.00    +0.000 A 
ATOM     18  C   UNL     1       6.570   7.400  17.059  0.00  0.00    +0.000 A 
ENDBRANCH   1  13
BRANCH   1  19
ATOM     19  C   UNL     1       5.301   4.137  16.022  0.00  0.00    +0.000 C 
BRANCH  19  23
ATOM     20  C   UNL     1       7.088   4.340  12.085  0.00  0.00    +0.000 A 
ATOM     21  C   UNL     1       7.701   4.996  13.149  0.00  0.00    +0.000 A 
ATOM     22  C   UNL     1       7.154   4.921  14.433  0.00  0.00    +0.000 A 
ATOM     23  C   UNL     1       5.971   4.208  14.663  0.00  0.00    +0.000 A 
ATOM     24  C   UNL     1       5.401   3.498  13.592  0.00  0.00    +0.000 A 
ATOM     25  C   UNL     1       5.949   3.574  12.310  0.00  0.00    +0.000 A 
ENDBRANCH  19  23
ENDBRANCH   1  19
TORSDOF 4
ENDMDL
MODEL 8
REMARK VINA RESULT:      -8.4      1.459      5.074
REMARK  Name = 
REMARK  4 active torsions:
REMARK  status: ('A' for Active; 'I' for Inactive)
REMARK    1  A    between atoms: C_4  and  C_5
REMARK    2  A    between atoms: C_5  and  C_6
REMARK    3  A    between atoms: C_6  and  N_7
REMARK    4  A    between atoms: C_6  and  C_17
REMARK                            x       y       z     vdW  Elec       q    Type
REMARK                         _______ _______ _______ _____ _____    ______ ____
ROOT
ATOM      1  C   UNL     1       2.627   6.810  19.647  0.00  0.00    +0.000 C 
ENDROOT
BRANCH   1   2
ATOM      2  N   UNL     1       2.886   6.364  18.274  0.00  0.00    +0.000 N 
ATOM      3  C   UNL     1       4.138   5.972  17.848  0.00  0.00    +0.000 A 
ATOM      4  C   UNL     1       4.431   6.053  16.370  0.00  0.00    +0.000 A 
ATOM      5  C   UNL     1       5.634   5.671  15.916  0.00  0.00    +0.000 A 
ATOM      6  C   UNL     1       6.576   5.203  16.846  0.00  0.00    +0.000 A 
ATOM      7  N   UNL     1       7.811   4.759  16.752  0.00  0.00    +0.000 NA
ATOM      8  N   UNL     1       8.193   4.459  18.041  0.00  0.00    +0.000 NA
ATOM      9  N   UNL     1       7.218   4.714  18.907  0.00  0.00    +0.000 NA
ATOM     10  N   UNL     1       6.198   5.179  18.170  0.00  0.00    +0.000 N 
ATOM     11  N   UNL     1       5.016   5.545  18.718  0.00  0.00    +0.000 NA
ATOM     12  H   UNL     1       2.302   6.828  17.591  0.00  0.00    +0.000 HD
ENDBRANCH   1   2
BRANCH   1  13
ATOM     13  C   UNL     1       1.871   8.132  19.567  0.00  0.00    +0.000 A 
ATOM     14  C   UNL     1       1.236   8.634  20.713  0.00  0.00    +0.000 A 
ATOM     15  C   UNL     1       0.572   9.862  20.679  0.00  0.00    +0.000 A 
ATOM     16  C   UNL     1       0.541  10.609  19.504  0.00  0.00    +0.000 A 
ATOM     17  C   UNL     1       1.173  10.129  18.359  0.00  0.00    +0.000 A 
ATOM     18  C   UNL     1       1.831   8.899  18.387  0.00  0.00    +0.000 A 
ENDBRANCH   1  13
BRANCH   1  19
ATOM     19  C   UNL     1       1.836   5.752  20.460  0.00  0.00    +0.000 C 
BRANCH  19  23
ATOM     20  C   UNL     1       1.995   1.621  19.176  0.00  0.00    +0.000 A 
ATOM     21  C   UNL     1       0.970   2.442  18.714  0.00  0.00    +0.000 A 
ATOM     22  C   UNL     1       0.915   3.786  19.095  0.00  0.00    +0.000 A 
ATOM     23  C   UNL     1       1.874   4.318  19.967  0.00  0.00    +0.000 A 
ATOM     24  C   UNL     1       2.938   3.494  20.372  0.00  0.00    +0.000 A 
ATOM     25  C   UNL     1       2.991   2.152  19.990  0.00  0.00    +0.000 A 
ENDBRANCH  19  23
ENDBRANCH   1  19
TORSDOF 4
ENDMDL
MODEL 9
REMARK VINA RESULT:      -8.3      1.516      5.120
REMARK  Name = 
REMARK  4 active torsions:
REMARK  status: ('A' for Active; 'I' for Inactive)
REMARK    1  A    between atoms: C_4  and  C_5
REMARK    2  A    between atoms: C_5  and  C_6
REMARK    3  A    between atoms: C_6  and  N_7
REMARK    4  A    between atoms: C_6  and  C_17
REMARK                            x       y       z     vdW  Elec       q    Type
REMARK                         _______ _______ _______ _____ _____    ______ ____
ROOT
ATOM      1  C   UNL     1       2.357   6.835  20.064  0.00  0.00    +0.000 C 
ENDROOT
BRANCH   1   2
ATOM      2  N   UNL     1       2.643   6.596  18.645  0.00  0.00    +0.000 N 
ATOM      3  C   UNL     1       3.896   6.237  18.194  0.00  0.00    +0.000 A 
ATOM      4  C   UNL     1       4.231   6.534  16.753  0.00  0.00    +0.000 A 
ATOM      5  C   UNL     1       5.437   6.191  16.274  0.00  0.00    +0.000 A 
ATOM      6  C   UNL     1       6.342   5.562  17.144  0.00  0.00    +0.000 A 
ATOM      7  N   UNL     1       7.567   5.102  17.012  0.00  0.00    +0.000 NA
ATOM      8  N   UNL     1       7.906   4.599  18.249  0.00  0.00    +0.000 NA
ATOM      9  N   UNL     1       6.914   4.747  19.120  0.00  0.00    +0.000 NA
ATOM     10  N   UNL     1       5.927   5.347  18.440  0.00  0.00    +0.000 N 
ATOM     11  N   UNL     1       4.740   5.659  19.008  0.00  0.00    +0.000 NA
ATOM     12  H   UNL     1       2.089   7.174  18.028  0.00  0.00    +0.000 HD
ENDBRANCH   1   2
BRANCH   1  13
ATOM     13  C   UNL     1       1.646   8.180  20.170  0.00  0.00    +0.000 A 
ATOM     14  C   UNL     1       1.121   8.587  21.406  0.00  0.00    +0.000 A 
ATOM     15  C   UNL     1       0.503   9.832  21.541  0.00  0.00    +0.000 A 
ATOM     16  C   UNL     1       0.408  10.689  20.448  0.00  0.00    +0.000 A 
ATOM     17  C   UNL     1       0.930  10.304  19.215  0.00  0.00    +0.000 A 
ATOM     18  C   UNL     1       1.543   9.058  19.075  0.00  0.00    +0.000 A 
ENDBRANCH   1  13
BRANCH   1  19
ATOM     19  C   UNL     1       1.508   5.694  20.684  0.00  0.00    +0.000 C 
BRANCH  19  23
ATOM     20  C   UNL     1       2.132   1.718  19.089  0.00  0.00    +0.000 A 
ATOM     21  C   UNL     1       3.022   2.224  20.033  0.00  0.00    +0.000 A 
ATOM     22  C   UNL     1       2.823   3.495  20.580  0.00  0.00    +0.000 A 
ATOM     23  C   UNL     1       1.743   4.287  20.168  0.00  0.00    +0.000 A 
ATOM     24  C   UNL     1       0.819   3.736  19.263  0.00  0.00    +0.000 A 
ATOM     25  C   UNL     1       1.019   2.466  18.718  0.00  0.00    +0.000 A 
ENDBRANCH  19  23
ENDBRANCH   1  19
TORSDOF 4
ENDMDL
