MODEL 1
REMARK VINA RESULT:      -9.6      0.000      0.000
REMARK  Name = 
REMARK  3 active torsions:
REMARK  status: ('A' for Active; 'I' for Inactive)
REMARK    1  A    between atoms: C_2  and  C_21
REMARK    2  A    between atoms: N_3  and  C_4
REMARK    3  A    between atoms: C_9  and  C_10
REMARK                            x       y       z     vdW  Elec       q    Type
REMARK                         _______ _______ _______ _____ _____    ______ ____
ROOT
ATOM      1  C   UNL     1       6.395   4.093  17.012  0.00  0.00    +0.000 A 
ATOM      2  C   UNL     1       7.633   4.639  17.375  0.00  0.00    +0.000 A 
ATOM      3  C   UNL     1       7.772   5.358  18.601  0.00  0.00    +0.000 A 
ATOM      4  C   UNL     1       6.686   5.540  19.445  0.00  0.00    +0.000 A 
ATOM      5  C   UNL     1       5.474   4.951  19.122  0.00  0.00    +0.000 A 
ATOM      6  C   UNL     1       5.338   4.190  17.939  0.00  0.00    +0.000 A 
ENDROOT
BRANCH   6   7
ATOM      7  C   UNL     1       3.988   3.673  17.586  0.00  0.00    +0.000 A 
ATOM      8  N   UNL     1       3.137   4.519  17.066  0.00  0.00    +0.000 NA
ATOM      9  C   UNL     1       2.484   5.147  18.156  0.00  0.00    +0.000 A 
ATOM     10  C   UNL     1       2.475   6.533  18.196  0.00  0.00    +0.000 A 
ATOM     11  C   UNL     1       2.220   7.177  19.402  0.00  0.00    +0.000 A 
ATOM     12  C   UNL     1       1.899   6.434  20.546  0.00  0.00    +0.000 A 
ATOM     13  C   UNL     1       1.831   5.038  20.503  0.00  0.00    +0.000 A 
ATOM     14  C   UNL     1       2.172   4.396  19.321  0.00  0.00    +0.000 A 
ATOM     15  N   UNL     1       2.455   3.011  19.321  0.00  0.00    +0.000 N 
ATOM     16  C   UNL     1       3.398   2.534  18.430  0.00  0.00    +0.000 A 
ATOM     17  O   UNL     1       3.819   1.397  18.373  0.00  0.00    +0.000 OA
ATOM     18  H   UNL     1       2.182   2.402  20.081  0.00  0.00    +0.000 HD
ENDBRANCH   6   7
BRANCH   1  21
ATOM     19  O   UNL     1       6.793   5.481  14.501  0.00  0.00    +0.000 OA
ATOM     20  C   UNL     1       6.336   4.341  14.506  0.00  0.00    +0.000 C 
ATOM     21  N   UNL     1       6.123   3.622  15.680  0.00  0.00    +0.000 N 
ATOM     22  H   UNL     1       6.211   2.609  15.582  0.00  0.00    +0.000 HD
BRANCH  20  23
ATOM     23  C   UNL     1       6.052   3.655  13.173  0.00  0.00    +0.000 A 
ATOM     24  C   UNL     1       7.002   2.929  12.435  0.00  0.00    +0.000 A 
ATOM     25  C   UNL     1       6.632   2.221  11.264  0.00  0.00    +0.000 A 
ATOM     26  C   UNL     1       5.313   2.239  10.821  0.00  0.00    +0.000 A 
ATOM     27  C   UNL     1       4.377   2.982  11.522  0.00  0.00    +0.000 A 
ATOM     28  F   UNL     1       3.106   3.008  11.094  0.00  0.00    +0.000 F 
ATOM     29  C   UNL     1       4.734   3.688  12.676  0.00  0.00    +0.000 A 
ENDBRANCH  20  23
ENDBRANCH   1  21
TORSDOF 3
ENDMDL
MODEL 2
REMARK VINA RESULT:      -9.3      0.960      1.330
REMARK  Name = 
REMARK  3 active torsions:
REMARK  status: ('A' for Active; 'I' for Inactive)
REMARK    1  A    between atoms: C_2  and  C_21
REMARK    2  A    between atoms: N_3  and  C_4
REMARK    3  A    between atoms: C_9  and  C_10
REMARK                            x       y       z     vdW  Elec       q    Type
REMARK                         _______ _______ _______ _____ _____    ______ ____
ROOT
ATOM      1  C   UNL     1       6.394   4.178  17.160  0.00  0.00    +0.000 A 
ATOM      2  C   UNL     1       7.635   4.762  17.446  0.00  0.00    +0.000 A 
ATOM      3  C   UNL     1       7.823   5.502  18.652  0.00  0.00    +0.000 A 
ATOM      4  C   UNL     1       6.780   5.668  19.554  0.00  0.00    +0.000 A 
ATOM      5  C   UNL     1       5.569   5.042  19.307  0.00  0.00    +0.000 A 
ATOM      6  C   UNL     1       5.388   4.261  18.143  0.00  0.00    +0.000 A 
ENDROOT
BRANCH   6   7
ATOM      7  C   UNL     1       4.035   3.702  17.873  0.00  0.00    +0.000 A 
ATOM      8  N   UNL     1       3.187   4.464  17.231  0.00  0.00    +0.000 NA
ATOM      9  C   UNL     1       2.539   5.254  18.213  0.00  0.00    +0.000 A 
ATOM     10  C   UNL     1       2.537   6.630  18.042  0.00  0.00    +0.000 A 
ATOM     11  C   UNL     1       2.286   7.450  19.137  0.00  0.00    +0.000 A 
ATOM     12  C   UNL     1       1.963   6.892  20.380  0.00  0.00    +0.000 A 
ATOM     13  C   UNL     1       1.888   5.506  20.550  0.00  0.00    +0.000 A 
ATOM     14  C   UNL     1       2.224   4.690  19.479  0.00  0.00    +0.000 A 
ATOM     15  N   UNL     1       2.500   3.320  19.689  0.00  0.00    +0.000 N 
ATOM     16  C   UNL     1       3.441   2.708  18.880  0.00  0.00    +0.000 A 
ATOM     17  O   UNL     1       3.856   1.573  18.996  0.00  0.00    +0.000 OA
ATOM     18  H   UNL     1       2.226   2.834  20.532  0.00  0.00    +0.000 HD
ENDBRANCH   6   7
BRANCH   1  21
ATOM     19  O   UNL     1       6.492   5.582  14.627  0.00  0.00    +0.000 OA
ATOM     20  C   UNL     1       6.128   4.409  14.665  0.00  0.00    +0.000 C 
ATOM     21  N   UNL     1       6.061   3.681  15.851  0.00  0.00    +0.000 N 
ATOM     22  H   UNL     1       6.221   2.678  15.746  0.00  0.00    +0.000 HD
BRANCH  20  23
ATOM     23  C   UNL     1       5.801   3.697  13.357  0.00  0.00    +0.000 A 
ATOM     24  C   UNL     1       4.548   3.737  12.721  0.00  0.00    +0.000 A 
ATOM     25  C   UNL     1       4.356   3.146  11.447  0.00  0.00    +0.000 A 
ATOM     26  C   UNL     1       5.411   2.507  10.804  0.00  0.00    +0.000 A 
ATOM     27  C   UNL     1       6.640   2.430  11.439  0.00  0.00    +0.000 A 
ATOM     28  F   UNL     1       7.657   1.808  10.826  0.00  0.00    +0.000 F 
ATOM     29  C   UNL     1       6.838   3.006  12.699  0.00  0.00    +0.000 A 
ENDBRANCH  20  23
ENDBRANCH   1  21
TORSDOF 3
ENDMDL
MODEL 3
REMARK VINA RESULT:      -9.2      1.900      3.105
REMARK  Name = 
REMARK  3 active torsions:
REMARK  status: ('A' for Active; 'I' for Inactive)
REMARK    1  A    between atoms: C_2  and  C_21
REMARK    2  A    between atoms: N_3  and  C_4
REMARK    3  A    between atoms: C_9  and  C_10
REMARK                            x       y       z     vdW  Elec       q    Type
REMARK                         _______ _______ _______ _____ _____    ______ ____
ROOT
ATOM      1  C   UNL     1       4.004   6.517  17.111  0.00  0.00    +0.000 A 
ATOM      2  C   UNL     1       3.485   7.815  17.201  0.00  0.00    +0.000 A 
ATOM      3  C   UNL     1       2.668   8.189  18.311  0.00  0.00    +0.000 A 
ATOM      4  C   UNL     1       2.364   7.274  19.310  0.00  0.00    +0.000 A 
ATOM      5  C   UNL     1       2.925   6.008  19.259  0.00  0.00    +0.000 A 
ATOM      6  C   UNL     1       3.779   5.644  18.193  0.00  0.00    +0.000 A 
ENDROOT
BRANCH   6   7
ATOM      7  C   UNL     1       4.264   4.237  18.129  0.00  0.00    +0.000 A 
ATOM      8  N   UNL     1       3.417   3.327  17.723  0.00  0.00    +0.000 NA
ATOM      9  C   UNL     1       2.703   2.907  18.873  0.00  0.00    +0.000 A 
ATOM     10  C   UNL     1       1.317   2.942  18.825  0.00  0.00    +0.000 A 
ATOM     11  C   UNL     1       0.596   2.934  20.015  0.00  0.00    +0.000 A 
ATOM     12  C   UNL     1       1.258   2.813  21.243  0.00  0.00    +0.000 A 
ATOM     13  C   UNL     1       2.651   2.701  21.302  0.00  0.00    +0.000 A 
ATOM     14  C   UNL     1       3.373   2.798  20.121  0.00  0.00    +0.000 A 
ATOM     15  N   UNL     1       4.765   3.038  20.157  0.00  0.00    +0.000 N 
ATOM     16  C   UNL     1       5.329   3.786  19.138  0.00  0.00    +0.000 A 
ATOM     17  O   UNL     1       6.482   4.158  19.077  0.00  0.00    +0.000 OA
ATOM     18  H   UNL     1       5.319   2.896  20.991  0.00  0.00    +0.000 HD
ENDBRANCH   6   7
BRANCH   1  21
ATOM     19  O   UNL     1       6.802   6.124  16.467  0.00  0.00    +0.000 OA
ATOM     20  C   UNL     1       5.936   5.835  15.644  0.00  0.00    +0.000 C 
ATOM     21  N   UNL     1       4.576   6.000  15.895  0.00  0.00    +0.000 N 
ATOM     22  H   UNL     1       3.969   5.335  15.413  0.00  0.00    +0.000 HD
BRANCH  20  23
ATOM     23  C   UNL     1       6.358   5.207  14.320  0.00  0.00    +0.000 A 
ATOM     24  C   UNL     1       7.534   5.535  13.623  0.00  0.00    +0.000 A 
ATOM     25  C   UNL     1       7.916   4.823  12.459  0.00  0.00    +0.000 A 
ATOM     26  C   UNL     1       7.123   3.783  11.981  0.00  0.00    +0.000 A 
ATOM     27  C   UNL     1       5.945   3.477  12.640  0.00  0.00    +0.000 A 
ATOM     28  F   UNL     1       5.175   2.481  12.177  0.00  0.00    +0.000 F 
ATOM     29  C   UNL     1       5.556   4.178  13.787  0.00  0.00    +0.000 A 
ENDBRANCH  20  23
ENDBRANCH   1  21
TORSDOF 3
ENDMDL
MODEL 4
REMARK VINA RESULT:      -9.2      3.669      7.343
REMARK  Name = 
REMARK  3 active torsions:
REMARK  status: ('A' for Active; 'I' for Inactive)
REMARK    1  A    between atoms: C_2  and  C_21
REMARK    2  A    between atoms: N_3  and  C_4
REMARK    3  A    between atoms: C_9  and  C_10
REMARK                            x       y       z     vdW  Elec       q    Type
REMARK                         _______ _______ _______ _____ _____    ______ ____
ROOT
ATOM      1  C   UNL     1       3.319   4.944  19.833  0.00  0.00    +0.000 A 
ATOM      2  C   UNL     1       2.417   3.897  20.063  0.00  0.00    +0.000 A 
ATOM      3  C   UNL     1       2.769   2.555  19.726  0.00  0.00    +0.000 A 
ATOM      4  C   UNL     1       4.001   2.266  19.155  0.00  0.00    +0.000 A 
ATOM      5  C   UNL     1       4.921   3.287  18.982  0.00  0.00    +0.000 A 
ATOM      6  C   UNL     1       4.604   4.611  19.362  0.00  0.00    +0.000 A 
ENDROOT
BRANCH   6   7
ATOM      7  C   UNL     1       5.586   5.687  19.052  0.00  0.00    +0.000 A 
ATOM      8  N   UNL     1       5.299   6.496  18.065  0.00  0.00    +0.000 NA
ATOM      9  C   UNL     1       5.783   5.875  16.887  0.00  0.00    +0.000 A 
ATOM     10  C   UNL     1       4.899   5.708  15.831  0.00  0.00    +0.000 A 
ATOM     11  C   UNL     1       5.189   4.773  14.843  0.00  0.00    +0.000 A 
ATOM     12  C   UNL     1       6.396   4.063  14.873  0.00  0.00    +0.000 A 
ATOM     13  C   UNL     1       7.331   4.275  15.891  0.00  0.00    +0.000 A 
ATOM     14  C   UNL     1       7.001   5.143  16.922  0.00  0.00    +0.000 A 
ATOM     15  N   UNL     1       7.738   5.129  18.127  0.00  0.00    +0.000 N 
ATOM     16  C   UNL     1       7.074   5.413  19.307  0.00  0.00    +0.000 A 
ATOM     17  O   UNL     1       7.541   5.346  20.425  0.00  0.00    +0.000 OA
ATOM     18  H   UNL     1       8.652   4.701  18.199  0.00  0.00    +0.000 HD
ENDBRANCH   6   7
BRANCH   1  21
ATOM     19  O   UNL     1       1.947   6.480  17.794  0.00  0.00    +0.000 OA
ATOM     20  C   UNL     1       2.261   7.012  18.856  0.00  0.00    +0.000 C 
ATOM     21  N   UNL     1       2.920   6.326  19.874  0.00  0.00    +0.000 N 
ATOM     22  H   UNL     1       2.713   6.660  20.817  0.00  0.00    +0.000 HD
BRANCH  20  23
ATOM     23  C   UNL     1       1.854   8.461  19.102  0.00  0.00    +0.000 A 
ATOM     24  C   UNL     1       1.945   9.486  18.145  0.00  0.00    +0.000 A 
ATOM     25  C   UNL     1       1.436  10.782  18.412  0.00  0.00    +0.000 A 
ATOM     26  C   UNL     1       0.840  11.063  19.638  0.00  0.00    +0.000 A 
ATOM     27  C   UNL     1       0.779  10.069  20.601  0.00  0.00    +0.000 A 
ATOM     28  F   UNL     1       0.212  10.339  21.786  0.00  0.00    +0.000 F 
ATOM     29  C   UNL     1       1.283   8.789  20.348  0.00  0.00    +0.000 A 
ENDBRANCH  20  23
ENDBRANCH   1  21
TORSDOF 3
ENDMDL
MODEL 5
REMARK VINA RESULT:      -9.1      3.623      7.537
REMARK  Name = 
REMARK  3 active torsions:
REMARK  status: ('A' for Active; 'I' for Inactive)
REMARK    1  A    between atoms: C_2  and  C_21
REMARK    2  A    between atoms: N_3  and  C_4
REMARK    3  A    between atoms: C_9  and  C_10
REMARK                            x       y       z     vdW  Elec       q    Type
REMARK                         _______ _______ _______ _____ _____    ______ ____
ROOT
ATOM      1  C   UNL     1       2.669   4.942  18.590  0.00  0.00    +0.000 A 
ATOM      2  C   UNL     1       1.702   3.933  18.508  0.00  0.00    +0.000 A 
ATOM      3  C   UNL     1       2.084   2.590  18.209  0.00  0.00    +0.000 A 
ATOM      4  C   UNL     1       3.414   2.264  17.981  0.00  0.00    +0.000 A 
ATOM      5  C   UNL     1       4.383   3.245  18.121  0.00  0.00    +0.000 A 
ATOM      6  C   UNL     1       4.022   4.566  18.471  0.00  0.00    +0.000 A 
ENDROOT
BRANCH   6   7
ATOM      7  C   UNL     1       5.089   5.603  18.499  0.00  0.00    +0.000 A 
ATOM      8  N   UNL     1       5.047   6.534  17.581  0.00  0.00    +0.000 NA
ATOM      9  C   UNL     1       5.740   6.017  16.458  0.00  0.00    +0.000 A 
ATOM     10  C   UNL     1       5.089   6.027  15.233  0.00  0.00    +0.000 A 
ATOM     11  C   UNL     1       5.541   5.190  14.218  0.00  0.00    +0.000 A 
ATOM     12  C   UNL     1       6.686   4.405  14.403  0.00  0.00    +0.000 A 
ATOM     13  C   UNL     1       7.396   4.441  15.608  0.00  0.00    +0.000 A 
ATOM     14  C   UNL     1       6.893   5.209  16.649  0.00  0.00    +0.000 A 
ATOM     15  N   UNL     1       7.363   5.013  17.967  0.00  0.00    +0.000 N 
ATOM     16  C   UNL     1       6.480   5.206  19.014  0.00  0.00    +0.000 A 
ATOM     17  O   UNL     1       6.700   4.985  20.187  0.00  0.00    +0.000 OA
ATOM     18  H   UNL     1       8.223   4.522  18.169  0.00  0.00    +0.000 HD
ENDBRANCH   6   7
BRANCH   1  21
ATOM     19  O   UNL     1       1.713   6.549  20.803  0.00  0.00    +0.000 OA
ATOM     20  C   UNL     1       1.867   7.059  19.696  0.00  0.00    +0.000 C 
ATOM     21  N   UNL     1       2.325   6.339  18.595  0.00  0.00    +0.000 N 
ATOM     22  H   UNL     1       2.852   6.889  17.915  0.00  0.00    +0.000 HD
BRANCH  20  23
ATOM     23  C   UNL     1       1.615   8.554  19.532  0.00  0.00    +0.000 A 
ATOM     24  C   UNL     1       1.873   9.281  18.357  0.00  0.00    +0.000 A 
ATOM     25  C   UNL     1       1.502  10.643  18.244  0.00  0.00    +0.000 A 
ATOM     26  C   UNL     1       0.876  11.290  19.306  0.00  0.00    +0.000 A 
ATOM     27  C   UNL     1       0.650  10.593  20.480  0.00  0.00    +0.000 A 
ATOM     28  F   UNL     1       0.054  11.216  21.508  0.00  0.00    +0.000 F 
ATOM     29  C   UNL     1       1.019   9.249  20.604  0.00  0.00    +0.000 A 
ENDBRANCH  20  23
ENDBRANCH   1  21
TORSDOF 3
ENDMDL
MODEL 6
REMARK VINA RESULT:      -9.0      3.357      7.162
REMARK  Name = 
REMARK  3 active torsions:
REMARK  status: ('A' for Active; 'I' for Inactive)
REMARK    1  A    between atoms: C_2  and  C_21
REMARK    2  A    between atoms: N_3  and  C_4
REMARK    3  A    between atoms: C_9  and  C_10
REMARK                            x       y       z     vdW  Elec       q    Type
REMARK                         _______ _______ _______ _____ _____    ______ ____
ROOT
ATOM      1  C   UNL     1       3.298   5.011  19.817  0.00  0.00    +0.000 A 
ATOM      2  C   UNL     1       2.397   3.966  20.058  0.00  0.00    +0.000 A 
ATOM      3  C   UNL     1       2.759   2.618  19.758  0.00  0.00    +0.000 A 
ATOM      4  C   UNL     1       4.000   2.320  19.213  0.00  0.00    +0.000 A 
ATOM      5  C   UNL     1       4.919   3.341  19.029  0.00  0.00    +0.000 A 
ATOM      6  C   UNL     1       4.592   4.672  19.374  0.00  0.00    +0.000 A 
ENDROOT
BRANCH   6   7
ATOM      7  C   UNL     1       5.574   5.744  19.053  0.00  0.00    +0.000 A 
ATOM      8  N   UNL     1       5.288   6.544  18.059  0.00  0.00    +0.000 NA
ATOM      9  C   UNL     1       5.771   5.911  16.887  0.00  0.00    +0.000 A 
ATOM     10  C   UNL     1       4.887   5.735  15.833  0.00  0.00    +0.000 A 
ATOM     11  C   UNL     1       5.177   4.790  14.854  0.00  0.00    +0.000 A 
ATOM     12  C   UNL     1       6.384   4.080  14.890  0.00  0.00    +0.000 A 
ATOM     13  C   UNL     1       7.319   4.301  15.907  0.00  0.00    +0.000 A 
ATOM     14  C   UNL     1       6.989   5.179  16.929  0.00  0.00    +0.000 A 
ATOM     15  N   UNL     1       7.726   5.175  18.135  0.00  0.00    +0.000 N 
ATOM     16  C   UNL     1       7.063   5.471  19.312  0.00  0.00    +0.000 A 
ATOM     17  O   UNL     1       7.529   5.414  20.430  0.00  0.00    +0.000 OA
ATOM     18  H   UNL     1       8.640   4.748  18.210  0.00  0.00    +0.000 HD
ENDBRANCH   6   7
BRANCH   1  21
ATOM     19  O   UNL     1       1.911   6.481  17.741  0.00  0.00    +0.000 OA
ATOM     20  C   UNL     1       2.227   7.045  18.786  0.00  0.00    +0.000 C 
ATOM     21  N   UNL     1       2.894   6.392  19.820  0.00  0.00    +0.000 N 
ATOM     22  H   UNL     1       2.690   6.752  20.754  0.00  0.00    +0.000 HD
BRANCH  20  23
ATOM     23  C   UNL     1       1.815   8.499  18.992  0.00  0.00    +0.000 A 
ATOM     24  C   UNL     1       1.073   8.968  20.089  0.00  0.00    +0.000 A 
ATOM     25  C   UNL     1       0.831  10.352  20.270  0.00  0.00    +0.000 A 
ATOM     26  C   UNL     1       1.323  11.276  19.352  0.00  0.00    +0.000 A 
ATOM     27  C   UNL     1       2.024  10.821  18.248  0.00  0.00    +0.000 A 
ATOM     28  F   UNL     1       2.493  11.707  17.358  0.00  0.00    +0.000 F 
ATOM     29  C   UNL     1       2.263   9.455  18.059  0.00  0.00    +0.000 A 
ENDBRANCH  20  23
ENDBRANCH   1  21
TORSDOF 3
ENDMDL
MODEL 7
REMARK VINA RESULT:      -8.9      3.168      7.353
REMARK  Name = 
REMARK  3 active torsions:
REMARK  status: ('A' for Active; 'I' for Inactive)
REMARK    1  A    between atoms: C_2  and  C_21
REMARK    2  A    between atoms: N_3  and  C_4
REMARK    3  A    between atoms: C_9  and  C_10
REMARK                            x       y       z     vdW  Elec       q    Type
REMARK                         _______ _______ _______ _____ _____    ______ ____
ROOT
ATOM      1  C   UNL     1       2.692   4.839  18.632  0.00  0.00    +0.000 A 
ATOM      2  C   UNL     1       1.769   3.788  18.548  0.00  0.00    +0.000 A 
ATOM      3  C   UNL     1       2.206   2.470  18.214  0.00  0.00    +0.000 A 
ATOM      4  C   UNL     1       3.544   2.209  17.954  0.00  0.00    +0.000 A 
ATOM      5  C   UNL     1       4.470   3.231  18.096  0.00  0.00    +0.000 A 
ATOM      6  C   UNL     1       4.057   4.527  18.480  0.00  0.00    +0.000 A 
ENDROOT
BRANCH   6   7
ATOM      7  C   UNL     1       5.077   5.611  18.509  0.00  0.00    +0.000 A 
ATOM      8  N   UNL     1       4.996   6.537  17.589  0.00  0.00    +0.000 NA
ATOM      9  C   UNL     1       5.715   6.050  16.470  0.00  0.00    +0.000 A 
ATOM     10  C   UNL     1       5.069   6.028  15.242  0.00  0.00    +0.000 A 
ATOM     11  C   UNL     1       5.560   5.211  14.230  0.00  0.00    +0.000 A 
ATOM     12  C   UNL     1       6.739   4.478  14.421  0.00  0.00    +0.000 A 
ATOM     13  C   UNL     1       7.443   4.548  15.628  0.00  0.00    +0.000 A 
ATOM     14  C   UNL     1       6.903   5.295  16.666  0.00  0.00    +0.000 A 
ATOM     15  N   UNL     1       7.376   5.122  17.986  0.00  0.00    +0.000 N 
ATOM     16  C   UNL     1       6.482   5.278  19.030  0.00  0.00    +0.000 A 
ATOM     17  O   UNL     1       6.709   5.069  20.204  0.00  0.00    +0.000 OA
ATOM     18  H   UNL     1       8.257   4.670  18.191  0.00  0.00    +0.000 HD
ENDBRANCH   6   7
BRANCH   1  21
ATOM     19  O   UNL     1       1.748   6.367  20.906  0.00  0.00    +0.000 OA
ATOM     20  C   UNL     1       1.837   6.900  19.802  0.00  0.00    +0.000 C 
ATOM     21  N   UNL     1       2.284   6.218  18.673  0.00  0.00    +0.000 N 
ATOM     22  H   UNL     1       2.761   6.801  17.983  0.00  0.00    +0.000 HD
BRANCH  20  23
ATOM     23  C   UNL     1       1.511   8.384  19.672  0.00  0.00    +0.000 A 
ATOM     24  C   UNL     1       0.824   9.135  20.641  0.00  0.00    +0.000 A 
ATOM     25  C   UNL     1       0.662  10.536  20.500  0.00  0.00    +0.000 A 
ATOM     26  C   UNL     1       1.180  11.194  19.389  0.00  0.00    +0.000 A 
ATOM     27  C   UNL     1       1.826  10.457  18.411  0.00  0.00    +0.000 A 
ATOM     28  F   UNL     1       2.320  11.086  17.334  0.00  0.00    +0.000 F 
ATOM     29  C   UNL     1       1.986   9.072  18.538  0.00  0.00    +0.000 A 
ENDBRANCH  20  23
ENDBRANCH   1  21
TORSDOF 3
ENDMDL
MODEL 8
REMARK VINA RESULT:      -8.8      2.240      3.458
REMARK  Name = 
REMARK  3 active torsions:
REMARK  status: ('A' for Active; 'I' for Inactive)
REMARK    1  A    between atoms: C_2  and  C_21
REMARK    2  A    between atoms: N_3  and  C_4
REMARK    3  A    between atoms: C_9  and  C_10
REMARK                            x       y       z     vdW  Elec       q    Type
REMARK                         _______ _______ _______ _____ _____    ______ ____
ROOT
ATOM      1  C   UNL     1       3.937   6.410  17.334  0.00  0.00    +0.000 A 
ATOM      2  C   UNL     1       3.431   7.714  17.419  0.00  0.00    +0.000 A 
ATOM      3  C   UNL     1       2.582   8.088  18.505  0.00  0.00    +0.000 A 
ATOM      4  C   UNL     1       2.234   7.168  19.484  0.00  0.00    +0.000 A 
ATOM      5  C   UNL     1       2.781   5.895  19.439  0.00  0.00    +0.000 A 
ATOM      6  C   UNL     1       3.665   5.530  18.399  0.00  0.00    +0.000 A 
ENDROOT
BRANCH   6   7
ATOM      7  C   UNL     1       4.135   4.118  18.338  0.00  0.00    +0.000 A 
ATOM      8  N   UNL     1       3.271   3.213  17.959  0.00  0.00    +0.000 NA
ATOM      9  C   UNL     1       2.578   2.810  19.128  0.00  0.00    +0.000 A 
ATOM     10  C   UNL     1       1.192   2.859  19.112  0.00  0.00    +0.000 A 
ATOM     11  C   UNL     1       0.498   2.869  20.316  0.00  0.00    +0.000 A 
ATOM     12  C   UNL     1       1.186   2.753  21.531  0.00  0.00    +0.000 A 
ATOM     13  C   UNL     1       2.579   2.628  21.561  0.00  0.00    +0.000 A 
ATOM     14  C   UNL     1       3.275   2.706  20.363  0.00  0.00    +0.000 A 
ATOM     15  N   UNL     1       4.670   2.933  20.365  0.00  0.00    +0.000 N 
ATOM     16  C   UNL     1       5.218   3.666  19.328  0.00  0.00    +0.000 A 
ATOM     17  O   UNL     1       6.373   4.026  19.238  0.00  0.00    +0.000 OA
ATOM     18  H   UNL     1       5.241   2.794  21.188  0.00  0.00    +0.000 HD
ENDBRANCH   6   7
BRANCH   1  21
ATOM     19  O   UNL     1       6.744   5.920  16.806  0.00  0.00    +0.000 OA
ATOM     20  C   UNL     1       5.906   5.684  15.939  0.00  0.00    +0.000 C 
ATOM     21  N   UNL     1       4.543   5.898  16.133  0.00  0.00    +0.000 N 
ATOM     22  H   UNL     1       3.934   5.269  15.609  0.00  0.00    +0.000 HD
BRANCH  20  23
ATOM     23  C   UNL     1       6.363   5.069  14.621  0.00  0.00    +0.000 A 
ATOM     24  C   UNL     1       5.734   3.983  13.989  0.00  0.00    +0.000 A 
ATOM     25  C   UNL     1       6.148   3.543  12.707  0.00  0.00    +0.000 A 
ATOM     26  C   UNL     1       7.196   4.181  12.051  0.00  0.00    +0.000 A 
ATOM     27  C   UNL     1       7.847   5.229  12.681  0.00  0.00    +0.000 A 
ATOM     28  F   UNL     1       8.863   5.841  12.056  0.00  0.00    +0.000 F 
ATOM     29  C   UNL     1       7.449   5.666  13.949  0.00  0.00    +0.000 A 
ENDBRANCH  20  23
ENDBRANCH   1  21
TORSDOF 3
ENDMDL
MODEL 9
REMARK VINA RESULT:      -8.5      5.460      8.388
REMARK  Name = 
REMARK  3 active torsions:
REMARK  status: ('A' for Active; 'I' for Inactive)
REMARK    1  A    between atoms: C_2  and  C_21
REMARK    2  A    between atoms: N_3  and  C_4
REMARK    3  A    between atoms: C_9  and  C_10
REMARK                            x       y       z     vdW  Elec       q    Type
REMARK                         _______ _______ _______ _____ _____    ______ ____
ROOT
ATOM      1  C   UNL     1       0.742   9.072  20.918  0.00  0.00    +0.000 A 
ATOM      2  C   UNL     1       0.647   8.857  22.299  0.00  0.00    +0.000 A 
ATOM      3  C   UNL     1      -0.138   9.729  23.113  0.00  0.00    +0.000 A 
ATOM      4  C   UNL     1      -0.809  10.809  22.555  0.00  0.00    +0.000 A 
ATOM      5  C   UNL     1      -0.769  10.992  21.182  0.00  0.00    +0.000 A 
ATOM      6  C   UNL     1      -0.040  10.103  20.360  0.00  0.00    +0.000 A 
ENDROOT
BRANCH   6   7
ATOM      7  C   UNL     1       0.059  10.409  18.906  0.00  0.00    +0.000 A 
ATOM      8  N   UNL     1       1.195  10.890  18.469  0.00  0.00    +0.000 NA
ATOM      9  C   UNL     1       1.126  12.294  18.643  0.00  0.00    +0.000 A 
ATOM     10  C   UNL     1       2.153  12.914  19.338  0.00  0.00    +0.000 A 
ATOM     11  C   UNL     1       1.943  14.179  19.876  0.00  0.00    +0.000 A 
ATOM     12  C   UNL     1       0.736  14.853  19.651  0.00  0.00    +0.000 A 
ATOM     13  C   UNL     1      -0.282  14.271  18.888  0.00  0.00    +0.000 A 
ATOM     14  C   UNL     1      -0.104  12.974  18.428  0.00  0.00    +0.000 A 
ATOM     15  N   UNL     1      -1.210  12.226  17.964  0.00  0.00    +0.000 N 
ATOM     16  C   UNL     1      -1.209  10.858  18.166  0.00  0.00    +0.000 A 
ATOM     17  O   UNL     1      -2.120  10.096  17.916  0.00  0.00    +0.000 OA
ATOM     18  H   UNL     1      -2.088  12.658  17.710  0.00  0.00    +0.000 HD
ENDBRANCH   6   7
BRANCH   1  21
ATOM     19  O   UNL     1       1.391   6.251  20.793  0.00  0.00    +0.000 OA
ATOM     20  C   UNL     1       2.001   7.054  20.089  0.00  0.00    +0.000 C 
ATOM     21  N   UNL     1       1.734   8.420  20.104  0.00  0.00    +0.000 N 
ATOM     22  H   UNL     1       1.911   8.900  19.220  0.00  0.00    +0.000 HD
BRANCH  20  23
ATOM     23  C   UNL     1       3.045   6.529  19.109  0.00  0.00    +0.000 A 
ATOM     24  C   UNL     1       3.378   7.150  17.893  0.00  0.00    +0.000 A 
ATOM     25  C   UNL     1       4.442   6.665  17.092  0.00  0.00    +0.000 A 
ATOM     26  C   UNL     1       5.176   5.555  17.499  0.00  0.00    +0.000 A 
ATOM     27  C   UNL     1       4.833   4.915  18.677  0.00  0.00    +0.000 A 
ATOM     28  F   UNL     1       5.534   3.840  19.068  0.00  0.00    +0.000 F 
ATOM     29  C   UNL     1       3.780   5.382  19.472  0.00  0.00    +0.000 A 
ENDBRANCH  20  23
ENDBRANCH   1  21
TORSDOF 3
ENDMDL
