MODEL 1
REMARK VINA RESULT:      -7.8      0.000      0.000
REMARK  Name = 
REMARK  6 active torsions:
REMARK  status: ('A' for Active; 'I' for Inactive)
REMARK    1  A    between atoms: C_2  and  C_4
REMARK    2  A    between atoms: C_6  and  N_7
REMARK    3  A    between atoms: C_15  and  N_16
REMARK    4  A    between atoms: C_17  and  C_19
REMARK    5  A    between atoms: C_19  and  C_20
REMARK    6  A    between atoms: C_20  and  C_21
REMARK                            x       y       z     vdW  Elec       q    Type
REMARK                         _______ _______ _______ _____ _____    ______ ____
ROOT
ATOM      1  C   UNL     1       1.247   9.407  19.696  0.00  0.00    +0.000 A 
ATOM      2  C   UNL     1       0.511  10.488  20.236  0.00  0.00    +0.000 A 
ATOM      3  C   UNL     1       0.131  10.547  21.586  0.00  0.00    +0.000 A 
ATOM      4  C   UNL     1       0.502   9.462  22.377  0.00  0.00    +0.000 A 
ATOM      5  C   UNL     1       1.230   8.389  21.865  0.00  0.00    +0.000 A 
ATOM      6  C   UNL     1       1.600   8.322  20.522  0.00  0.00    +0.000 A 
ENDROOT
BRANCH   3   7
ATOM      7  N   UNL     1      -0.541  11.628  22.119  0.00  0.00    +0.000 N 
ATOM      8  C   UNL     1      -1.599  11.486  23.119  0.00  0.00    +0.000 C 
ATOM      9  C   UNL     1      -2.845  12.214  22.619  0.00  0.00    +0.000 C 
ATOM     10  C   UNL     1      -2.530  13.674  22.291  0.00  0.00    +0.000 C 
ATOM     11  C   UNL     1      -1.352  13.785  21.328  0.00  0.00    +0.000 C 
ATOM     12  C   UNL     1      -0.136  13.009  21.833  0.00  0.00    +0.000 C 
ENDBRANCH   3   7
BRANCH   1  14
ATOM     13  N   UNL     1       1.971  10.617  17.686  0.00  0.00    +0.000 N 
ATOM     14  C   UNL     1       1.601   9.419  18.248  0.00  0.00    +0.000 C 
ATOM     15  O   UNL     1       1.601   8.398  17.570  0.00  0.00    +0.000 OA
ATOM     16  H   UNL     1       2.244  10.604  16.711  0.00  0.00    +0.000 HD
ATOM     17  H   UNL     1       2.240  11.423  18.233  0.00  0.00    +0.000 HD
ENDBRANCH   1  14
BRANCH   6  18
ATOM     18  N   UNL     1       2.343   7.210  20.034  0.00  0.00    +0.000 N 
ATOM     19  C   UNL     1       1.973   5.888  20.164  0.00  0.00    +0.000 C 
ATOM     20  O   UNL     1       0.889   5.465  20.552  0.00  0.00    +0.000 OA
ATOM     21  H   UNL     1       3.165   7.433  19.474  0.00  0.00    +0.000 HD
BRANCH  19  22
ATOM     22  C   UNL     1       3.009   4.873  19.762  0.00  0.00    +0.000 C 
ATOM     23  C   UNL     1       2.555   3.675  18.934  0.00  0.00    +0.000 C 
ATOM     24  C   UNL     1       2.840   3.481  20.387  0.00  0.00    +0.000 C 
BRANCH  22  25
ATOM     25  C   UNL     1       4.428   5.373  19.540  0.00  0.00    +0.000 C 
BRANCH  25  26
ATOM     26  C   UNL     1       4.892   5.411  18.095  0.00  0.00    +0.000 A 
ATOM     27  C   UNL     1       5.474   4.315  17.441  0.00  0.00    +0.000 A 
ATOM     28  C   UNL     1       5.795   4.376  16.081  0.00  0.00    +0.000 A 
ATOM     29  C   UNL     1       5.528   5.529  15.348  0.00  0.00    +0.000 A 
ATOM     30  C   UNL     1       4.948   6.627  15.978  0.00  0.00    +0.000 A 
ATOM     31  C   UNL     1       4.632   6.567  17.339  0.00  0.00    +0.000 A 
ENDBRANCH  25  26
ENDBRANCH  22  25
ENDBRANCH  19  22
ENDBRANCH   6  18
TORSDOF 6
ENDMDL
MODEL 2
REMARK VINA RESULT:      -7.8      0.533      1.027
REMARK  Name = 
REMARK  6 active torsions:
REMARK  status: ('A' for Active; 'I' for Inactive)
REMARK    1  A    between atoms: C_2  and  C_4
REMARK    2  A    between atoms: C_6  and  N_7
REMARK    3  A    between atoms: C_15  and  N_16
REMARK    4  A    between atoms: C_17  and  C_19
REMARK    5  A    between atoms: C_19  and  C_20
REMARK    6  A    between atoms: C_20  and  C_21
REMARK                            x       y       z     vdW  Elec       q    Type
REMARK                         _______ _______ _______ _____ _____    ______ ____
ROOT
ATOM      1  C   UNL     1       1.100   9.347  19.611  0.00  0.00    +0.000 A 
ATOM      2  C   UNL     1       0.374  10.417  20.186  0.00  0.00    +0.000 A 
ATOM      3  C   UNL     1       0.183  10.546  21.570  0.00  0.00    +0.000 A 
ATOM      4  C   UNL     1       0.734   9.543  22.363  0.00  0.00    +0.000 A 
ATOM      5  C   UNL     1       1.455   8.482  21.817  0.00  0.00    +0.000 A 
ATOM      6  C   UNL     1       1.638   8.345  20.441  0.00  0.00    +0.000 A 
ENDROOT
BRANCH   3   7
ATOM      7  N   UNL     1      -0.481  11.619  22.128  0.00  0.00    +0.000 N 
ATOM      8  C   UNL     1      -1.396  11.480  23.262  0.00  0.00    +0.000 C 
ATOM      9  C   UNL     1      -2.735  12.111  22.888  0.00  0.00    +0.000 C 
ATOM     10  C   UNL     1      -2.552  13.564  22.448  0.00  0.00    +0.000 C 
ATOM     11  C   UNL     1      -1.512  13.680  21.338  0.00  0.00    +0.000 C 
ATOM     12  C   UNL     1      -0.198  13.001  21.723  0.00  0.00    +0.000 C 
ENDBRANCH   3   7
BRANCH   1  14
ATOM     13  N   UNL     1       0.172   9.654  17.358  0.00  0.00    +0.000 N 
ATOM     14  C   UNL     1       1.247   9.281  18.128  0.00  0.00    +0.000 C 
ATOM     15  O   UNL     1       2.296   8.940  17.595  0.00  0.00    +0.000 OA
ATOM     16  H   UNL     1       0.298   9.638  16.354  0.00  0.00    +0.000 HD
ATOM     17  H   UNL     1      -0.610  10.181  17.720  0.00  0.00    +0.000 HD
ENDBRANCH   1  14
BRANCH   6  18
ATOM     18  N   UNL     1       2.380   7.248  19.919  0.00  0.00    +0.000 N 
ATOM     19  C   UNL     1       2.064   5.917  20.095  0.00  0.00    +0.000 C 
ATOM     20  O   UNL     1       1.024   5.468  20.565  0.00  0.00    +0.000 OA
ATOM     21  H   UNL     1       3.154   7.487  19.298  0.00  0.00    +0.000 HD
BRANCH  19  22
ATOM     22  C   UNL     1       3.101   4.928  19.636  0.00  0.00    +0.000 C 
ATOM     23  C   UNL     1       2.641   3.754  18.778  0.00  0.00    +0.000 C 
ATOM     24  C   UNL     1       2.962   3.515  20.217  0.00  0.00    +0.000 C 
BRANCH  22  25
ATOM     25  C   UNL     1       4.510   5.452  19.400  0.00  0.00    +0.000 C 
BRANCH  25  26
ATOM     26  C   UNL     1       5.010   5.366  17.969  0.00  0.00    +0.000 A 
ATOM     27  C   UNL     1       4.621   6.259  16.959  0.00  0.00    +0.000 A 
ATOM     28  C   UNL     1       5.187   6.192  15.683  0.00  0.00    +0.000 A 
ATOM     29  C   UNL     1       6.161   5.240  15.396  0.00  0.00    +0.000 A 
ATOM     30  C   UNL     1       6.562   4.346  16.384  0.00  0.00    +0.000 A 
ATOM     31  C   UNL     1       5.994   4.410  17.660  0.00  0.00    +0.000 A 
ENDBRANCH  25  26
ENDBRANCH  22  25
ENDBRANCH  19  22
ENDBRANCH   6  18
TORSDOF 6
ENDMDL
MODEL 3
REMARK VINA RESULT:      -7.8      5.414      7.754
REMARK  Name = 
REMARK  6 active torsions:
REMARK  status: ('A' for Active; 'I' for Inactive)
REMARK    1  A    between atoms: C_2  and  C_4
REMARK    2  A    between atoms: C_6  and  N_7
REMARK    3  A    between atoms: C_15  and  N_16
REMARK    4  A    between atoms: C_17  and  C_19
REMARK    5  A    between atoms: C_19  and  C_20
REMARK    6  A    between atoms: C_20  and  C_21
REMARK                            x       y       z     vdW  Elec       q    Type
REMARK                         _______ _______ _______ _____ _____    ______ ____
ROOT
ATOM      1  C   UNL     1       7.840   6.874  18.568  0.00  0.00    +0.000 A 
ATOM      2  C   UNL     1       8.709   7.936  18.916  0.00  0.00    +0.000 A 
ATOM      3  C   UNL     1       8.553   9.237  18.414  0.00  0.00    +0.000 A 
ATOM      4  C   UNL     1       7.497   9.432  17.528  0.00  0.00    +0.000 A 
ATOM      5  C   UNL     1       6.628   8.401  17.174  0.00  0.00    +0.000 A 
ATOM      6  C   UNL     1       6.786   7.104  17.663  0.00  0.00    +0.000 A 
ENDROOT
BRANCH   3   7
ATOM      7  N   UNL     1       9.372  10.280  18.798  0.00  0.00    +0.000 N 
ATOM      8  C   UNL     1       9.606  10.628  20.199  0.00  0.00    +0.000 C 
ATOM      9  C   UNL     1       9.287  12.108  20.395  0.00  0.00    +0.000 C 
ATOM     10  C   UNL     1      10.093  12.974  19.427  0.00  0.00    +0.000 C 
ATOM     11  C   UNL     1       9.907  12.513  17.984  0.00  0.00    +0.000 C 
ATOM     12  C   UNL     1      10.189  11.020  17.828  0.00  0.00    +0.000 C 
ENDBRANCH   3   7
BRANCH   1  14
ATOM     13  N   UNL     1       8.287   5.418  20.494  0.00  0.00    +0.000 N 
ATOM     14  C   UNL     1       8.083   5.518  19.140  0.00  0.00    +0.000 C 
ATOM     15  O   UNL     1       8.072   4.509  18.444  0.00  0.00    +0.000 OA
ATOM     16  H   UNL     1       8.415   4.488  20.873  0.00  0.00    +0.000 HD
ATOM     17  H   UNL     1       8.053   6.156  21.144  0.00  0.00    +0.000 HD
ENDBRANCH   1  14
BRANCH   6  18
ATOM     18  N   UNL     1       5.880   6.075  17.280  0.00  0.00    +0.000 N 
ATOM     19  C   UNL     1       4.521   6.082  17.518  0.00  0.00    +0.000 C 
ATOM     20  O   UNL     1       3.855   7.025  17.930  0.00  0.00    +0.000 OA
ATOM     21  H   UNL     1       6.271   5.324  16.712  0.00  0.00    +0.000 HD
BRANCH  19  22
ATOM     22  C   UNL     1       3.794   4.799  17.215  0.00  0.00    +0.000 C 
ATOM     23  C   UNL     1       4.577   3.493  17.307  0.00  0.00    +0.000 C 
ATOM     24  C   UNL     1       4.271   4.057  15.959  0.00  0.00    +0.000 C 
BRANCH  22  25
ATOM     25  C   UNL     1       2.309   4.743  17.540  0.00  0.00    +0.000 C 
BRANCH  25  26
ATOM     26  C   UNL     1       1.953   4.111  18.873  0.00  0.00    +0.000 A 
ATOM     27  C   UNL     1       1.352   2.849  18.993  0.00  0.00    +0.000 A 
ATOM     28  C   UNL     1       1.134   2.273  20.249  0.00  0.00    +0.000 A 
ATOM     29  C   UNL     1       1.522   2.943  21.405  0.00  0.00    +0.000 A 
ATOM     30  C   UNL     1       2.122   4.195  21.307  0.00  0.00    +0.000 A 
ATOM     31  C   UNL     1       2.337   4.773  20.052  0.00  0.00    +0.000 A 
ENDBRANCH  25  26
ENDBRANCH  22  25
ENDBRANCH  19  22
ENDBRANCH   6  18
TORSDOF 6
ENDMDL
MODEL 4
REMARK VINA RESULT:      -7.7      1.958      9.072
REMARK  Name = 
REMARK  6 active torsions:
REMARK  status: ('A' for Active; 'I' for Inactive)
REMARK    1  A    between atoms: C_2  and  C_4
REMARK    2  A    between atoms: C_6  and  N_7
REMARK    3  A    between atoms: C_15  and  N_16
REMARK    4  A    between atoms: C_17  and  C_19
REMARK    5  A    between atoms: C_19  and  C_20
REMARK    6  A    between atoms: C_20  and  C_21
REMARK                            x       y       z     vdW  Elec       q    Type
REMARK                         _______ _______ _______ _____ _____    ______ ____
ROOT
ATOM      1  C   UNL     1       1.253   8.899  20.351  0.00  0.00    +0.000 A 
ATOM      2  C   UNL     1       1.893   7.669  20.068  0.00  0.00    +0.000 A 
ATOM      3  C   UNL     1       2.390   7.348  18.796  0.00  0.00    +0.000 A 
ATOM      4  C   UNL     1       2.203   8.307  17.803  0.00  0.00    +0.000 A 
ATOM      5  C   UNL     1       1.577   9.526  18.062  0.00  0.00    +0.000 A 
ATOM      6  C   UNL     1       1.073   9.843  19.323  0.00  0.00    +0.000 A 
ENDROOT
BRANCH   3   7
ATOM      7  N   UNL     1       3.060   6.170  18.539  0.00  0.00    +0.000 N 
ATOM      8  C   UNL     1       4.457   6.132  18.107  0.00  0.00    +0.000 C 
ATOM      9  C   UNL     1       4.550   5.313  16.821  0.00  0.00    +0.000 C 
ATOM     10  C   UNL     1       3.951   3.920  17.016  0.00  0.00    +0.000 C 
ATOM     11  C   UNL     1       2.531   3.999  17.569  0.00  0.00    +0.000 C 
ATOM     12  C   UNL     1       2.463   4.861  18.828  0.00  0.00    +0.000 C 
ENDBRANCH   3   7
BRANCH   1  14
ATOM     13  N   UNL     1      -0.458   8.594  22.086  0.00  0.00    +0.000 N 
ATOM     14  C   UNL     1       0.745   9.154  21.730  0.00  0.00    +0.000 C 
ATOM     15  O   UNL     1       1.381   9.812  22.545  0.00  0.00    +0.000 OA
ATOM     16  H   UNL     1      -0.773   8.746  23.037  0.00  0.00    +0.000 HD
ATOM     17  H   UNL     1      -0.893   7.845  21.567  0.00  0.00    +0.000 HD
ENDBRANCH   1  14
BRANCH   6  18
ATOM     18  N   UNL     1       0.439  11.098  19.551  0.00  0.00    +0.000 N 
ATOM     19  C   UNL     1       1.089  12.270  19.878  0.00  0.00    +0.000 C 
ATOM     20  O   UNL     1       2.299  12.467  19.856  0.00  0.00    +0.000 OA
ATOM     21  H   UNL     1      -0.563  11.131  19.369  0.00  0.00    +0.000 HD
BRANCH  19  22
ATOM     22  C   UNL     1       0.206  13.421  20.278  0.00  0.00    +0.000 C 
ATOM     23  C   UNL     1      -1.102  13.618  19.519  0.00  0.00    +0.000 C 
ATOM     24  C   UNL     1       0.047  14.523  19.222  0.00  0.00    +0.000 C 
BRANCH  22  25
ATOM     25  C   UNL     1       0.233  13.849  21.738  0.00  0.00    +0.000 C 
BRANCH  25  26
ATOM     26  C   UNL     1      -0.995  13.483  22.552  0.00  0.00    +0.000 A 
ATOM     27  C   UNL     1      -1.910  14.429  23.036  0.00  0.00    +0.000 A 
ATOM     28  C   UNL     1      -3.075  14.030  23.698  0.00  0.00    +0.000 A 
ATOM     29  C   UNL     1      -3.352  12.678  23.877  0.00  0.00    +0.000 A 
ATOM     30  C   UNL     1      -2.457  11.723  23.402  0.00  0.00    +0.000 A 
ATOM     31  C   UNL     1      -1.290  12.122  22.744  0.00  0.00    +0.000 A 
ENDBRANCH  25  26
ENDBRANCH  22  25
ENDBRANCH  19  22
ENDBRANCH   6  18
TORSDOF 6
ENDMDL
MODEL 5
REMARK VINA RESULT:      -7.7      2.315      8.735
REMARK  Name = 
REMARK  6 active torsions:
REMARK  status: ('A' for Active; 'I' for Inactive)
REMARK    1  A    between atoms: C_2  and  C_4
REMARK    2  A    between atoms: C_6  and  N_7
REMARK    3  A    between atoms: C_15  and  N_16
REMARK    4  A    between atoms: C_17  and  C_19
REMARK    5  A    between atoms: C_19  and  C_20
REMARK    6  A    between atoms: C_20  and  C_21
REMARK                            x       y       z     vdW  Elec       q    Type
REMARK                         _______ _______ _______ _____ _____    ______ ____
ROOT
ATOM      1  C   UNL     1       1.184   8.398  21.003  0.00  0.00    +0.000 A 
ATOM      2  C   UNL     1       1.434   7.009  20.910  0.00  0.00    +0.000 A 
ATOM      3  C   UNL     1       1.929   6.404  19.744  0.00  0.00    +0.000 A 
ATOM      4  C   UNL     1       2.146   7.249  18.659  0.00  0.00    +0.000 A 
ATOM      5  C   UNL     1       1.909   8.621  18.730  0.00  0.00    +0.000 A 
ATOM      6  C   UNL     1       1.408   9.223  19.884  0.00  0.00    +0.000 A 
ENDROOT
BRANCH   3   7
ATOM      7  N   UNL     1       2.220   5.057  19.676  0.00  0.00    +0.000 N 
ATOM      8  C   UNL     1       2.731   4.419  18.463  0.00  0.00    +0.000 C 
ATOM      9  C   UNL     1       1.832   3.234  18.118  0.00  0.00    +0.000 C 
ATOM     10  C   UNL     1       1.726   2.266  19.297  0.00  0.00    +0.000 C 
ATOM     11  C   UNL     1       1.293   2.989  20.570  0.00  0.00    +0.000 C 
ATOM     12  C   UNL     1       2.183   4.196  20.864  0.00  0.00    +0.000 C 
ENDBRANCH   3   7
BRANCH   1  14
ATOM     13  N   UNL     1      -0.657   8.679  22.604  0.00  0.00    +0.000 N 
ATOM     14  C   UNL     1       0.648   8.958  22.277  0.00  0.00    +0.000 C 
ATOM     15  O   UNL     1       1.344   9.619  23.039  0.00  0.00    +0.000 OA
ATOM     16  H   UNL     1      -0.995   9.035  23.490  0.00  0.00    +0.000 HD
ATOM     17  H   UNL     1      -1.190   7.942  22.165  0.00  0.00    +0.000 HD
ENDBRANCH   1  14
BRANCH   6  18
ATOM     18  N   UNL     1       1.177  10.628  19.921  0.00  0.00    +0.000 N 
ATOM     19  C   UNL     1       0.042  11.260  19.458  0.00  0.00    +0.000 C 
ATOM     20  O   UNL     1      -1.004  10.725  19.110  0.00  0.00    +0.000 OA
ATOM     21  H   UNL     1       1.880  11.183  20.407  0.00  0.00    +0.000 HD
BRANCH  19  22
ATOM     22  C   UNL     1       0.104  12.763  19.404  0.00  0.00    +0.000 C 
ATOM     23  C   UNL     1      -0.436  13.457  18.157  0.00  0.00    +0.000 C 
ATOM     24  C   UNL     1       1.042  13.342  18.336  0.00  0.00    +0.000 C 
BRANCH  22  25
ATOM     25  C   UNL     1      -0.007  13.516  20.721  0.00  0.00    +0.000 C 
BRANCH  25  26
ATOM     26  C   UNL     1      -1.244  13.212  21.548  0.00  0.00    +0.000 A 
ATOM     27  C   UNL     1      -2.521  13.700  21.235  0.00  0.00    +0.000 A 
ATOM     28  C   UNL     1      -3.641  13.311  21.976  0.00  0.00    +0.000 A 
ATOM     29  C   UNL     1      -3.506  12.418  23.035  0.00  0.00    +0.000 A 
ATOM     30  C   UNL     1      -2.247  11.921  23.361  0.00  0.00    +0.000 A 
ATOM     31  C   UNL     1      -1.127  12.313  22.622  0.00  0.00    +0.000 A 
ENDBRANCH  25  26
ENDBRANCH  22  25
ENDBRANCH  19  22
ENDBRANCH   6  18
TORSDOF 6
ENDMDL
MODEL 6
REMARK VINA RESULT:      -7.6      2.672      8.337
REMARK  Name = 
REMARK  6 active torsions:
REMARK  status: ('A' for Active; 'I' for Inactive)
REMARK    1  A    between atoms: C_2  and  C_4
REMARK    2  A    between atoms: C_6  and  N_7
REMARK    3  A    between atoms: C_15  and  N_16
REMARK    4  A    between atoms: C_17  and  C_19
REMARK    5  A    between atoms: C_19  and  C_20
REMARK    6  A    between atoms: C_20  and  C_21
REMARK                            x       y       z     vdW  Elec       q    Type
REMARK                         _______ _______ _______ _____ _____    ______ ____
ROOT
ATOM      1  C   UNL     1       1.448   8.422  20.251  0.00  0.00    +0.000 A 
ATOM      2  C   UNL     1       2.120   7.216  19.940  0.00  0.00    +0.000 A 
ATOM      3  C   UNL     1       2.680   6.964  18.678  0.00  0.00    +0.000 A 
ATOM      4  C   UNL     1       2.522   7.967  17.725  0.00  0.00    +0.000 A 
ATOM      5  C   UNL     1       1.866   9.164  18.011  0.00  0.00    +0.000 A 
ATOM      6  C   UNL     1       1.300   9.412  19.262  0.00  0.00    +0.000 A 
ENDROOT
BRANCH   3   7
ATOM      7  N   UNL     1       3.380   5.809  18.396  0.00  0.00    +0.000 N 
ATOM      8  C   UNL     1       4.794   5.812  18.022  0.00  0.00    +0.000 C 
ATOM      9  C   UNL     1       4.953   5.054  16.706  0.00  0.00    +0.000 C 
ATOM     10  C   UNL     1       4.371   3.644  16.813  0.00  0.00    +0.000 C 
ATOM     11  C   UNL     1       2.928   3.676  17.309  0.00  0.00    +0.000 C 
ATOM     12  C   UNL     1       2.793   4.479  18.602  0.00  0.00    +0.000 C 
ENDBRANCH   3   7
BRANCH   1  14
ATOM     13  N   UNL     1       1.733   8.931  22.636  0.00  0.00    +0.000 N 
ATOM     14  C   UNL     1       0.874   8.604  21.615  0.00  0.00    +0.000 C 
ATOM     15  O   UNL     1      -0.328   8.501  21.833  0.00  0.00    +0.000 OA
ATOM     16  H   UNL     1       1.324   9.087  23.550  0.00  0.00    +0.000 HD
ATOM     17  H   UNL     1       2.668   9.281  22.481  0.00  0.00    +0.000 HD
ENDBRANCH   1  14
BRANCH   6  18
ATOM     18  N   UNL     1       0.637  10.646  19.519  0.00  0.00    +0.000 N 
ATOM     19  C   UNL     1      -0.625  10.979  19.074  0.00  0.00    +0.000 C 
ATOM     20  O   UNL     1      -1.438  10.226  18.548  0.00  0.00    +0.000 OA
ATOM     21  H   UNL     1       1.114  11.286  20.154  0.00  0.00    +0.000 HD
BRANCH  19  22
ATOM     22  C   UNL     1      -1.040  12.410  19.284  0.00  0.00    +0.000 C 
ATOM     23  C   UNL     1      -1.211  12.903  20.717  0.00  0.00    +0.000 C 
ATOM     24  C   UNL     1      -2.429  12.605  19.906  0.00  0.00    +0.000 C 
BRANCH  22  25
ATOM     25  C   UNL     1      -0.587  13.428  18.248  0.00  0.00    +0.000 C 
BRANCH  25  26
ATOM     26  C   UNL     1       0.753  14.088  18.518  0.00  0.00    +0.000 A 
ATOM     27  C   UNL     1       1.984  13.480  18.232  0.00  0.00    +0.000 A 
ATOM     28  C   UNL     1       3.186  14.171  18.411  0.00  0.00    +0.000 A 
ATOM     29  C   UNL     1       3.178  15.485  18.869  0.00  0.00    +0.000 A 
ATOM     30  C   UNL     1       1.967  16.107  19.157  0.00  0.00    +0.000 A 
ATOM     31  C   UNL     1       0.765  15.415  18.981  0.00  0.00    +0.000 A 
ENDBRANCH  25  26
ENDBRANCH  22  25
ENDBRANCH  19  22
ENDBRANCH   6  18
TORSDOF 6
ENDMDL
MODEL 7
REMARK VINA RESULT:      -7.6      1.878      4.262
REMARK  Name = 
REMARK  6 active torsions:
REMARK  status: ('A' for Active; 'I' for Inactive)
REMARK    1  A    between atoms: C_2  and  C_4
REMARK    2  A    between atoms: C_6  and  N_7
REMARK    3  A    between atoms: C_15  and  N_16
REMARK    4  A    between atoms: C_17  and  C_19
REMARK    5  A    between atoms: C_19  and  C_20
REMARK    6  A    between atoms: C_20  and  C_21
REMARK                            x       y       z     vdW  Elec       q    Type
REMARK                         _______ _______ _______ _____ _____    ______ ____
ROOT
ATOM      1  C   UNL     1       2.245   7.090  19.399  0.00  0.00    +0.000 A 
ATOM      2  C   UNL     1       1.543   8.184  19.958  0.00  0.00    +0.000 A 
ATOM      3  C   UNL     1       1.388   9.407  19.289  0.00  0.00    +0.000 A 
ATOM      4  C   UNL     1       1.986   9.501  18.035  0.00  0.00    +0.000 A 
ATOM      5  C   UNL     1       2.680   8.435  17.464  0.00  0.00    +0.000 A 
ATOM      6  C   UNL     1       2.844   7.221  18.132  0.00  0.00    +0.000 A 
ENDROOT
BRANCH   3   7
ATOM      7  N   UNL     1       0.658  10.452  19.817  0.00  0.00    +0.000 N 
ATOM      8  C   UNL     1       0.884  11.847  19.436  0.00  0.00    +0.000 C 
ATOM      9  C   UNL     1       1.116  12.668  20.702  0.00  0.00    +0.000 C 
ATOM     10  C   UNL     1      -0.046  12.502  21.682  0.00  0.00    +0.000 C 
ATOM     11  C   UNL     1      -0.320  11.029  21.972  0.00  0.00    +0.000 C 
ATOM     12  C   UNL     1      -0.503  10.225  20.686  0.00  0.00    +0.000 C 
ENDBRANCH   3   7
BRANCH   1  14
ATOM     13  N   UNL     1       1.224   5.280  20.708  0.00  0.00    +0.000 N 
ATOM     14  C   UNL     1       2.370   5.828  20.184  0.00  0.00    +0.000 C 
ATOM     15  O   UNL     1       3.447   5.263  20.338  0.00  0.00    +0.000 OA
ATOM     16  H   UNL     1       1.320   4.404  21.207  0.00  0.00    +0.000 HD
ATOM     17  H   UNL     1       0.298   5.543  20.404  0.00  0.00    +0.000 HD
ENDBRANCH   1  14
BRANCH   6  18
ATOM     18  N   UNL     1       3.559   6.153  17.518  0.00  0.00    +0.000 N 
ATOM     19  C   UNL     1       4.930   6.006  17.526  0.00  0.00    +0.000 C 
ATOM     20  O   UNL     1       5.732   6.651  18.192  0.00  0.00    +0.000 OA
ATOM     21  H   UNL     1       2.991   5.406  17.121  0.00  0.00    +0.000 HD
BRANCH  19  22
ATOM     22  C   UNL     1       5.480   4.922  16.638  0.00  0.00    +0.000 C 
ATOM     23  C   UNL     1       6.961   4.580  16.759  0.00  0.00    +0.000 C 
ATOM     24  C   UNL     1       6.500   5.388  15.590  0.00  0.00    +0.000 C 
BRANCH  22  25
ATOM     25  C   UNL     1       4.536   3.796  16.244  0.00  0.00    +0.000 C 
BRANCH  25  26
ATOM     26  C   UNL     1       3.660   3.253  17.359  0.00  0.00    +0.000 A 
ATOM     27  C   UNL     1       2.259   3.279  17.322  0.00  0.00    +0.000 A 
ATOM     28  C   UNL     1       1.502   2.678  18.332  0.00  0.00    +0.000 A 
ATOM     29  C   UNL     1       2.132   2.031  19.391  0.00  0.00    +0.000 A 
ATOM     30  C   UNL     1       3.523   1.993  19.445  0.00  0.00    +0.000 A 
ATOM     31  C   UNL     1       4.280   2.597  18.437  0.00  0.00    +0.000 A 
ENDBRANCH  25  26
ENDBRANCH  22  25
ENDBRANCH  19  22
ENDBRANCH   6  18
TORSDOF 6
ENDMDL
MODEL 8
REMARK VINA RESULT:      -7.6      0.856      1.380
REMARK  Name = 
REMARK  6 active torsions:
REMARK  status: ('A' for Active; 'I' for Inactive)
REMARK    1  A    between atoms: C_2  and  C_4
REMARK    2  A    between atoms: C_6  and  N_7
REMARK    3  A    between atoms: C_15  and  N_16
REMARK    4  A    between atoms: C_17  and  C_19
REMARK    5  A    between atoms: C_19  and  C_20
REMARK    6  A    between atoms: C_20  and  C_21
REMARK                            x       y       z     vdW  Elec       q    Type
REMARK                         _______ _______ _______ _____ _____    ______ ____
ROOT
ATOM      1  C   UNL     1       1.358   9.218  19.420  0.00  0.00    +0.000 A 
ATOM      2  C   UNL     1       0.435  10.217  19.810  0.00  0.00    +0.000 A 
ATOM      3  C   UNL     1      -0.220  10.200  21.051  0.00  0.00    +0.000 A 
ATOM      4  C   UNL     1       0.072   9.124  21.886  0.00  0.00    +0.000 A 
ATOM      5  C   UNL     1       0.980   8.131  21.522  0.00  0.00    +0.000 A 
ATOM      6  C   UNL     1       1.625   8.140  20.285  0.00  0.00    +0.000 A 
ENDROOT
BRANCH   3   7
ATOM      7  N   UNL     1      -1.079  11.205  21.447  0.00  0.00    +0.000 N 
ATOM      8  C   UNL     1      -1.931  11.934  20.507  0.00  0.00    +0.000 C 
ATOM      9  C   UNL     1      -1.682  13.430  20.681  0.00  0.00    +0.000 C 
ATOM     10  C   UNL     1      -1.902  13.856  22.133  0.00  0.00    +0.000 C 
ATOM     11  C   UNL     1      -1.078  13.001  23.093  0.00  0.00    +0.000 C 
ATOM     12  C   UNL     1      -1.314  11.509  22.864  0.00  0.00    +0.000 C 
ENDBRANCH   3   7
BRANCH   1  14
ATOM     13  N   UNL     1       2.082  10.543  17.483  0.00  0.00    +0.000 N 
ATOM     14  C   UNL     1       2.003   9.307  18.078  0.00  0.00    +0.000 C 
ATOM     15  O   UNL     1       2.482   8.326  17.522  0.00  0.00    +0.000 OA
ATOM     16  H   UNL     1       2.555  10.594  16.589  0.00  0.00    +0.000 HD
ATOM     17  H   UNL     1       1.949  11.408  17.988  0.00  0.00    +0.000 HD
ENDBRANCH   1  14
BRANCH   6  18
ATOM     18  N   UNL     1       2.547   7.108  19.947  0.00  0.00    +0.000 N 
ATOM     19  C   UNL     1       2.214   5.792  19.706  0.00  0.00    +0.000 C 
ATOM     20  O   UNL     1       1.085   5.335  19.571  0.00  0.00    +0.000 OA
ATOM     21  H   UNL     1       3.510   7.403  19.792  0.00  0.00    +0.000 HD
BRANCH  19  22
ATOM     22  C   UNL     1       3.369   4.836  19.575  0.00  0.00    +0.000 C 
ATOM     23  C   UNL     1       3.104   3.475  18.938  0.00  0.00    +0.000 C 
ATOM     24  C   UNL     1       3.263   3.560  20.421  0.00  0.00    +0.000 C 
BRANCH  22  25
ATOM     25  C   UNL     1       4.754   5.435  19.383  0.00  0.00    +0.000 C 
BRANCH  25  26
ATOM     26  C   UNL     1       5.343   5.293  17.991  0.00  0.00    +0.000 A 
ATOM     27  C   UNL     1       4.760   5.853  16.845  0.00  0.00    +0.000 A 
ATOM     28  C   UNL     1       5.396   5.773  15.602  0.00  0.00    +0.000 A 
ATOM     29  C   UNL     1       6.631   5.142  15.485  0.00  0.00    +0.000 A 
ATOM     30  C   UNL     1       7.227   4.581  16.611  0.00  0.00    +0.000 A 
ATOM     31  C   UNL     1       6.590   4.657  17.853  0.00  0.00    +0.000 A 
ENDBRANCH  25  26
ENDBRANCH  22  25
ENDBRANCH  19  22
ENDBRANCH   6  18
TORSDOF 6
ENDMDL
MODEL 9
REMARK VINA RESULT:      -7.6      1.972      8.968
REMARK  Name = 
REMARK  6 active torsions:
REMARK  status: ('A' for Active; 'I' for Inactive)
REMARK    1  A    between atoms: C_2  and  C_4
REMARK    2  A    between atoms: C_6  and  N_7
REMARK    3  A    between atoms: C_15  and  N_16
REMARK    4  A    between atoms: C_17  and  C_19
REMARK    5  A    between atoms: C_19  and  C_20
REMARK    6  A    between atoms: C_20  and  C_21
REMARK                            x       y       z     vdW  Elec       q    Type
REMARK                         _______ _______ _______ _____ _____    ______ ____
ROOT
ATOM      1  C   UNL     1       1.319   8.795  20.240  0.00  0.00    +0.000 A 
ATOM      2  C   UNL     1       1.968   7.571  19.950  0.00  0.00    +0.000 A 
ATOM      3  C   UNL     1       2.444   7.251  18.670  0.00  0.00    +0.000 A 
ATOM      4  C   UNL     1       2.225   8.203  17.677  0.00  0.00    +0.000 A 
ATOM      5  C   UNL     1       1.591   9.416  17.942  0.00  0.00    +0.000 A 
ATOM      6  C   UNL     1       1.108   9.733  19.212  0.00  0.00    +0.000 A 
ENDROOT
BRANCH   3   7
ATOM      7  N   UNL     1       3.122   6.078  18.404  0.00  0.00    +0.000 N 
ATOM      8  C   UNL     1       2.438   4.809  18.154  0.00  0.00    +0.000 C 
ATOM      9  C   UNL     1       2.996   3.757  19.110  0.00  0.00    +0.000 C 
ATOM     10  C   UNL     1       4.516   3.649  18.978  0.00  0.00    +0.000 C 
ATOM     11  C   UNL     1       5.185   5.011  19.138  0.00  0.00    +0.000 C 
ATOM     12  C   UNL     1       4.575   6.053  18.202  0.00  0.00    +0.000 C 
ENDBRANCH   3   7
BRANCH   1  14
ATOM     13  N   UNL     1      -0.384   8.531  21.990  0.00  0.00    +0.000 N 
ATOM     14  C   UNL     1       0.835   9.051  21.628  0.00  0.00    +0.000 C 
ATOM     15  O   UNL     1       1.504   9.674  22.444  0.00  0.00    +0.000 OA
ATOM     16  H   UNL     1      -0.682   8.682  22.946  0.00  0.00    +0.000 HD
ATOM     17  H   UNL     1      -0.852   7.806  21.466  0.00  0.00    +0.000 HD
ENDBRANCH   1  14
BRANCH   6  18
ATOM     18  N   UNL     1       0.465  10.981  19.446  0.00  0.00    +0.000 N 
ATOM     19  C   UNL     1       1.110  12.179  19.669  0.00  0.00    +0.000 C 
ATOM     20  O   UNL     1       2.307  12.403  19.531  0.00  0.00    +0.000 OA
ATOM     21  H   UNL     1      -0.551  10.984  19.353  0.00  0.00    +0.000 HD
BRANCH  19  22
ATOM     22  C   UNL     1       0.236  13.326  20.101  0.00  0.00    +0.000 C 
ATOM     23  C   UNL     1      -1.097  13.519  19.386  0.00  0.00    +0.000 C 
ATOM     24  C   UNL     1       0.038  14.431  19.055  0.00  0.00    +0.000 C 
BRANCH  22  25
ATOM     25  C   UNL     1       0.309  13.749  21.561  0.00  0.00    +0.000 C 
BRANCH  25  26
ATOM     26  C   UNL     1      -0.912  13.423  22.401  0.00  0.00    +0.000 A 
ATOM     27  C   UNL     1      -1.828  14.389  22.840  0.00  0.00    +0.000 A 
ATOM     28  C   UNL     1      -2.988  14.021  23.529  0.00  0.00    +0.000 A 
ATOM     29  C   UNL     1      -3.257  12.679  23.782  0.00  0.00    +0.000 A 
ATOM     30  C   UNL     1      -2.361  11.704  23.353  0.00  0.00    +0.000 A 
ATOM     31  C   UNL     1      -1.200  12.073  22.667  0.00  0.00    +0.000 A 
ENDBRANCH  25  26
ENDBRANCH  22  25
ENDBRANCH  19  22
ENDBRANCH   6  18
TORSDOF 6
ENDMDL
