MODEL 1
REMARK VINA RESULT:      -9.5      0.000      0.000
REMARK  Name = 
REMARK  4 active torsions:
REMARK  status: ('A' for Active; 'I' for Inactive)
REMARK    1  A    between atoms: C_2  and  C_20
REMARK    2  A    between atoms: N_3  and  C_4
REMARK    3  A    between atoms: C_8  and  C_9
REMARK    4  A    between atoms: C_23  and  N_24
REMARK                            x       y       z     vdW  Elec       q    Type
REMARK                         _______ _______ _______ _____ _____    ______ ____
ROOT
ATOM      1  C   UNL     1       1.873   5.796  20.572  0.00  0.00    +0.000 A 
ATOM      2  C   UNL     1       1.157   4.598  20.502  0.00  0.00    +0.000 A 
ATOM      3  C   UNL     1       1.773   3.418  20.107  0.00  0.00    +0.000 A 
ATOM      4  C   UNL     1       3.110   3.435  19.739  0.00  0.00    +0.000 A 
ATOM      5  C   UNL     1       3.817   4.643  19.662  0.00  0.00    +0.000 A 
ATOM      6  C   UNL     1       3.201   5.821  20.118  0.00  0.00    +0.000 A 
ENDROOT
BRANCH   5   7
ATOM      7  C   UNL     1       5.161   4.681  19.079  0.00  0.00    +0.000 A 
ATOM      8  N   UNL     1       6.302   4.689  19.738  0.00  0.00    +0.000 NA
ATOM      9  N   UNL     1       7.331   4.707  18.829  0.00  0.00    +0.000 NA
ATOM     10  C   UNL     1       6.818   4.741  17.618  0.00  0.00    +0.000 A 
ATOM     11  N   UNL     1       5.449   4.777  17.728  0.00  0.00    +0.000 N 
ATOM     12  C   UNL     1       4.487   4.926  16.653  0.00  0.00    +0.000 C 
ATOM     13  C   UNL     1       4.919   5.856  15.533  0.00  0.00    +0.000 C 
ATOM     14  C   UNL     1       5.860   5.198  14.529  0.00  0.00    +0.000 C 
ATOM     15  C   UNL     1       6.879   4.226  15.126  0.00  0.00    +0.000 C 
ATOM     16  C   UNL     1       7.607   4.775  16.348  0.00  0.00    +0.000 C 
ENDBRANCH   5   7
BRANCH   1  19
ATOM     17  O   UNL     1       1.815   8.448  19.324  0.00  0.00    +0.000 OA
ATOM     18  C   UNL     1       1.335   8.212  20.428  0.00  0.00    +0.000 C 
ATOM     19  N   UNL     1       1.305   6.988  21.078  0.00  0.00    +0.000 N 
ATOM     20  H   UNL     1       0.700   6.894  21.885  0.00  0.00    +0.000 HD
BRANCH  18  21
ATOM     21  C   UNL     1       0.663   9.338  21.115  0.00  0.00    +0.000 A 
ATOM     22  C   UNL     1      -0.015   9.052  22.307  0.00  0.00    +0.000 A 
ATOM     23  C   UNL     1      -0.738  10.043  22.967  0.00  0.00    +0.000 A 
ATOM     24  C   UNL     1      -0.799  11.332  22.425  0.00  0.00    +0.000 A 
ATOM     25  C   UNL     1      -0.119  11.620  21.227  0.00  0.00    +0.000 A 
ATOM     26  C   UNL     1       0.614  10.623  20.572  0.00  0.00    +0.000 A 
BRANCH  24  27
ATOM     27  N   UNL     1      -1.561  12.342  23.059  0.00  0.00    +0.000 N 
ATOM     28  C   UNL     1      -1.234  13.651  23.309  0.00  0.00    +0.000 A 
ATOM     29  N   UNL     1      -2.228  14.233  23.940  0.00  0.00    +0.000 NA
ATOM     30  N   UNL     1      -3.192  13.272  24.082  0.00  0.00    +0.000 NA
ATOM     31  N   UNL     1      -2.803  12.123  23.546  0.00  0.00    +0.000 NA
ENDBRANCH  24  27
ENDBRANCH  18  21
ENDBRANCH   1  19
TORSDOF 4
ENDMDL
MODEL 2
REMARK VINA RESULT:      -9.4      0.494      1.135
REMARK  Name = 
REMARK  4 active torsions:
REMARK  status: ('A' for Active; 'I' for Inactive)
REMARK    1  A    between atoms: C_2  and  C_20
REMARK    2  A    between atoms: N_3  and  C_4
REMARK    3  A    between atoms: C_8  and  C_9
REMARK    4  A    between atoms: C_23  and  N_24
REMARK                            x       y       z     vdW  Elec       q    Type
REMARK                         _______ _______ _______ _____ _____    ______ ____
ROOT
ATOM      1  C   UNL     1       1.840   5.605  20.573  0.00  0.00    +0.000 A 
ATOM      2  C   UNL     1       1.177   4.376  20.506  0.00  0.00    +0.000 A 
ATOM      3  C   UNL     1       1.846   3.223  20.116  0.00  0.00    +0.000 A 
ATOM      4  C   UNL     1       3.181   3.298  19.749  0.00  0.00    +0.000 A 
ATOM      5  C   UNL     1       3.833   4.536  19.669  0.00  0.00    +0.000 A 
ATOM      6  C   UNL     1       3.165   5.686  20.121  0.00  0.00    +0.000 A 
ENDROOT
BRANCH   5   7
ATOM      7  C   UNL     1       5.176   4.631  19.088  0.00  0.00    +0.000 A 
ATOM      8  N   UNL     1       6.313   4.700  19.749  0.00  0.00    +0.000 NA
ATOM      9  N   UNL     1       7.343   4.757  18.842  0.00  0.00    +0.000 NA
ATOM     10  C   UNL     1       6.831   4.755  17.629  0.00  0.00    +0.000 A 
ATOM     11  N   UNL     1       5.462   4.727  17.737  0.00  0.00    +0.000 N 
ATOM     12  C   UNL     1       4.496   4.820  16.659  0.00  0.00    +0.000 C 
ATOM     13  C   UNL     1       4.886   5.759  15.531  0.00  0.00    +0.000 C 
ATOM     14  C   UNL     1       5.859   5.136  14.535  0.00  0.00    +0.000 C 
ATOM     15  C   UNL     1       6.921   4.219  15.143  0.00  0.00    +0.000 C 
ATOM     16  C   UNL     1       7.621   4.814  16.360  0.00  0.00    +0.000 C 
ENDBRANCH   5   7
BRANCH   1  19
ATOM     17  O   UNL     1       1.851   8.301  19.422  0.00  0.00    +0.000 OA
ATOM     18  C   UNL     1       1.286   8.019  20.474  0.00  0.00    +0.000 C 
ATOM     19  N   UNL     1       1.219   6.772  21.075  0.00  0.00    +0.000 N 
ATOM     20  H   UNL     1       0.552   6.643  21.827  0.00  0.00    +0.000 HD
BRANCH  18  21
ATOM     21  C   UNL     1       0.548   9.113  21.145  0.00  0.00    +0.000 A 
ATOM     22  C   UNL     1       0.456  10.336  20.470  0.00  0.00    +0.000 A 
ATOM     23  C   UNL     1      -0.153  11.435  21.072  0.00  0.00    +0.000 A 
ATOM     24  C   UNL     1      -0.664  11.318  22.370  0.00  0.00    +0.000 A 
ATOM     25  C   UNL     1      -0.572  10.089  23.049  0.00  0.00    +0.000 A 
ATOM     26  C   UNL     1       0.033   8.985  22.437  0.00  0.00    +0.000 A 
BRANCH  24  27
ATOM     27  N   UNL     1      -1.251  12.433  23.014  0.00  0.00    +0.000 N 
ATOM     28  C   UNL     1      -2.559  12.643  23.371  0.00  0.00    +0.000 A 
ATOM     29  N   UNL     1      -2.671  13.826  23.930  0.00  0.00    +0.000 NA
ATOM     30  N   UNL     1      -1.411  14.361  23.924  0.00  0.00    +0.000 NA
ATOM     31  N   UNL     1      -0.540  13.524  23.377  0.00  0.00    +0.000 NA
ENDBRANCH  24  27
ENDBRANCH  18  21
ENDBRANCH   1  19
TORSDOF 4
ENDMDL
MODEL 3
REMARK VINA RESULT:      -9.0      6.158      8.190
REMARK  Name = 
REMARK  4 active torsions:
REMARK  status: ('A' for Active; 'I' for Inactive)
REMARK    1  A    between atoms: C_2  and  C_20
REMARK    2  A    between atoms: N_3  and  C_4
REMARK    3  A    between atoms: C_8  and  C_9
REMARK    4  A    between atoms: C_23  and  N_24
REMARK                            x       y       z     vdW  Elec       q    Type
REMARK                         _______ _______ _______ _____ _____    ______ ____
ROOT
ATOM      1  C   UNL     1       6.652   6.527  16.880  0.00  0.00    +0.000 A 
ATOM      2  C   UNL     1       6.735   5.938  15.615  0.00  0.00    +0.000 A 
ATOM      3  C   UNL     1       6.107   4.729  15.347  0.00  0.00    +0.000 A 
ATOM      4  C   UNL     1       5.421   4.075  16.360  0.00  0.00    +0.000 A 
ATOM      5  C   UNL     1       5.441   4.567  17.672  0.00  0.00    +0.000 A 
ATOM      6  C   UNL     1       6.029   5.819  17.919  0.00  0.00    +0.000 A 
ENDROOT
BRANCH   5   7
ATOM      7  C   UNL     1       4.891   3.770  18.772  0.00  0.00    +0.000 A 
ATOM      8  N   UNL     1       5.570   3.001  19.599  0.00  0.00    +0.000 NA
ATOM      9  N   UNL     1       4.694   2.445  20.498  0.00  0.00    +0.000 NA
ATOM     10  C   UNL     1       3.478   2.850  20.201  0.00  0.00    +0.000 A 
ATOM     11  N   UNL     1       3.548   3.650  19.085  0.00  0.00    +0.000 N 
ATOM     12  C   UNL     1       2.440   4.227  18.350  0.00  0.00    +0.000 C 
ATOM     13  C   UNL     1       1.211   3.341  18.248  0.00  0.00    +0.000 C 
ATOM     14  C   UNL     1       0.333   3.378  19.495  0.00  0.00    +0.000 C 
ATOM     15  C   UNL     1       1.086   3.458  20.823  0.00  0.00    +0.000 C 
ATOM     16  C   UNL     1       2.235   2.463  20.938  0.00  0.00    +0.000 C 
ENDBRANCH   5   7
BRANCH   1  19
ATOM     17  O   UNL     1       8.584   7.288  18.950  0.00  0.00    +0.000 OA
ATOM     18  C   UNL     1       8.084   8.089  18.167  0.00  0.00    +0.000 C 
ATOM     19  N   UNL     1       7.182   7.810  17.153  0.00  0.00    +0.000 N 
ATOM     20  H   UNL     1       7.013   8.527  16.457  0.00  0.00    +0.000 HD
BRANCH  18  21
ATOM     21  C   UNL     1       8.537   9.494  18.275  0.00  0.00    +0.000 A 
ATOM     22  C   UNL     1       9.409   9.810  19.325  0.00  0.00    +0.000 A 
ATOM     23  C   UNL     1       9.814  11.126  19.539  0.00  0.00    +0.000 A 
ATOM     24  C   UNL     1       9.333  12.142  18.705  0.00  0.00    +0.000 A 
ATOM     25  C   UNL     1       8.457  11.826  17.650  0.00  0.00    +0.000 A 
ATOM     26  C   UNL     1       8.059  10.501  17.434  0.00  0.00    +0.000 A 
BRANCH  24  27
ATOM     27  N   UNL     1       9.701  13.490  18.931  0.00  0.00    +0.000 N 
ATOM     28  C   UNL     1       9.535  14.585  18.120  0.00  0.00    +0.000 A 
ATOM     29  N   UNL     1      10.041  15.642  18.711  0.00  0.00    +0.000 NA
ATOM     30  N   UNL     1      10.528  15.200  19.912  0.00  0.00    +0.000 NA
ATOM     31  N   UNL     1      10.322  13.898  20.060  0.00  0.00    +0.000 NA
ENDBRANCH  24  27
ENDBRANCH  18  21
ENDBRANCH   1  19
TORSDOF 4
ENDMDL
MODEL 4
REMARK VINA RESULT:      -8.9      6.160      8.356
REMARK  Name = 
REMARK  4 active torsions:
REMARK  status: ('A' for Active; 'I' for Inactive)
REMARK    1  A    between atoms: C_2  and  C_20
REMARK    2  A    between atoms: N_3  and  C_4
REMARK    3  A    between atoms: C_8  and  C_9
REMARK    4  A    between atoms: C_23  and  N_24
REMARK                            x       y       z     vdW  Elec       q    Type
REMARK                         _______ _______ _______ _____ _____    ______ ____
ROOT
ATOM      1  C   UNL     1       6.599   6.551  16.889  0.00  0.00    +0.000 A 
ATOM      2  C   UNL     1       6.684   5.982  15.614  0.00  0.00    +0.000 A 
ATOM      3  C   UNL     1       6.068   4.771  15.329  0.00  0.00    +0.000 A 
ATOM      4  C   UNL     1       5.393   4.094  16.334  0.00  0.00    +0.000 A 
ATOM      5  C   UNL     1       5.411   4.566  17.653  0.00  0.00    +0.000 A 
ATOM      6  C   UNL     1       5.987   5.821  17.918  0.00  0.00    +0.000 A 
ENDROOT
BRANCH   5   7
ATOM      7  C   UNL     1       4.874   3.747  18.743  0.00  0.00    +0.000 A 
ATOM      8  N   UNL     1       5.558   2.939  19.528  0.00  0.00    +0.000 NA
ATOM      9  N   UNL     1       4.693   2.373  20.432  0.00  0.00    +0.000 NA
ATOM     10  C   UNL     1       3.478   2.811  20.179  0.00  0.00    +0.000 A 
ATOM     11  N   UNL     1       3.537   3.643  19.087  0.00  0.00    +0.000 N 
ATOM     12  C   UNL     1       2.422   4.263  18.398  0.00  0.00    +0.000 C 
ATOM     13  C   UNL     1       1.173   3.405  18.302  0.00  0.00    +0.000 C 
ATOM     14  C   UNL     1       0.328   3.421  19.571  0.00  0.00    +0.000 C 
ATOM     15  C   UNL     1       1.116   3.446  20.882  0.00  0.00    +0.000 C 
ATOM     16  C   UNL     1       2.248   2.425  20.936  0.00  0.00    +0.000 C 
ENDBRANCH   5   7
BRANCH   1  19
ATOM     17  O   UNL     1       8.568   7.293  18.929  0.00  0.00    +0.000 OA
ATOM     18  C   UNL     1       8.038   8.104  18.178  0.00  0.00    +0.000 C 
ATOM     19  N   UNL     1       7.115   7.835  17.179  0.00  0.00    +0.000 N 
ATOM     20  H   UNL     1       6.919   8.565  16.505  0.00  0.00    +0.000 HD
BRANCH  18  21
ATOM     21  C   UNL     1       8.472   9.513  18.309  0.00  0.00    +0.000 A 
ATOM     22  C   UNL     1       7.879  10.452  17.455  0.00  0.00    +0.000 A 
ATOM     23  C   UNL     1       8.294  11.782  17.465  0.00  0.00    +0.000 A 
ATOM     24  C   UNL     1       9.324  12.179  18.325  0.00  0.00    +0.000 A 
ATOM     25  C   UNL     1       9.920  11.237  19.184  0.00  0.00    +0.000 A 
ATOM     26  C   UNL     1       9.494   9.903  19.177  0.00  0.00    +0.000 A 
BRANCH  24  27
ATOM     27  N   UNL     1       9.787  13.516  18.322  0.00  0.00    +0.000 N 
ATOM     28  C   UNL     1       9.098  14.677  18.569  0.00  0.00    +0.000 A 
ATOM     29  N   UNL     1       9.911  15.700  18.439  0.00  0.00    +0.000 NA
ATOM     30  N   UNL     1      11.128  15.167  18.109  0.00  0.00    +0.000 NA
ATOM     31  N   UNL     1      11.068  13.845  18.041  0.00  0.00    +0.000 NA
ENDBRANCH  24  27
ENDBRANCH  18  21
ENDBRANCH   1  19
TORSDOF 4
ENDMDL
MODEL 5
REMARK VINA RESULT:      -8.9      5.348      8.381
REMARK  Name = 
REMARK  4 active torsions:
REMARK  status: ('A' for Active; 'I' for Inactive)
REMARK    1  A    between atoms: C_2  and  C_20
REMARK    2  A    between atoms: N_3  and  C_4
REMARK    3  A    between atoms: C_8  and  C_9
REMARK    4  A    between atoms: C_23  and  N_24
REMARK                            x       y       z     vdW  Elec       q    Type
REMARK                         _______ _______ _______ _____ _____    ______ ____
ROOT
ATOM      1  C   UNL     1       6.568   6.243  16.445  0.00  0.00    +0.000 A 
ATOM      2  C   UNL     1       7.245   5.431  15.530  0.00  0.00    +0.000 A 
ATOM      3  C   UNL     1       6.674   4.257  15.057  0.00  0.00    +0.000 A 
ATOM      4  C   UNL     1       5.430   3.863  15.529  0.00  0.00    +0.000 A 
ATOM      5  C   UNL     1       4.792   4.579  16.550  0.00  0.00    +0.000 A 
ATOM      6  C   UNL     1       5.351   5.795  16.979  0.00  0.00    +0.000 A 
ENDROOT
BRANCH   5   7
ATOM      7  C   UNL     1       3.582   4.049  17.185  0.00  0.00    +0.000 A 
ATOM      8  N   UNL     1       2.819   3.076  16.728  0.00  0.00    +0.000 NA
ATOM      9  N   UNL     1       1.799   2.864  17.623  0.00  0.00    +0.000 NA
ATOM     10  C   UNL     1       1.923   3.727  18.609  0.00  0.00    +0.000 A 
ATOM     11  N   UNL     1       3.007   4.530  18.349  0.00  0.00    +0.000 N 
ATOM     12  C   UNL     1       3.449   5.680  19.112  0.00  0.00    +0.000 C 
ATOM     13  C   UNL     1       2.332   6.530  19.692  0.00  0.00    +0.000 C 
ATOM     14  C   UNL     1       1.749   5.963  20.983  0.00  0.00    +0.000 C 
ATOM     15  C   UNL     1       1.631   4.440  21.035  0.00  0.00    +0.000 C 
ATOM     16  C   UNL     1       1.005   3.830  19.786  0.00  0.00    +0.000 C 
ENDBRANCH   5   7
BRANCH   1  19
ATOM     17  O   UNL     1       8.223   6.852  18.786  0.00  0.00    +0.000 OA
ATOM     18  C   UNL     1       7.838   7.704  17.993  0.00  0.00    +0.000 C 
ATOM     19  N   UNL     1       7.071   7.499  16.857  0.00  0.00    +0.000 N 
ATOM     20  H   UNL     1       7.001   8.256  16.188  0.00  0.00    +0.000 HD
BRANCH  18  21
ATOM     21  C   UNL     1       8.288   9.093  18.240  0.00  0.00    +0.000 A 
ATOM     22  C   UNL     1       7.781  10.093  17.399  0.00  0.00    +0.000 A 
ATOM     23  C   UNL     1       8.219  11.410  17.519  0.00  0.00    +0.000 A 
ATOM     24  C   UNL     1       9.187  11.732  18.478  0.00  0.00    +0.000 A 
ATOM     25  C   UNL     1       9.697  10.729  19.322  0.00  0.00    +0.000 A 
ATOM     26  C   UNL     1       9.247   9.408  19.205  0.00  0.00    +0.000 A 
BRANCH  24  27
ATOM     27  N   UNL     1       9.674  13.056  18.588  0.00  0.00    +0.000 N 
ATOM     28  C   UNL     1       9.107  14.145  19.203  0.00  0.00    +0.000 A 
ATOM     29  N   UNL     1       9.891  15.187  19.048  0.00  0.00    +0.000 NA
ATOM     30  N   UNL     1      10.966  14.740  18.328  0.00  0.00    +0.000 NA
ATOM     31  N   UNL     1      10.850  13.449  18.048  0.00  0.00    +0.000 NA
ENDBRANCH  24  27
ENDBRANCH  18  21
ENDBRANCH   1  19
TORSDOF 4
ENDMDL
MODEL 6
REMARK VINA RESULT:      -8.7      1.177      2.149
REMARK  Name = 
REMARK  4 active torsions:
REMARK  status: ('A' for Active; 'I' for Inactive)
REMARK    1  A    between atoms: C_2  and  C_20
REMARK    2  A    between atoms: N_3  and  C_4
REMARK    3  A    between atoms: C_8  and  C_9
REMARK    4  A    between atoms: C_23  and  N_24
REMARK                            x       y       z     vdW  Elec       q    Type
REMARK                         _______ _______ _______ _____ _____    ______ ____
ROOT
ATOM      1  C   UNL     1       1.531   5.102  20.512  0.00  0.00    +0.000 A 
ATOM      2  C   UNL     1       1.075   3.849  20.931  0.00  0.00    +0.000 A 
ATOM      3  C   UNL     1       1.721   2.685  20.536  0.00  0.00    +0.000 A 
ATOM      4  C   UNL     1       2.810   2.763  19.681  0.00  0.00    +0.000 A 
ATOM      5  C   UNL     1       3.203   3.991  19.132  0.00  0.00    +0.000 A 
ATOM      6  C   UNL     1       2.580   5.168  19.582  0.00  0.00    +0.000 A 
ENDROOT
BRANCH   5   7
ATOM      7  C   UNL     1       4.218   4.042  18.076  0.00  0.00    +0.000 A 
ATOM      8  N   UNL     1       4.238   3.325  16.971  0.00  0.00    +0.000 NA
ATOM      9  N   UNL     1       5.341   3.683  16.237  0.00  0.00    +0.000 NA
ATOM     10  C   UNL     1       6.011   4.596  16.908  0.00  0.00    +0.000 A 
ATOM     11  N   UNL     1       5.365   4.817  18.100  0.00  0.00    +0.000 N 
ATOM     12  C   UNL     1       5.807   5.663  19.192  0.00  0.00    +0.000 C 
ATOM     13  C   UNL     1       7.306   5.665  19.432  0.00  0.00    +0.000 C 
ATOM     14  C   UNL     1       8.070   6.581  18.483  0.00  0.00    +0.000 C 
ATOM     15  C   UNL     1       7.546   6.621  17.047  0.00  0.00    +0.000 C 
ATOM     16  C   UNL     1       7.280   5.242  16.452  0.00  0.00    +0.000 C 
ENDBRANCH   5   7
BRANCH   1  19
ATOM     17  O   UNL     1       2.183   7.846  19.712  0.00  0.00    +0.000 OA
ATOM     18  C   UNL     1       1.346   7.574  20.566  0.00  0.00    +0.000 C 
ATOM     19  N   UNL     1       0.967   6.309  20.988  0.00  0.00    +0.000 N 
ATOM     20  H   UNL     1       0.126   6.227  21.545  0.00  0.00    +0.000 HD
BRANCH  18  21
ATOM     21  C   UNL     1       0.618   8.713  21.169  0.00  0.00    +0.000 A 
ATOM     22  C   UNL     1       0.724   9.955  20.530  0.00  0.00    +0.000 A 
ATOM     23  C   UNL     1       0.133  11.090  21.082  0.00  0.00    +0.000 A 
ATOM     24  C   UNL     1      -0.558  10.989  22.295  0.00  0.00    +0.000 A 
ATOM     25  C   UNL     1      -0.664   9.742  22.938  0.00  0.00    +0.000 A 
ATOM     26  C   UNL     1      -0.077   8.602  22.375  0.00  0.00    +0.000 A 
BRANCH  24  27
ATOM     27  N   UNL     1      -1.130  12.137  22.893  0.00  0.00    +0.000 N 
ATOM     28  C   UNL     1      -2.421  12.352  23.306  0.00  0.00    +0.000 A 
ATOM     29  N   UNL     1      -2.525  13.568  23.788  0.00  0.00    +0.000 NA
ATOM     30  N   UNL     1      -1.277  14.120  23.678  0.00  0.00    +0.000 NA
ATOM     31  N   UNL     1      -0.421  13.261  23.143  0.00  0.00    +0.000 NA
ENDBRANCH  24  27
ENDBRANCH  18  21
ENDBRANCH   1  19
TORSDOF 4
ENDMDL
MODEL 7
REMARK VINA RESULT:      -8.6      1.101      1.831
REMARK  Name = 
REMARK  4 active torsions:
REMARK  status: ('A' for Active; 'I' for Inactive)
REMARK    1  A    between atoms: C_2  and  C_20
REMARK    2  A    between atoms: N_3  and  C_4
REMARK    3  A    between atoms: C_8  and  C_9
REMARK    4  A    between atoms: C_23  and  N_24
REMARK                            x       y       z     vdW  Elec       q    Type
REMARK                         _______ _______ _______ _____ _____    ______ ____
ROOT
ATOM      1  C   UNL     1       1.499   5.208  20.487  0.00  0.00    +0.000 A 
ATOM      2  C   UNL     1       1.012   3.966  20.907  0.00  0.00    +0.000 A 
ATOM      3  C   UNL     1       1.636   2.786  20.522  0.00  0.00    +0.000 A 
ATOM      4  C   UNL     1       2.734   2.837  19.677  0.00  0.00    +0.000 A 
ATOM      5  C   UNL     1       3.158   4.054  19.126  0.00  0.00    +0.000 A 
ATOM      6  C   UNL     1       2.557   5.246  19.566  0.00  0.00    +0.000 A 
ENDROOT
BRANCH   5   7
ATOM      7  C   UNL     1       4.183   4.078  18.079  0.00  0.00    +0.000 A 
ATOM      8  N   UNL     1       4.204   3.343  16.985  0.00  0.00    +0.000 NA
ATOM      9  N   UNL     1       5.318   3.679  16.255  0.00  0.00    +0.000 NA
ATOM     10  C   UNL     1       5.991   4.595  16.918  0.00  0.00    +0.000 A 
ATOM     11  N   UNL     1       5.338   4.841  18.101  0.00  0.00    +0.000 N 
ATOM     12  C   UNL     1       5.779   5.699  19.183  0.00  0.00    +0.000 C 
ATOM     13  C   UNL     1       7.276   5.688  19.437  0.00  0.00    +0.000 C 
ATOM     14  C   UNL     1       8.058   6.582  18.481  0.00  0.00    +0.000 C 
ATOM     15  C   UNL     1       7.547   6.606  17.040  0.00  0.00    +0.000 C 
ATOM     16  C   UNL     1       7.272   5.221  16.464  0.00  0.00    +0.000 C 
ENDBRANCH   5   7
BRANCH   1  19
ATOM     17  O   UNL     1       2.174   7.930  19.636  0.00  0.00    +0.000 OA
ATOM     18  C   UNL     1       1.347   7.682  20.507  0.00  0.00    +0.000 C 
ATOM     19  N   UNL     1       0.959   6.428  20.953  0.00  0.00    +0.000 N 
ATOM     20  H   UNL     1       0.125   6.366  21.525  0.00  0.00    +0.000 HD
BRANCH  18  21
ATOM     21  C   UNL     1       0.643   8.839  21.104  0.00  0.00    +0.000 A 
ATOM     22  C   UNL     1       0.455   8.832  22.492  0.00  0.00    +0.000 A 
ATOM     23  C   UNL     1      -0.268   9.847  23.115  0.00  0.00    +0.000 A 
ATOM     24  C   UNL     1      -0.824  10.874  22.344  0.00  0.00    +0.000 A 
ATOM     25  C   UNL     1      -0.636  10.882  20.949  0.00  0.00    +0.000 A 
ATOM     26  C   UNL     1       0.099   9.865  20.328  0.00  0.00    +0.000 A 
BRANCH  24  27
ATOM     27  N   UNL     1      -1.596  11.892  22.953  0.00  0.00    +0.000 N 
ATOM     28  C   UNL     1      -1.270  13.203  23.197  0.00  0.00    +0.000 A 
ATOM     29  N   UNL     1      -2.275  13.793  23.803  0.00  0.00    +0.000 NA
ATOM     30  N   UNL     1      -3.244  12.835  23.935  0.00  0.00    +0.000 NA
ATOM     31  N   UNL     1      -2.847  11.680  23.418  0.00  0.00    +0.000 NA
ENDBRANCH  24  27
ENDBRANCH  18  21
ENDBRANCH   1  19
TORSDOF 4
ENDMDL
MODEL 8
REMARK VINA RESULT:      -8.4      3.011     11.066
REMARK  Name = 
REMARK  4 active torsions:
REMARK  status: ('A' for Active; 'I' for Inactive)
REMARK    1  A    between atoms: C_2  and  C_20
REMARK    2  A    between atoms: N_3  and  C_4
REMARK    3  A    between atoms: C_8  and  C_9
REMARK    4  A    between atoms: C_23  and  N_24
REMARK                            x       y       z     vdW  Elec       q    Type
REMARK                         _______ _______ _______ _____ _____    ______ ____
ROOT
ATOM      1  C   UNL     1      -0.037  11.747  21.359  0.00  0.00    +0.000 A 
ATOM      2  C   UNL     1       0.543  13.018  21.328  0.00  0.00    +0.000 A 
ATOM      3  C   UNL     1      -0.086  14.105  21.922  0.00  0.00    +0.000 A 
ATOM      4  C   UNL     1      -1.326  13.935  22.520  0.00  0.00    +0.000 A 
ATOM      5  C   UNL     1      -1.996  12.707  22.442  0.00  0.00    +0.000 A 
ATOM      6  C   UNL     1      -1.327  11.601  21.891  0.00  0.00    +0.000 A 
ENDROOT
BRANCH   5   7
ATOM      7  C   UNL     1      -3.386  12.589  22.894  0.00  0.00    +0.000 A 
ATOM      8  N   UNL     1      -3.793  12.209  24.088  0.00  0.00    +0.000 NA
ATOM      9  N   UNL     1      -5.165  12.251  24.116  0.00  0.00    +0.000 NA
ATOM     10  C   UNL     1      -5.595  12.628  22.930  0.00  0.00    +0.000 A 
ATOM     11  N   UNL     1      -4.507  12.804  22.110  0.00  0.00    +0.000 N 
ATOM     12  C   UNL     1      -4.518  13.115  20.694  0.00  0.00    +0.000 C 
ATOM     13  C   UNL     1      -5.632  12.452  19.904  0.00  0.00    +0.000 C 
ATOM     14  C   UNL     1      -6.969  13.176  20.019  0.00  0.00    +0.000 C 
ATOM     15  C   UNL     1      -7.280  13.763  21.397  0.00  0.00    +0.000 C 
ATOM     16  C   UNL     1      -7.031  12.793  22.546  0.00  0.00    +0.000 C 
ENDBRANCH   5   7
BRANCH   1  19
ATOM     17  O   UNL     1       0.121  10.793  18.591  0.00  0.00    +0.000 OA
ATOM     18  C   UNL     1       0.642  10.210  19.536  0.00  0.00    +0.000 C 
ATOM     19  N   UNL     1       0.629  10.601  20.866  0.00  0.00    +0.000 N 
ATOM     20  H   UNL     1       1.268  10.139  21.502  0.00  0.00    +0.000 HD
BRANCH  18  21
ATOM     21  C   UNL     1       1.417   8.989  19.217  0.00  0.00    +0.000 A 
ATOM     22  C   UNL     1       1.510   8.008  20.212  0.00  0.00    +0.000 A 
ATOM     23  C   UNL     1       2.288   6.869  20.015  0.00  0.00    +0.000 A 
ATOM     24  C   UNL     1       2.995   6.714  18.817  0.00  0.00    +0.000 A 
ATOM     25  C   UNL     1       2.902   7.699  17.817  0.00  0.00    +0.000 A 
ATOM     26  C   UNL     1       2.112   8.838  18.016  0.00  0.00    +0.000 A 
BRANCH  24  27
ATOM     27  N   UNL     1       3.823   5.584  18.613  0.00  0.00    +0.000 N 
ATOM     28  C   UNL     1       3.691   4.560  17.709  0.00  0.00    +0.000 A 
ATOM     29  N   UNL     1       4.673   3.704  17.877  0.00  0.00    +0.000 NA
ATOM     30  N   UNL     1       5.431   4.205  18.901  0.00  0.00    +0.000 NA
ATOM     31  N   UNL     1       4.930   5.347  19.351  0.00  0.00    +0.000 NA
ENDBRANCH  24  27
ENDBRANCH  18  21
ENDBRANCH   1  19
TORSDOF 4
ENDMDL
MODEL 9
REMARK VINA RESULT:      -8.4      3.517     10.797
REMARK  Name = 
REMARK  4 active torsions:
REMARK  status: ('A' for Active; 'I' for Inactive)
REMARK    1  A    between atoms: C_2  and  C_20
REMARK    2  A    between atoms: N_3  and  C_4
REMARK    3  A    between atoms: C_8  and  C_9
REMARK    4  A    between atoms: C_23  and  N_24
REMARK                            x       y       z     vdW  Elec       q    Type
REMARK                         _______ _______ _______ _____ _____    ______ ____
ROOT
ATOM      1  C   UNL     1      -0.095  11.728  20.112  0.00  0.00    +0.000 A 
ATOM      2  C   UNL     1       0.396  13.010  19.846  0.00  0.00    +0.000 A 
ATOM      3  C   UNL     1      -0.355  14.139  20.143  0.00  0.00    +0.000 A 
ATOM      4  C   UNL     1      -1.628  13.994  20.674  0.00  0.00    +0.000 A 
ATOM      5  C   UNL     1      -2.203  12.724  20.819  0.00  0.00    +0.000 A 
ATOM      6  C   UNL     1      -1.413  11.588  20.571  0.00  0.00    +0.000 A 
ENDROOT
BRANCH   5   7
ATOM      7  C   UNL     1      -3.615  12.586  21.186  0.00  0.00    +0.000 A 
ATOM      8  N   UNL     1      -4.113  12.595  22.406  0.00  0.00    +0.000 NA
ATOM      9  N   UNL     1      -5.477  12.459  22.322  0.00  0.00    +0.000 NA
ATOM     10  C   UNL     1      -5.807  12.337  21.054  0.00  0.00    +0.000 A 
ATOM     11  N   UNL     1      -4.657  12.360  20.302  0.00  0.00    +0.000 N 
ATOM     12  C   UNL     1      -4.540  12.152  18.873  0.00  0.00    +0.000 C 
ATOM     13  C   UNL     1      -5.486  11.111  18.299  0.00  0.00    +0.000 C 
ATOM     14  C   UNL     1      -6.894  11.644  18.053  0.00  0.00    +0.000 C 
ATOM     15  C   UNL     1      -7.415  12.627  19.103  0.00  0.00    +0.000 C 
ATOM     16  C   UNL     1      -7.200  12.162  20.539  0.00  0.00    +0.000 C 
ENDBRANCH   5   7
BRANCH   1  19
ATOM     17  O   UNL     1      -0.050   9.916  17.809  0.00  0.00    +0.000 OA
ATOM     18  C   UNL     1       0.638   9.750  18.810  0.00  0.00    +0.000 C 
ATOM     19  N   UNL     1       0.689  10.565  19.930  0.00  0.00    +0.000 N 
ATOM     20  H   UNL     1       1.447  10.422  20.587  0.00  0.00    +0.000 HD
BRANCH  18  21
ATOM     21  C   UNL     1       1.557   8.589  18.799  0.00  0.00    +0.000 A 
ATOM     22  C   UNL     1       1.577   7.774  19.938  0.00  0.00    +0.000 A 
ATOM     23  C   UNL     1       2.472   6.711  20.034  0.00  0.00    +0.000 A 
ATOM     24  C   UNL     1       3.370   6.467  18.988  0.00  0.00    +0.000 A 
ATOM     25  C   UNL     1       3.351   7.285  17.843  0.00  0.00    +0.000 A 
ATOM     26  C   UNL     1       2.443   8.347  17.748  0.00  0.00    +0.000 A 
BRANCH  24  27
ATOM     27  N   UNL     1       4.314   5.417  19.083  0.00  0.00    +0.000 N 
ATOM     28  C   UNL     1       4.116   4.091  19.377  0.00  0.00    +0.000 A 
ATOM     29  N   UNL     1       5.273   3.470  19.381  0.00  0.00    +0.000 NA
ATOM     30  N   UNL     1       6.208   4.424  19.081  0.00  0.00    +0.000 NA
ATOM     31  N   UNL     1       5.639   5.607  18.893  0.00  0.00    +0.000 NA
ENDBRANCH  24  27
ENDBRANCH  18  21
ENDBRANCH   1  19
TORSDOF 4
ENDMDL
