MODEL 1
REMARK VINA RESULT:      -9.1      0.000      0.000
REMARK  Name = 
REMARK  7 active torsions:
REMARK  status: ('A' for Active; 'I' for Inactive)
REMARK    1  A    between atoms: C_1  and  N_2
REMARK    2  A    between atoms: C_6  and  C_7
REMARK    3  A    between atoms: C_7  and  C_8
REMARK    4  A    between atoms: C_9  and  C_10
REMARK    5  A    between atoms: C_10  and  C_11
REMARK    6  A    between atoms: C_15  and  N_16
REMARK    7  A    between atoms: C_23  and  C_24
REMARK                            x       y       z     vdW  Elec       q    Type
REMARK                         _______ _______ _______ _____ _____    ______ ____
ROOT
ATOM      1  C   UNL     1       0.415   9.263  21.485  0.00  0.00    +0.000 A 
ATOM      2  C   UNL     1       0.257  10.387  20.674  0.00  0.00    +0.000 A 
ATOM      3  C   UNL     1       0.759  10.383  19.381  0.00  0.00    +0.000 A 
ATOM      4  C   UNL     1       1.438   9.263  18.895  0.00  0.00    +0.000 A 
ATOM      5  C   UNL     1       1.634   8.109  19.669  0.00  0.00    +0.000 A 
ATOM      6  C   UNL     1       1.069   8.106  20.957  0.00  0.00    +0.000 A 
ENDROOT
BRANCH   5   7
ATOM      7  N   UNL     1       2.444   7.041  19.166  0.00  0.00    +0.000 N 
ATOM      8  C   UNL     1       3.420   7.184  18.070  0.00  0.00    +0.000 C 
ATOM      9  C   UNL     1       3.804   5.761  17.760  0.00  0.00    +0.000 A 
ATOM     10  C   UNL     1       3.121   4.916  18.623  0.00  0.00    +0.000 A 
ATOM     11  C   UNL     1       3.239   3.549  18.556  0.00  0.00    +0.000 A 
ATOM     12  N   UNL     1       4.046   2.964  17.644  0.00  0.00    +0.000 NA
ATOM     13  C   UNL     1       4.733   3.792  16.810  0.00  0.00    +0.000 A 
ATOM     14  C   UNL     1       4.654   5.190  16.818  0.00  0.00    +0.000 A 
ATOM     15  C   UNL     1       2.293   5.695  19.523  0.00  0.00    +0.000 C 
ATOM     16  O   UNL     1       1.630   5.151  20.383  0.00  0.00    +0.000 OA
BRANCH  14  17
ATOM     17  C   UNL     1       5.486   5.944  15.832  0.00  0.00    +0.000 C 
ATOM     18  F   UNL     1       5.937   5.176  14.810  0.00  0.00    +0.000 F 
ATOM     19  F   UNL     1       4.792   6.964  15.257  0.00  0.00    +0.000 F 
ATOM     20  F   UNL     1       6.576   6.515  16.411  0.00  0.00    +0.000 F 
ENDBRANCH  14  17
ENDBRANCH   5   7
BRANCH   1  21
ATOM     21  C   UNL     1      -0.021   9.354  22.942  0.00  0.00    +0.000 C 
BRANCH  21  23
ATOM     22  C   UNL     1      -1.586  11.693  23.173  0.00  0.00    +0.000 C 
ATOM     23  C   UNL     1      -0.864  10.613  23.066  0.00  0.00    +0.000 C 
BRANCH  22  24
ATOM     24  C   UNL     1      -2.429  12.953  23.297  0.00  0.00    +0.000 C 
BRANCH  24  30
ATOM     25  C   UNL     1      -3.088  12.948  20.238  0.00  0.00    +0.000 C 
ATOM     26  N   UNL     1      -4.014  12.722  21.315  0.00  0.00    +0.000 N 
ATOM     27  C   UNL     1      -5.342  12.460  21.176  0.00  0.00    +0.000 A 
ATOM     28  N   UNL     1      -5.884  12.311  22.361  0.00  0.00    +0.000 NA
ATOM     29  N   UNL     1      -4.890  12.470  23.296  0.00  0.00    +0.000 NA
ATOM     30  C   UNL     1      -3.758  12.720  22.665  0.00  0.00    +0.000 A 
ENDBRANCH  24  30
ENDBRANCH  22  24
ENDBRANCH  21  23
ENDBRANCH   1  21
TORSDOF 6
ENDMDL
MODEL 2
REMARK VINA RESULT:      -8.9      4.464      9.585
REMARK  Name = 
REMARK  7 active torsions:
REMARK  status: ('A' for Active; 'I' for Inactive)
REMARK    1  A    between atoms: C_1  and  N_2
REMARK    2  A    between atoms: C_6  and  C_7
REMARK    3  A    between atoms: C_7  and  C_8
REMARK    4  A    between atoms: C_9  and  C_10
REMARK    5  A    between atoms: C_10  and  C_11
REMARK    6  A    between atoms: C_15  and  N_16
REMARK    7  A    between atoms: C_23  and  C_24
REMARK                            x       y       z     vdW  Elec       q    Type
REMARK                         _______ _______ _______ _____ _____    ______ ____
ROOT
ATOM      1  C   UNL     1       2.474   3.213  18.754  0.00  0.00    +0.000 A 
ATOM      2  C   UNL     1       2.684   2.523  19.948  0.00  0.00    +0.000 A 
ATOM      3  C   UNL     1       2.571   3.188  21.160  0.00  0.00    +0.000 A 
ATOM      4  C   UNL     1       2.268   4.551  21.187  0.00  0.00    +0.000 A 
ATOM      5  C   UNL     1       2.056   5.297  20.017  0.00  0.00    +0.000 A 
ATOM      6  C   UNL     1       2.115   4.596  18.799  0.00  0.00    +0.000 A 
ENDROOT
BRANCH   5   7
ATOM      7  N   UNL     1       1.872   6.715  20.097  0.00  0.00    +0.000 N 
ATOM      8  C   UNL     1       1.224   7.405  21.227  0.00  0.00    +0.000 C 
ATOM      9  C   UNL     1       1.052   8.813  20.721  0.00  0.00    +0.000 A 
ATOM     10  C   UNL     1       1.579   8.894  19.440  0.00  0.00    +0.000 A 
ATOM     11  C   UNL     1       1.533  10.051  18.701  0.00  0.00    +0.000 A 
ATOM     12  N   UNL     1       0.979  11.177  19.203  0.00  0.00    +0.000 NA
ATOM     13  C   UNL     1       0.480  11.105  20.467  0.00  0.00    +0.000 A 
ATOM     14  C   UNL     1       0.486   9.958  21.272  0.00  0.00    +0.000 A 
ATOM     15  C   UNL     1       2.119   7.607  19.046  0.00  0.00    +0.000 C 
ATOM     16  O   UNL     1       2.656   7.465  17.967  0.00  0.00    +0.000 OA
BRANCH  14  17
ATOM     17  C   UNL     1      -0.101  10.062  22.642  0.00  0.00    +0.000 C 
ATOM     18  F   UNL     1      -0.483  11.320  22.970  0.00  0.00    +0.000 F 
ATOM     19  F   UNL     1      -1.209   9.284  22.779  0.00  0.00    +0.000 F 
ATOM     20  F   UNL     1       0.766   9.647  23.605  0.00  0.00    +0.000 F 
ENDBRANCH  14  17
ENDBRANCH   5   7
BRANCH   1  21
ATOM     21  C   UNL     1       2.744   2.487  17.442  0.00  0.00    +0.000 C 
BRANCH  21  23
ATOM     22  C   UNL     1       4.800   3.917  16.136  0.00  0.00    +0.000 C 
ATOM     23  C   UNL     1       3.850   3.257  16.738  0.00  0.00    +0.000 C 
BRANCH  22  24
ATOM     24  C   UNL     1       5.906   4.687  15.432  0.00  0.00    +0.000 C 
BRANCH  24  30
ATOM     25  C   UNL     1       7.901   4.407  17.827  0.00  0.00    +0.000 C 
ATOM     26  N   UNL     1       7.276   5.618  17.369  0.00  0.00    +0.000 N 
ATOM     27  C   UNL     1       7.457   6.856  17.906  0.00  0.00    +0.000 A 
ATOM     28  N   UNL     1       6.733   7.728  17.247  0.00  0.00    +0.000 NA
ATOM     29  N   UNL     1       6.069   7.051  16.252  0.00  0.00    +0.000 NA
ATOM     30  C   UNL     1       6.395   5.774  16.325  0.00  0.00    +0.000 A 
ENDBRANCH  24  30
ENDBRANCH  22  24
ENDBRANCH  21  23
ENDBRANCH   1  21
TORSDOF 6
ENDMDL
MODEL 3
REMARK VINA RESULT:      -8.9      4.494      9.684
REMARK  Name = 
REMARK  7 active torsions:
REMARK  status: ('A' for Active; 'I' for Inactive)
REMARK    1  A    between atoms: C_1  and  N_2
REMARK    2  A    between atoms: C_6  and  C_7
REMARK    3  A    between atoms: C_7  and  C_8
REMARK    4  A    between atoms: C_9  and  C_10
REMARK    5  A    between atoms: C_10  and  C_11
REMARK    6  A    between atoms: C_15  and  N_16
REMARK    7  A    between atoms: C_23  and  C_24
REMARK                            x       y       z     vdW  Elec       q    Type
REMARK                         _______ _______ _______ _____ _____    ______ ____
ROOT
ATOM      1  C   UNL     1       2.381   3.228  18.443  0.00  0.00    +0.000 A 
ATOM      2  C   UNL     1       2.103   2.412  19.540  0.00  0.00    +0.000 A 
ATOM      3  C   UNL     1       1.644   2.975  20.722  0.00  0.00    +0.000 A 
ATOM      4  C   UNL     1       1.478   4.358  20.822  0.00  0.00    +0.000 A 
ATOM      5  C   UNL     1       1.751   5.227  19.755  0.00  0.00    +0.000 A 
ATOM      6  C   UNL     1       2.159   4.636  18.545  0.00  0.00    +0.000 A 
ENDROOT
BRANCH   5   7
ATOM      7  N   UNL     1       1.684   6.644  19.952  0.00  0.00    +0.000 N 
ATOM      8  C   UNL     1       1.075   7.290  21.129  0.00  0.00    +0.000 C 
ATOM      9  C   UNL     1       1.029   8.744  20.741  0.00  0.00    +0.000 A 
ATOM     10  C   UNL     1       1.584   8.887  19.477  0.00  0.00    +0.000 A 
ATOM     11  C   UNL     1       1.648  10.101  18.837  0.00  0.00    +0.000 A 
ATOM     12  N   UNL     1       1.179  11.223  19.426  0.00  0.00    +0.000 NA
ATOM     13  C   UNL     1       0.653  11.090  20.674  0.00  0.00    +0.000 A 
ATOM     14  C   UNL     1       0.550   9.884  21.380  0.00  0.00    +0.000 A 
ATOM     15  C   UNL     1       2.022   7.596  18.983  0.00  0.00    +0.000 C 
ATOM     16  O   UNL     1       2.565   7.499  17.901  0.00  0.00    +0.000 OA
BRANCH  14  17
ATOM     17  C   UNL     1      -0.051   9.923  22.747  0.00  0.00    +0.000 C 
ATOM     18  F   UNL     1      -1.103   9.082  22.897  0.00  0.00    +0.000 F 
ATOM     19  F   UNL     1       0.849   9.574  23.707  0.00  0.00    +0.000 F 
ATOM     20  F   UNL     1      -0.487  11.168  23.081  0.00  0.00    +0.000 F 
ENDBRANCH  14  17
ENDBRANCH   5   7
BRANCH   1  21
ATOM     21  C   UNL     1       3.016   2.594  17.212  0.00  0.00    +0.000 C 
BRANCH  21  23
ATOM     22  C   UNL     1       5.317   4.117  16.611  0.00  0.00    +0.000 C 
ATOM     23  C   UNL     1       4.254   3.414  16.890  0.00  0.00    +0.000 C 
BRANCH  22  24
ATOM     24  C   UNL     1       6.556   4.937  16.289  0.00  0.00    +0.000 C 
BRANCH  24  30
ATOM     25  C   UNL     1       7.346   7.808  17.251  0.00  0.00    +0.000 C 
ATOM     26  N   UNL     1       7.581   6.574  17.951  0.00  0.00    +0.000 N 
ATOM     27  C   UNL     1       8.187   6.454  19.164  0.00  0.00    +0.000 A 
ATOM     28  N   UNL     1       8.239   5.188  19.503  0.00  0.00    +0.000 NA
ATOM     29  N   UNL     1       7.647   4.463  18.497  0.00  0.00    +0.000 NA
ATOM     30  C   UNL     1       7.250   5.300  17.556  0.00  0.00    +0.000 A 
ENDBRANCH  24  30
ENDBRANCH  22  24
ENDBRANCH  21  23
ENDBRANCH   1  21
TORSDOF 6
ENDMDL
MODEL 4
REMARK VINA RESULT:      -8.8      0.541      1.303
REMARK  Name = 
REMARK  7 active torsions:
REMARK  status: ('A' for Active; 'I' for Inactive)
REMARK    1  A    between atoms: C_1  and  N_2
REMARK    2  A    between atoms: C_6  and  C_7
REMARK    3  A    between atoms: C_7  and  C_8
REMARK    4  A    between atoms: C_9  and  C_10
REMARK    5  A    between atoms: C_10  and  C_11
REMARK    6  A    between atoms: C_15  and  N_16
REMARK    7  A    between atoms: C_23  and  C_24
REMARK                            x       y       z     vdW  Elec       q    Type
REMARK                         _______ _______ _______ _____ _____    ______ ____
ROOT
ATOM      1  C   UNL     1       0.417   9.338  21.520  0.00  0.00    +0.000 A 
ATOM      2  C   UNL     1       0.258  10.453  20.697  0.00  0.00    +0.000 A 
ATOM      3  C   UNL     1       0.752  10.432  19.402  0.00  0.00    +0.000 A 
ATOM      4  C   UNL     1       1.425   9.305  18.925  0.00  0.00    +0.000 A 
ATOM      5  C   UNL     1       1.622   8.159  19.712  0.00  0.00    +0.000 A 
ATOM      6  C   UNL     1       1.064   8.173  21.003  0.00  0.00    +0.000 A 
ENDROOT
BRANCH   5   7
ATOM      7  N   UNL     1       2.426   7.082  19.217  0.00  0.00    +0.000 N 
ATOM      8  C   UNL     1       3.357   7.196  18.079  0.00  0.00    +0.000 C 
ATOM      9  C   UNL     1       3.747   5.767  17.807  0.00  0.00    +0.000 A 
ATOM     10  C   UNL     1       3.109   4.947  18.725  0.00  0.00    +0.000 A 
ATOM     11  C   UNL     1       3.241   3.580  18.703  0.00  0.00    +0.000 A 
ATOM     12  N   UNL     1       4.021   2.971  17.782  0.00  0.00    +0.000 NA
ATOM     13  C   UNL     1       4.664   3.775  16.893  0.00  0.00    +0.000 A 
ATOM     14  C   UNL     1       4.568   5.172  16.854  0.00  0.00    +0.000 A 
ATOM     15  C   UNL     1       2.306   5.749  19.628  0.00  0.00    +0.000 C 
ATOM     16  O   UNL     1       1.683   5.229  20.531  0.00  0.00    +0.000 OA
BRANCH  14  17
ATOM     17  C   UNL     1       5.352   5.898  15.810  0.00  0.00    +0.000 C 
ATOM     18  F   UNL     1       4.750   7.032  15.376  0.00  0.00    +0.000 F 
ATOM     19  F   UNL     1       6.578   6.274  16.266  0.00  0.00    +0.000 F 
ATOM     20  F   UNL     1       5.584   5.127  14.713  0.00  0.00    +0.000 F 
ENDBRANCH  14  17
ENDBRANCH   5   7
BRANCH   1  21
ATOM     21  C   UNL     1      -0.011   9.448  22.978  0.00  0.00    +0.000 C 
BRANCH  21  23
ATOM     22  C   UNL     1      -1.720  11.689  23.152  0.00  0.00    +0.000 C 
ATOM     23  C   UNL     1      -0.930  10.654  23.073  0.00  0.00    +0.000 C 
BRANCH  22  24
ATOM     24  C   UNL     1      -2.640  12.896  23.246  0.00  0.00    +0.000 C 
BRANCH  24  30
ATOM     25  C   UNL     1      -5.731  12.961  23.726  0.00  0.00    +0.000 C 
ATOM     26  N   UNL     1      -5.063  12.816  22.461  0.00  0.00    +0.000 N 
ATOM     27  C   UNL     1      -5.674  12.687  21.252  0.00  0.00    +0.000 A 
ATOM     28  N   UNL     1      -4.765  12.572  20.313  0.00  0.00    +0.000 NA
ATOM     29  N   UNL     1      -3.533  12.634  20.917  0.00  0.00    +0.000 NA
ATOM     30  C   UNL     1      -3.711  12.780  22.218  0.00  0.00    +0.000 A 
ENDBRANCH  24  30
ENDBRANCH  22  24
ENDBRANCH  21  23
ENDBRANCH   1  21
TORSDOF 6
ENDMDL
MODEL 5
REMARK VINA RESULT:      -8.6      0.891      1.438
REMARK  Name = 
REMARK  7 active torsions:
REMARK  status: ('A' for Active; 'I' for Inactive)
REMARK    1  A    between atoms: C_1  and  N_2
REMARK    2  A    between atoms: C_6  and  C_7
REMARK    3  A    between atoms: C_7  and  C_8
REMARK    4  A    between atoms: C_9  and  C_10
REMARK    5  A    between atoms: C_10  and  C_11
REMARK    6  A    between atoms: C_15  and  N_16
REMARK    7  A    between atoms: C_23  and  C_24
REMARK                            x       y       z     vdW  Elec       q    Type
REMARK                         _______ _______ _______ _____ _____    ______ ____
ROOT
ATOM      1  C   UNL     1       0.399   9.528  21.335  0.00  0.00    +0.000 A 
ATOM      2  C   UNL     1       0.248  10.608  20.465  0.00  0.00    +0.000 A 
ATOM      3  C   UNL     1       0.750  10.532  19.175  0.00  0.00    +0.000 A 
ATOM      4  C   UNL     1       1.423   9.385  18.750  0.00  0.00    +0.000 A 
ATOM      5  C   UNL     1       1.613   8.272  19.585  0.00  0.00    +0.000 A 
ATOM      6  C   UNL     1       1.047   8.342  20.871  0.00  0.00    +0.000 A 
ENDROOT
BRANCH   5   7
ATOM      7  N   UNL     1       2.418   7.175  19.141  0.00  0.00    +0.000 N 
ATOM      8  C   UNL     1       3.345   7.235  17.996  0.00  0.00    +0.000 C 
ATOM      9  C   UNL     1       3.737   5.795  17.792  0.00  0.00    +0.000 A 
ATOM     10  C   UNL     1       3.103   5.019  18.752  0.00  0.00    +0.000 A 
ATOM     11  C   UNL     1       3.239   3.653  18.796  0.00  0.00    +0.000 A 
ATOM     12  N   UNL     1       4.017   3.001  17.904  0.00  0.00    +0.000 NA
ATOM     13  C   UNL     1       4.656   3.762  16.974  0.00  0.00    +0.000 A 
ATOM     14  C   UNL     1       4.556   5.155  16.867  0.00  0.00    +0.000 A 
ATOM     15  C   UNL     1       2.302   5.863  19.617  0.00  0.00    +0.000 C 
ATOM     16  O   UNL     1       1.684   5.387  20.547  0.00  0.00    +0.000 OA
BRANCH  14  17
ATOM     17  C   UNL     1       5.335   5.831  15.786  0.00  0.00    +0.000 C 
ATOM     18  F   UNL     1       4.786   7.002  15.378  0.00  0.00    +0.000 F 
ATOM     19  F   UNL     1       6.603   6.128  16.183  0.00  0.00    +0.000 F 
ATOM     20  F   UNL     1       5.466   5.048  14.681  0.00  0.00    +0.000 F 
ENDBRANCH  14  17
ENDBRANCH   5   7
BRANCH   1  21
ATOM     21  C   UNL     1      -0.038   9.700  22.784  0.00  0.00    +0.000 C 
BRANCH  21  23
ATOM     22  C   UNL     1      -1.319  12.210  22.953  0.00  0.00    +0.000 C 
ATOM     23  C   UNL     1      -0.727  11.051  22.875  0.00  0.00    +0.000 C 
BRANCH  22  24
ATOM     24  C   UNL     1      -2.008  13.563  23.043  0.00  0.00    +0.000 C 
BRANCH  24  30
ATOM     25  C   UNL     1      -4.057  15.452  24.468  0.00  0.00    +0.000 C 
ATOM     26  N   UNL     1      -4.353  14.210  23.804  0.00  0.00    +0.000 N 
ATOM     27  C   UNL     1      -5.588  13.652  23.681  0.00  0.00    +0.000 A 
ATOM     28  N   UNL     1      -5.493  12.522  23.024  0.00  0.00    +0.000 NA
ATOM     29  N   UNL     1      -4.170  12.338  22.701  0.00  0.00    +0.000 NA
ATOM     30  C   UNL     1      -3.478  13.359  23.174  0.00  0.00    +0.000 A 
ENDBRANCH  24  30
ENDBRANCH  22  24
ENDBRANCH  21  23
ENDBRANCH   1  21
TORSDOF 6
ENDMDL
MODEL 6
REMARK VINA RESULT:      -8.6      1.713      2.223
REMARK  Name = 
REMARK  7 active torsions:
REMARK  status: ('A' for Active; 'I' for Inactive)
REMARK    1  A    between atoms: C_1  and  N_2
REMARK    2  A    between atoms: C_6  and  C_7
REMARK    3  A    between atoms: C_7  and  C_8
REMARK    4  A    between atoms: C_9  and  C_10
REMARK    5  A    between atoms: C_10  and  C_11
REMARK    6  A    between atoms: C_15  and  N_16
REMARK    7  A    between atoms: C_23  and  C_24
REMARK                            x       y       z     vdW  Elec       q    Type
REMARK                         _______ _______ _______ _____ _____    ______ ____
ROOT
ATOM      1  C   UNL     1       0.501   9.260  21.448  0.00  0.00    +0.000 A 
ATOM      2  C   UNL     1       0.327  10.374  20.627  0.00  0.00    +0.000 A 
ATOM      3  C   UNL     1       0.800  10.353  19.323  0.00  0.00    +0.000 A 
ATOM      4  C   UNL     1       1.466   9.226  18.837  0.00  0.00    +0.000 A 
ATOM      5  C   UNL     1       1.678   8.081  19.621  0.00  0.00    +0.000 A 
ATOM      6  C   UNL     1       1.141   8.096  20.921  0.00  0.00    +0.000 A 
ENDROOT
BRANCH   5   7
ATOM      7  N   UNL     1       2.475   7.005  19.114  0.00  0.00    +0.000 N 
ATOM      8  C   UNL     1       3.467   7.145  18.033  0.00  0.00    +0.000 C 
ATOM      9  C   UNL     1       3.829   5.720  17.709  0.00  0.00    +0.000 A 
ATOM     10  C   UNL     1       3.120   4.876  18.551  0.00  0.00    +0.000 A 
ATOM     11  C   UNL     1       3.213   3.508  18.467  0.00  0.00    +0.000 A 
ATOM     12  N   UNL     1       4.022   2.920  17.558  0.00  0.00    +0.000 NA
ATOM     13  C   UNL     1       4.735   3.746  16.744  0.00  0.00    +0.000 A 
ATOM     14  C   UNL     1       4.681   5.146  16.770  0.00  0.00    +0.000 A 
ATOM     15  C   UNL     1       2.294   5.658  19.451  0.00  0.00    +0.000 C 
ATOM     16  O   UNL     1       1.611   5.114  20.294  0.00  0.00    +0.000 OA
BRANCH  14  17
ATOM     17  C   UNL     1       5.540   5.897  15.805  0.00  0.00    +0.000 C 
ATOM     18  F   UNL     1       4.870   6.860  15.126  0.00  0.00    +0.000 F 
ATOM     19  F   UNL     1       6.574   6.526  16.429  0.00  0.00    +0.000 F 
ATOM     20  F   UNL     1       6.107   5.079  14.878  0.00  0.00    +0.000 F 
ENDBRANCH  14  17
ENDBRANCH   5   7
BRANCH   1  21
ATOM     21  C   UNL     1       0.097   9.371  22.913  0.00  0.00    +0.000 C 
BRANCH  21  23
ATOM     22  C   UNL     1      -1.513  11.680  23.136  0.00  0.00    +0.000 C 
ATOM     23  C   UNL     1      -0.769  10.614  23.033  0.00  0.00    +0.000 C 
BRANCH  22  24
ATOM     24  C   UNL     1      -2.379  12.924  23.257  0.00  0.00    +0.000 C 
BRANCH  24  30
ATOM     25  C   UNL     1      -1.341  14.620  20.840  0.00  0.00    +0.000 C 
ATOM     26  N   UNL     1      -1.068  14.855  22.233  0.00  0.00    +0.000 N 
ATOM     27  C   UNL     1      -0.310  15.869  22.732  0.00  0.00    +0.000 A 
ATOM     28  N   UNL     1      -0.268  15.780  24.039  0.00  0.00    +0.000 NA
ATOM     29  N   UNL     1      -1.021  14.691  24.407  0.00  0.00    +0.000 NA
ATOM     30  C   UNL     1      -1.505  14.129  23.315  0.00  0.00    +0.000 A 
ENDBRANCH  24  30
ENDBRANCH  22  24
ENDBRANCH  21  23
ENDBRANCH   1  21
TORSDOF 6
ENDMDL
MODEL 7
REMARK VINA RESULT:      -8.5      3.426      4.431
REMARK  Name = 
REMARK  7 active torsions:
REMARK  status: ('A' for Active; 'I' for Inactive)
REMARK    1  A    between atoms: C_1  and  N_2
REMARK    2  A    between atoms: C_6  and  C_7
REMARK    3  A    between atoms: C_7  and  C_8
REMARK    4  A    between atoms: C_9  and  C_10
REMARK    5  A    between atoms: C_10  and  C_11
REMARK    6  A    between atoms: C_15  and  N_16
REMARK    7  A    between atoms: C_23  and  C_24
REMARK                            x       y       z     vdW  Elec       q    Type
REMARK                         _______ _______ _______ _____ _____    ______ ____
ROOT
ATOM      1  C   UNL     1       0.132  10.784  20.129  0.00  0.00    +0.000 A 
ATOM      2  C   UNL     1      -0.099  10.866  21.502  0.00  0.00    +0.000 A 
ATOM      3  C   UNL     1       0.345   9.853  22.339  0.00  0.00    +0.000 A 
ATOM      4  C   UNL     1       1.006   8.743  21.809  0.00  0.00    +0.000 A 
ATOM      5  C   UNL     1       1.256   8.603  20.434  0.00  0.00    +0.000 A 
ATOM      6  C   UNL     1       0.852   9.666  19.606  0.00  0.00    +0.000 A 
ENDROOT
BRANCH   5   7
ATOM      7  N   UNL     1       1.824   7.389  19.932  0.00  0.00    +0.000 N 
ATOM      8  C   UNL     1       1.769   6.094  20.634  0.00  0.00    +0.000 C 
ATOM      9  C   UNL     1       2.706   5.227  19.835  0.00  0.00    +0.000 A 
ATOM     10  C   UNL     1       3.211   5.970  18.778  0.00  0.00    +0.000 A 
ATOM     11  C   UNL     1       4.126   5.456  17.892  0.00  0.00    +0.000 A 
ATOM     12  N   UNL     1       4.568   4.184  18.007  0.00  0.00    +0.000 NA
ATOM     13  C   UNL     1       4.059   3.447  19.031  0.00  0.00    +0.000 A 
ATOM     14  C   UNL     1       3.131   3.909  19.973  0.00  0.00    +0.000 A 
ATOM     15  C   UNL     1       2.652   7.308  18.805  0.00  0.00    +0.000 C 
ATOM     16  O   UNL     1       2.940   8.117  17.947  0.00  0.00    +0.000 OA
BRANCH  14  17
ATOM     17  C   UNL     1       2.674   2.957  21.030  0.00  0.00    +0.000 C 
ATOM     18  F   UNL     1       1.619   2.195  20.649  0.00  0.00    +0.000 F 
ATOM     19  F   UNL     1       3.657   2.085  21.388  0.00  0.00    +0.000 F 
ATOM     20  F   UNL     1       2.309   3.596  22.174  0.00  0.00    +0.000 F 
ENDBRANCH  14  17
ENDBRANCH   5   7
BRANCH   1  21
ATOM     21  C   UNL     1      -0.493  11.841  19.226  0.00  0.00    +0.000 C 
BRANCH  21  23
ATOM     22  C   UNL     1      -2.833  10.696  18.137  0.00  0.00    +0.000 C 
ATOM     23  C   UNL     1      -1.751  11.224  18.639  0.00  0.00    +0.000 C 
BRANCH  22  24
ATOM     24  C   UNL     1      -4.092  10.079  17.549  0.00  0.00    +0.000 C 
BRANCH  24  30
ATOM     25  C   UNL     1      -6.802   9.929  19.108  0.00  0.00    +0.000 C 
ATOM     26  N   UNL     1      -6.363  10.998  18.251  0.00  0.00    +0.000 N 
ATOM     27  C   UNL     1      -7.062  12.134  17.980  0.00  0.00    +0.000 A 
ATOM     28  N   UNL     1      -6.370  12.887  17.159  0.00  0.00    +0.000 NA
ATOM     29  N   UNL     1      -5.189  12.236  16.893  0.00  0.00    +0.000 NA
ATOM     30  C   UNL     1      -5.184  11.092  17.552  0.00  0.00    +0.000 A 
ENDBRANCH  24  30
ENDBRANCH  22  24
ENDBRANCH  21  23
ENDBRANCH   1  21
TORSDOF 6
ENDMDL
MODEL 8
REMARK VINA RESULT:      -8.5      1.453      2.141
REMARK  Name = 
REMARK  7 active torsions:
REMARK  status: ('A' for Active; 'I' for Inactive)
REMARK    1  A    between atoms: C_1  and  N_2
REMARK    2  A    between atoms: C_6  and  C_7
REMARK    3  A    between atoms: C_7  and  C_8
REMARK    4  A    between atoms: C_9  and  C_10
REMARK    5  A    between atoms: C_10  and  C_11
REMARK    6  A    between atoms: C_15  and  N_16
REMARK    7  A    between atoms: C_23  and  C_24
REMARK                            x       y       z     vdW  Elec       q    Type
REMARK                         _______ _______ _______ _____ _____    ______ ____
ROOT
ATOM      1  C   UNL     1       0.584   9.367  21.519  0.00  0.00    +0.000 A 
ATOM      2  C   UNL     1       0.347  10.447  20.669  0.00  0.00    +0.000 A 
ATOM      3  C   UNL     1       0.745  10.383  19.342  0.00  0.00    +0.000 A 
ATOM      4  C   UNL     1       1.400   9.248  18.860  0.00  0.00    +0.000 A 
ATOM      5  C   UNL     1       1.674   8.136  19.673  0.00  0.00    +0.000 A 
ATOM      6  C   UNL     1       1.211   8.192  21.000  0.00  0.00    +0.000 A 
ENDROOT
BRANCH   5   7
ATOM      7  N   UNL     1       2.457   7.052  19.161  0.00  0.00    +0.000 N 
ATOM      8  C   UNL     1       3.433   7.179  18.063  0.00  0.00    +0.000 C 
ATOM      9  C   UNL     1       3.782   5.750  17.743  0.00  0.00    +0.000 A 
ATOM     10  C   UNL     1       3.082   4.916  18.603  0.00  0.00    +0.000 A 
ATOM     11  C   UNL     1       3.167   3.547  18.527  0.00  0.00    +0.000 A 
ATOM     12  N   UNL     1       3.958   2.949  17.609  0.00  0.00    +0.000 NA
ATOM     13  C   UNL     1       4.662   3.765  16.778  0.00  0.00    +0.000 A 
ATOM     14  C   UNL     1       4.616   5.165  16.795  0.00  0.00    +0.000 A 
ATOM     15  C   UNL     1       2.275   5.708  19.510  0.00  0.00    +0.000 C 
ATOM     16  O   UNL     1       1.602   5.174  20.368  0.00  0.00    +0.000 OA
BRANCH  14  17
ATOM     17  C   UNL     1       5.463   5.905  15.812  0.00  0.00    +0.000 C 
ATOM     18  F   UNL     1       6.612   6.386  16.345  0.00  0.00    +0.000 F 
ATOM     19  F   UNL     1       5.835   5.115  14.767  0.00  0.00    +0.000 F 
ATOM     20  F   UNL     1       4.807   6.963  15.262  0.00  0.00    +0.000 F 
ENDBRANCH  14  17
ENDBRANCH   5   7
BRANCH   1  21
ATOM     21  C   UNL     1       0.262   9.528  23.000  0.00  0.00    +0.000 C 
BRANCH  21  23
ATOM     22  C   UNL     1      -1.803  11.446  23.174  0.00  0.00    +0.000 C 
ATOM     23  C   UNL     1      -0.849  10.560  23.095  0.00  0.00    +0.000 C 
BRANCH  22  24
ATOM     24  C   UNL     1      -2.915  12.478  23.269  0.00  0.00    +0.000 C 
BRANCH  24  30
ATOM     25  C   UNL     1      -2.910  14.866  25.291  0.00  0.00    +0.000 C 
ATOM     26  N   UNL     1      -2.356  14.866  23.964  0.00  0.00    +0.000 N 
ATOM     27  C   UNL     1      -1.727  15.915  23.368  0.00  0.00    +0.000 A 
ATOM     28  N   UNL     1      -1.352  15.569  22.159  0.00  0.00    +0.000 NA
ATOM     29  N   UNL     1      -1.735  14.265  21.962  0.00  0.00    +0.000 NA
ATOM     30  C   UNL     1      -2.344  13.838  23.053  0.00  0.00    +0.000 A 
ENDBRANCH  24  30
ENDBRANCH  22  24
ENDBRANCH  21  23
ENDBRANCH   1  21
TORSDOF 6
ENDMDL
MODEL 9
REMARK VINA RESULT:      -8.4      1.159      1.725
REMARK  Name = 
REMARK  7 active torsions:
REMARK  status: ('A' for Active; 'I' for Inactive)
REMARK    1  A    between atoms: C_1  and  N_2
REMARK    2  A    between atoms: C_6  and  C_7
REMARK    3  A    between atoms: C_7  and  C_8
REMARK    4  A    between atoms: C_9  and  C_10
REMARK    5  A    between atoms: C_10  and  C_11
REMARK    6  A    between atoms: C_15  and  N_16
REMARK    7  A    between atoms: C_23  and  C_24
REMARK                            x       y       z     vdW  Elec       q    Type
REMARK                         _______ _______ _______ _____ _____    ______ ____
ROOT
ATOM      1  C   UNL     1       0.604   9.334  21.539  0.00  0.00    +0.000 A 
ATOM      2  C   UNL     1       0.368  10.421  20.698  0.00  0.00    +0.000 A 
ATOM      3  C   UNL     1       0.766  10.368  19.370  0.00  0.00    +0.000 A 
ATOM      4  C   UNL     1       1.421   9.236  18.879  0.00  0.00    +0.000 A 
ATOM      5  C   UNL     1       1.692   8.117  19.682  0.00  0.00    +0.000 A 
ATOM      6  C   UNL     1       1.229   8.163  21.010  0.00  0.00    +0.000 A 
ENDROOT
BRANCH   5   7
ATOM      7  N   UNL     1       2.475   7.037  19.161  0.00  0.00    +0.000 N 
ATOM      8  C   UNL     1       3.422   7.164  18.039  0.00  0.00    +0.000 C 
ATOM      9  C   UNL     1       3.779   5.736  17.724  0.00  0.00    +0.000 A 
ATOM     10  C   UNL     1       3.108   4.902  18.607  0.00  0.00    +0.000 A 
ATOM     11  C   UNL     1       3.206   3.534  18.540  0.00  0.00    +0.000 A 
ATOM     12  N   UNL     1       3.982   2.936  17.609  0.00  0.00    +0.000 NA
ATOM     13  C   UNL     1       4.657   3.752  16.755  0.00  0.00    +0.000 A 
ATOM     14  C   UNL     1       4.597   5.151  16.761  0.00  0.00    +0.000 A 
ATOM     15  C   UNL     1       2.315   5.695  19.526  0.00  0.00    +0.000 C 
ATOM     16  O   UNL     1       1.668   5.161  20.404  0.00  0.00    +0.000 OA
BRANCH  14  17
ATOM     17  C   UNL     1       5.413   5.891  15.751  0.00  0.00    +0.000 C 
ATOM     18  F   UNL     1       4.798   6.999  15.270  0.00  0.00    +0.000 F 
ATOM     19  F   UNL     1       6.599   6.314  16.268  0.00  0.00    +0.000 F 
ATOM     20  F   UNL     1       5.730   5.115  14.679  0.00  0.00    +0.000 F 
ENDBRANCH  14  17
ENDBRANCH   5   7
BRANCH   1  21
ATOM     21  C   UNL     1       0.281   9.482  23.021  0.00  0.00    +0.000 C 
BRANCH  21  23
ATOM     22  C   UNL     1      -1.830  11.348  23.205  0.00  0.00    +0.000 C 
ATOM     23  C   UNL     1      -0.855  10.486  23.121  0.00  0.00    +0.000 C 
BRANCH  22  24
ATOM     24  C   UNL     1      -2.967  12.353  23.306  0.00  0.00    +0.000 C 
BRANCH  24  30
ATOM     25  C   UNL     1      -4.376  15.145  23.218  0.00  0.00    +0.000 C 
ATOM     26  N   UNL     1      -3.395  14.650  22.290  0.00  0.00    +0.000 N 
ATOM     27  C   UNL     1      -2.911  15.327  21.213  0.00  0.00    +0.000 A 
ATOM     28  N   UNL     1      -2.037  14.578  20.584  0.00  0.00    +0.000 NA
ATOM     29  N   UNL     1      -1.939  13.390  21.267  0.00  0.00    +0.000 NA
ATOM     30  C   UNL     1      -2.761  13.431  22.299  0.00  0.00    +0.000 A 
ENDBRANCH  24  30
ENDBRANCH  22  24
ENDBRANCH  21  23
ENDBRANCH   1  21
TORSDOF 6
ENDMDL
