MODEL 1
REMARK VINA RESULT:      -8.7      0.000      0.000
REMARK  Name = 
REMARK  3 active torsions:
REMARK  status: ('A' for Active; 'I' for Inactive)
REMARK    1  A    between atoms: C_2  and  C_17
REMARK    2  A    between atoms: N_3  and  C_4
REMARK    3  A    between atoms: C_4  and  C_5
REMARK                            x       y       z     vdW  Elec       q    Type
REMARK                         _______ _______ _______ _____ _____    ______ ____
ROOT
ATOM      1  O   UNL     1       8.106   9.775  17.411  0.00  0.00    +0.000 OA
ATOM      2  C   UNL     1       8.585   9.450  18.489  0.00  0.00    +0.000 C 
ATOM      3  N   UNL     1       8.624   8.152  18.936  0.00  0.00    +0.000 N 
ATOM      4  H   UNL     1       8.955   7.938  19.875  0.00  0.00    +0.000 HD
ENDROOT
BRANCH   2   5
ATOM      5  C   UNL     1       9.164  10.507  19.435  0.00  0.00    +0.000 A 
ATOM      6  N   UNL     1       8.793  10.448  20.686  0.00  0.00    +0.000 NA
ATOM      7  N   UNL     1       9.234  11.427  21.532  0.00  0.00    +0.000 N 
ATOM      8  C   UNL     1       9.989  12.522  21.182  0.00  0.00    +0.000 A 
ATOM      9  O   UNL     1      10.275  13.406  21.978  0.00  0.00    +0.000 OA
ATOM     10  C   UNL     1      10.464  12.562  19.784  0.00  0.00    +0.000 A 
ATOM     11  C   UNL     1      11.308  13.597  19.356  0.00  0.00    +0.000 A 
ATOM     12  C   UNL     1      11.796  13.597  18.050  0.00  0.00    +0.000 A 
ATOM     13  C   UNL     1      11.433  12.576  17.175  0.00  0.00    +0.000 A 
ATOM     14  C   UNL     1      10.575  11.557  17.600  0.00  0.00    +0.000 A 
ATOM     15  C   UNL     1      10.078  11.548  18.910  0.00  0.00    +0.000 A 
ATOM     16  H   UNL     1       8.900  11.386  22.490  0.00  0.00    +0.000 HD
ENDBRANCH   2   5
BRANCH   3  17
ATOM     17  C   UNL     1       8.069   7.087  18.123  0.00  0.00    +0.000 C 
BRANCH  17  18
ATOM     18  C   UNL     1       7.450   5.979  18.979  0.00  0.00    +0.000 C 
ATOM     19  O   UNL     1       8.140   5.358  19.793  0.00  0.00    +0.000 OA
ATOM     20  N   UNL     1       6.098   5.709  18.785  0.00  0.00    +0.000 N 
ATOM     21  C   UNL     1       5.259   6.423  17.812  0.00  0.00    +0.000 C 
ATOM     22  C   UNL     1       3.753   6.206  17.993  0.00  0.00    +0.000 C 
ATOM     23  C   UNL     1       3.462   4.734  18.067  0.00  0.00    +0.000 A 
ATOM     24  C   UNL     1       2.330   4.168  17.473  0.00  0.00    +0.000 A 
ATOM     25  C   UNL     1       2.104   2.795  17.575  0.00  0.00    +0.000 A 
ATOM     26  C   UNL     1       2.999   1.988  18.276  0.00  0.00    +0.000 A 
ATOM     27  C   UNL     1       4.120   2.552  18.887  0.00  0.00    +0.000 A 
ATOM     28  C   UNL     1       4.360   3.926  18.784  0.00  0.00    +0.000 A 
ATOM     29  C   UNL     1       5.523   4.569  19.502  0.00  0.00    +0.000 C 
ENDBRANCH  17  18
ENDBRANCH   3  17
TORSDOF 3
ENDMDL
MODEL 2
REMARK VINA RESULT:      -8.5      7.123     10.005
REMARK  Name = 
REMARK  3 active torsions:
REMARK  status: ('A' for Active; 'I' for Inactive)
REMARK    1  A    between atoms: C_2  and  C_17
REMARK    2  A    between atoms: N_3  and  C_4
REMARK    3  A    between atoms: C_4  and  C_5
REMARK                            x       y       z     vdW  Elec       q    Type
REMARK                         _______ _______ _______ _____ _____    ______ ____
ROOT
ATOM      1  O   UNL     1      -0.803   9.763  20.518  0.00  0.00    +0.000 OA
ATOM      2  C   UNL     1      -0.783  10.458  19.510  0.00  0.00    +0.000 C 
ATOM      3  N   UNL     1       0.359  10.708  18.791  0.00  0.00    +0.000 N 
ATOM      4  H   UNL     1       0.345  11.360  18.009  0.00  0.00    +0.000 HD
ENDROOT
BRANCH   2   5
ATOM      5  C   UNL     1      -2.065  11.120  18.996  0.00  0.00    +0.000 A 
ATOM      6  N   UNL     1      -2.653  11.968  19.796  0.00  0.00    +0.000 NA
ATOM      7  N   UNL     1      -3.840  12.513  19.391  0.00  0.00    +0.000 N 
ATOM      8  C   UNL     1      -4.522  12.206  18.236  0.00  0.00    +0.000 A 
ATOM      9  O   UNL     1      -5.624  12.669  17.980  0.00  0.00    +0.000 OA
ATOM     10  C   UNL     1      -3.833  11.296  17.299  0.00  0.00    +0.000 A 
ATOM     11  C   UNL     1      -4.412  10.990  16.059  0.00  0.00    +0.000 A 
ATOM     12  C   UNL     1      -3.729  10.175  15.158  0.00  0.00    +0.000 A 
ATOM     13  C   UNL     1      -2.481   9.659  15.499  0.00  0.00    +0.000 A 
ATOM     14  C   UNL     1      -1.916   9.950  16.744  0.00  0.00    +0.000 A 
ATOM     15  C   UNL     1      -2.594  10.768  17.658  0.00  0.00    +0.000 A 
ATOM     16  H   UNL     1      -4.302  13.137  20.045  0.00  0.00    +0.000 HD
ENDBRANCH   2   5
BRANCH   3  17
ATOM     17  C   UNL     1       1.627  10.150  19.222  0.00  0.00    +0.000 C 
BRANCH  17  18
ATOM     18  C   UNL     1       2.058   8.970  18.348  0.00  0.00    +0.000 C 
ATOM     19  O   UNL     1       2.286   9.133  17.145  0.00  0.00    +0.000 OA
ATOM     20  N   UNL     1       2.164   7.728  18.967  0.00  0.00    +0.000 N 
ATOM     21  C   UNL     1       1.882   7.505  20.393  0.00  0.00    +0.000 C 
ATOM     22  C   UNL     1       2.377   6.159  20.933  0.00  0.00    +0.000 C 
ATOM     23  C   UNL     1       1.886   5.049  20.047  0.00  0.00    +0.000 A 
ATOM     24  C   UNL     1       1.460   3.820  20.558  0.00  0.00    +0.000 A 
ATOM     25  C   UNL     1       1.018   2.821  19.691  0.00  0.00    +0.000 A 
ATOM     26  C   UNL     1       1.011   3.043  18.313  0.00  0.00    +0.000 A 
ATOM     27  C   UNL     1       1.454   4.261  17.798  0.00  0.00    +0.000 A 
ATOM     28  C   UNL     1       1.892   5.272  18.659  0.00  0.00    +0.000 A 
ATOM     29  C   UNL     1       2.448   6.568  18.120  0.00  0.00    +0.000 C 
ENDBRANCH  17  18
ENDBRANCH   3  17
TORSDOF 3
ENDMDL
MODEL 3
REMARK VINA RESULT:      -8.4      7.581     10.290
REMARK  Name = 
REMARK  3 active torsions:
REMARK  status: ('A' for Active; 'I' for Inactive)
REMARK    1  A    between atoms: C_2  and  C_17
REMARK    2  A    between atoms: N_3  and  C_4
REMARK    3  A    between atoms: C_4  and  C_5
REMARK                            x       y       z     vdW  Elec       q    Type
REMARK                         _______ _______ _______ _____ _____    ______ ____
ROOT
ATOM      1  O   UNL     1       0.172  12.421  18.553  0.00  0.00    +0.000 OA
ATOM      2  C   UNL     1      -0.552  11.434  18.583  0.00  0.00    +0.000 C 
ATOM      3  N   UNL     1      -0.103  10.181  18.916  0.00  0.00    +0.000 N 
ATOM      4  H   UNL     1      -0.721   9.374  18.845  0.00  0.00    +0.000 HD
ENDROOT
BRANCH   2   5
ATOM      5  C   UNL     1      -2.035  11.546  18.218  0.00  0.00    +0.000 A 
ATOM      6  N   UNL     1      -2.368  11.229  16.995  0.00  0.00    +0.000 NA
ATOM      7  N   UNL     1      -3.674  11.395  16.624  0.00  0.00    +0.000 N 
ATOM      8  C   UNL     1      -4.676  11.932  17.398  0.00  0.00    +0.000 A 
ATOM      9  O   UNL     1      -5.803  12.132  16.969  0.00  0.00    +0.000 OA
ATOM     10  C   UNL     1      -4.321  12.235  18.799  0.00  0.00    +0.000 A 
ATOM     11  C   UNL     1      -5.298  12.708  19.687  0.00  0.00    +0.000 A 
ATOM     12  C   UNL     1      -4.966  12.938  21.022  0.00  0.00    +0.000 A 
ATOM     13  C   UNL     1      -3.666  12.708  21.463  0.00  0.00    +0.000 A 
ATOM     14  C   UNL     1      -2.690  12.256  20.569  0.00  0.00    +0.000 A 
ATOM     15  C   UNL     1      -3.011  12.022  19.225  0.00  0.00    +0.000 A 
ATOM     16  H   UNL     1      -3.903  11.182  15.658  0.00  0.00    +0.000 HD
ENDBRANCH   2   5
BRANCH   3  17
ATOM     17  C   UNL     1       1.295   9.972  19.244  0.00  0.00    +0.000 C 
BRANCH  17  18
ATOM     18  C   UNL     1       1.912   8.841  18.418  0.00  0.00    +0.000 C 
ATOM     19  O   UNL     1       2.260   9.037  17.250  0.00  0.00    +0.000 OA
ATOM     20  N   UNL     1       2.045   7.602  19.039  0.00  0.00    +0.000 N 
ATOM     21  C   UNL     1       1.624   7.338  20.423  0.00  0.00    +0.000 C 
ATOM     22  C   UNL     1       2.159   6.027  21.009  0.00  0.00    +0.000 C 
ATOM     23  C   UNL     1       1.859   4.895  20.067  0.00  0.00    +0.000 A 
ATOM     24  C   UNL     1       1.476   3.630  20.521  0.00  0.00    +0.000 A 
ATOM     25  C   UNL     1       1.214   2.612  19.604  0.00  0.00    +0.000 A 
ATOM     26  C   UNL     1       1.344   2.851  18.236  0.00  0.00    +0.000 A 
ATOM     27  C   UNL     1       1.745   4.107  17.780  0.00  0.00    +0.000 A 
ATOM     28  C   UNL     1       2.003   5.137  18.690  0.00  0.00    +0.000 A 
ATOM     29  C   UNL     1       2.513   6.479  18.223  0.00  0.00    +0.000 C 
ENDBRANCH  17  18
ENDBRANCH   3  17
TORSDOF 3
ENDMDL
MODEL 4
REMARK VINA RESULT:      -8.3      7.073      9.861
REMARK  Name = 
REMARK  3 active torsions:
REMARK  status: ('A' for Active; 'I' for Inactive)
REMARK    1  A    between atoms: C_2  and  C_17
REMARK    2  A    between atoms: N_3  and  C_4
REMARK    3  A    between atoms: C_4  and  C_5
REMARK                            x       y       z     vdW  Elec       q    Type
REMARK                         _______ _______ _______ _____ _____    ______ ____
ROOT
ATOM      1  O   UNL     1       0.301  11.822  20.483  0.00  0.00    +0.000 OA
ATOM      2  C   UNL     1      -0.572  11.028  20.155  0.00  0.00    +0.000 C 
ATOM      3  N   UNL     1      -0.423   9.666  20.242  0.00  0.00    +0.000 N 
ATOM      4  H   UNL     1      -1.142   9.043  19.879  0.00  0.00    +0.000 HD
ENDROOT
BRANCH   2   5
ATOM      5  C   UNL     1      -1.906  11.527  19.592  0.00  0.00    +0.000 A 
ATOM      6  N   UNL     1      -2.576  12.376  20.327  0.00  0.00    +0.000 NA
ATOM      7  N   UNL     1      -3.806  12.775  19.883  0.00  0.00    +0.000 N 
ATOM      8  C   UNL     1      -4.450  12.319  18.756  0.00  0.00    +0.000 A 
ATOM      9  O   UNL     1      -5.588  12.656  18.466  0.00  0.00    +0.000 OA
ATOM     10  C   UNL     1      -3.673  11.408  17.890  0.00  0.00    +0.000 A 
ATOM     11  C   UNL     1      -4.215  10.956  16.678  0.00  0.00    +0.000 A 
ATOM     12  C   UNL     1      -3.453  10.141  15.841  0.00  0.00    +0.000 A 
ATOM     13  C   UNL     1      -2.165   9.771  16.218  0.00  0.00    +0.000 A 
ATOM     14  C   UNL     1      -1.636  10.208  17.437  0.00  0.00    +0.000 A 
ATOM     15  C   UNL     1      -2.393  11.027  18.287  0.00  0.00    +0.000 A 
ATOM     16  H   UNL     1      -4.327  13.401  20.487  0.00  0.00    +0.000 HD
ENDBRANCH   2   5
BRANCH   3  17
ATOM     17  C   UNL     1       0.820   9.100  20.732  0.00  0.00    +0.000 C 
BRANCH  17  18
ATOM     18  C   UNL     1       1.626   8.438  19.612  0.00  0.00    +0.000 C 
ATOM     19  O   UNL     1       1.931   9.076  18.600  0.00  0.00    +0.000 OA
ATOM     20  N   UNL     1       1.976   7.102  19.788  0.00  0.00    +0.000 N 
ATOM     21  C   UNL     1       1.610   6.316  20.975  0.00  0.00    +0.000 C 
ATOM     22  C   UNL     1       2.369   4.993  21.118  0.00  0.00    +0.000 C 
ATOM     23  C   UNL     1       2.273   4.216  19.835  0.00  0.00    +0.000 A 
ATOM     24  C   UNL     1       2.119   2.827  19.814  0.00  0.00    +0.000 A 
ATOM     25  C   UNL     1       2.039   2.154  18.595  0.00  0.00    +0.000 A 
ATOM     26  C   UNL     1       2.123   2.863  17.397  0.00  0.00    +0.000 A 
ATOM     27  C   UNL     1       2.296   4.247  17.413  0.00  0.00    +0.000 A 
ATOM     28  C   UNL     1       2.369   4.933  18.630  0.00  0.00    +0.000 A 
ATOM     29  C   UNL     1       2.633   6.419  18.671  0.00  0.00    +0.000 C 
ENDBRANCH  17  18
ENDBRANCH   3  17
TORSDOF 3
ENDMDL
MODEL 5
REMARK VINA RESULT:      -8.3      6.795      7.550
REMARK  Name = 
REMARK  3 active torsions:
REMARK  status: ('A' for Active; 'I' for Inactive)
REMARK    1  A    between atoms: C_2  and  C_17
REMARK    2  A    between atoms: N_3  and  C_4
REMARK    3  A    between atoms: C_4  and  C_5
REMARK                            x       y       z     vdW  Elec       q    Type
REMARK                         _______ _______ _______ _____ _____    ______ ____
ROOT
ATOM      1  O   UNL     1       1.773  12.259  20.691  0.00  0.00    +0.000 OA
ATOM      2  C   UNL     1       1.738  12.395  19.475  0.00  0.00    +0.000 C 
ATOM      3  N   UNL     1       1.403  11.380  18.613  0.00  0.00    +0.000 N 
ATOM      4  H   UNL     1       1.469  11.514  17.606  0.00  0.00    +0.000 HD
ENDROOT
BRANCH   2   5
ATOM      5  C   UNL     1       2.097  13.738  18.831  0.00  0.00    +0.000 A 
ATOM      6  N   UNL     1       3.253  13.812  18.226  0.00  0.00    +0.000 NA
ATOM      7  N   UNL     1       3.629  15.021  17.711  0.00  0.00    +0.000 N 
ATOM      8  C   UNL     1       2.934  16.203  17.823  0.00  0.00    +0.000 A 
ATOM      9  O   UNL     1       3.375  17.267  17.413  0.00  0.00    +0.000 OA
ATOM     10  C   UNL     1       1.600  16.113  18.451  0.00  0.00    +0.000 A 
ATOM     11  C   UNL     1       0.783  17.250  18.535  0.00  0.00    +0.000 A 
ATOM     12  C   UNL     1      -0.496  17.143  19.079  0.00  0.00    +0.000 A 
ATOM     13  C   UNL     1      -0.951  15.913  19.546  0.00  0.00    +0.000 A 
ATOM     14  C   UNL     1      -0.126  14.787  19.479  0.00  0.00    +0.000 A 
ATOM     15  C   UNL     1       1.163  14.882  18.935  0.00  0.00    +0.000 A 
ATOM     16  H   UNL     1       4.548  15.068  17.282  0.00  0.00    +0.000 HD
ENDBRANCH   2   5
BRANCH   3  17
ATOM     17  C   UNL     1       1.080  10.064  19.130  0.00  0.00    +0.000 C 
BRANCH  17  18
ATOM     18  C   UNL     1       1.834   8.958  18.388  0.00  0.00    +0.000 C 
ATOM     19  O   UNL     1       2.298   9.165  17.263  0.00  0.00    +0.000 OA
ATOM     20  N   UNL     1       1.954   7.730  19.033  0.00  0.00    +0.000 N 
ATOM     21  C   UNL     1       1.397   7.454  20.364  0.00  0.00    +0.000 C 
ATOM     22  C   UNL     1       1.923   6.173  21.019  0.00  0.00    +0.000 C 
ATOM     23  C   UNL     1       1.780   5.023  20.061  0.00  0.00    +0.000 A 
ATOM     24  C   UNL     1       1.407   3.744  20.484  0.00  0.00    +0.000 A 
ATOM     25  C   UNL     1       1.293   2.710  19.554  0.00  0.00    +0.000 A 
ATOM     26  C   UNL     1       1.561   2.948  18.206  0.00  0.00    +0.000 A 
ATOM     27  C   UNL     1       1.953   4.219  17.783  0.00  0.00    +0.000 A 
ATOM     28  C   UNL     1       2.062   5.264  18.706  0.00  0.00    +0.000 A 
ATOM     29  C   UNL     1       2.559   6.626  18.284  0.00  0.00    +0.000 C 
ENDBRANCH  17  18
ENDBRANCH   3  17
TORSDOF 3
ENDMDL
MODEL 6
REMARK VINA RESULT:      -8.2      2.209      9.997
REMARK  Name = 
REMARK  3 active torsions:
REMARK  status: ('A' for Active; 'I' for Inactive)
REMARK    1  A    between atoms: C_2  and  C_17
REMARK    2  A    between atoms: N_3  and  C_4
REMARK    3  A    between atoms: C_4  and  C_5
REMARK                            x       y       z     vdW  Elec       q    Type
REMARK                         _______ _______ _______ _____ _____    ______ ____
ROOT
ATOM      1  O   UNL     1       8.093   6.619  19.164  0.00  0.00    +0.000 OA
ATOM      2  C   UNL     1       7.775   7.028  18.055  0.00  0.00    +0.000 C 
ATOM      3  N   UNL     1       7.992   8.317  17.637  0.00  0.00    +0.000 N 
ATOM      4  H   UNL     1       7.635   8.636  16.738  0.00  0.00    +0.000 HD
ENDROOT
BRANCH   2   5
ATOM      5  C   UNL     1       7.079   6.101  17.054  0.00  0.00    +0.000 A 
ATOM      6  N   UNL     1       7.559   6.075  15.840  0.00  0.00    +0.000 NA
ATOM      7  N   UNL     1       6.907   5.316  14.909  0.00  0.00    +0.000 N 
ATOM      8  C   UNL     1       5.740   4.615  15.106  0.00  0.00    +0.000 A 
ATOM      9  O   UNL     1       5.164   4.027  14.202  0.00  0.00    +0.000 OA
ATOM     10  C   UNL     1       5.226   4.590  16.491  0.00  0.00    +0.000 A 
ATOM     11  C   UNL     1       4.087   3.833  16.806  0.00  0.00    +0.000 A 
ATOM     12  C   UNL     1       3.642   3.771  18.125  0.00  0.00    +0.000 A 
ATOM     13  C   UNL     1       4.322   4.468  19.121  0.00  0.00    +0.000 A 
ATOM     14  C   UNL     1       5.444   5.237  18.799  0.00  0.00    +0.000 A 
ATOM     15  C   UNL     1       5.901   5.308  17.475  0.00  0.00    +0.000 A 
ATOM     16  H   UNL     1       7.272   5.342  13.962  0.00  0.00    +0.000 HD
ENDBRANCH   2   5
BRANCH   3  17
ATOM     17  C   UNL     1       8.616   9.276  18.529  0.00  0.00    +0.000 C 
BRANCH  17  18
ATOM     18  C   UNL     1       8.344  10.719  18.096  0.00  0.00    +0.000 C 
ATOM     19  O   UNL     1       7.515  10.962  17.215  0.00  0.00    +0.000 OA
ATOM     20  N   UNL     1       9.077  11.719  18.730  0.00  0.00    +0.000 N 
ATOM     21  C   UNL     1      10.081  11.455  19.771  0.00  0.00    +0.000 C 
ATOM     22  C   UNL     1      10.518  12.694  20.558  0.00  0.00    +0.000 C 
ATOM     23  C   UNL     1      10.920  13.782  19.602  0.00  0.00    +0.000 A 
ATOM     24  C   UNL     1      12.004  14.629  19.851  0.00  0.00    +0.000 A 
ATOM     25  C   UNL     1      12.333  15.626  18.933  0.00  0.00    +0.000 A 
ATOM     26  C   UNL     1      11.575  15.787  17.773  0.00  0.00    +0.000 A 
ATOM     27  C   UNL     1      10.481  14.957  17.530  0.00  0.00    +0.000 A 
ATOM     28  C   UNL     1      10.147  13.948  18.441  0.00  0.00    +0.000 A 
ATOM     29  C   UNL     1       8.922  13.090  18.238  0.00  0.00    +0.000 C 
ENDBRANCH  17  18
ENDBRANCH   3  17
TORSDOF 3
ENDMDL
MODEL 7
REMARK VINA RESULT:      -8.2      5.694      7.538
REMARK  Name = 
REMARK  3 active torsions:
REMARK  status: ('A' for Active; 'I' for Inactive)
REMARK    1  A    between atoms: C_2  and  C_17
REMARK    2  A    between atoms: N_3  and  C_4
REMARK    3  A    between atoms: C_4  and  C_5
REMARK                            x       y       z     vdW  Elec       q    Type
REMARK                         _______ _______ _______ _____ _____    ______ ____
ROOT
ATOM      1  O   UNL     1       1.999   5.839  18.264  0.00  0.00    +0.000 OA
ATOM      2  C   UNL     1       2.646   6.777  18.711  0.00  0.00    +0.000 C 
ATOM      3  N   UNL     1       3.896   6.636  19.261  0.00  0.00    +0.000 N 
ATOM      4  H   UNL     1       4.361   7.429  19.698  0.00  0.00    +0.000 HD
ENDROOT
BRANCH   2   5
ATOM      5  C   UNL     1       2.069   8.196  18.700  0.00  0.00    +0.000 A 
ATOM      6  N   UNL     1       2.249   8.898  17.612  0.00  0.00    +0.000 NA
ATOM      7  N   UNL     1       1.812  10.193  17.607  0.00  0.00    +0.000 N 
ATOM      8  C   UNL     1       1.252  10.866  18.668  0.00  0.00    +0.000 A 
ATOM      9  O   UNL     1       0.964  12.053  18.618  0.00  0.00    +0.000 OA
ATOM     10  C   UNL     1       0.990  10.062  19.880  0.00  0.00    +0.000 A 
ATOM     11  C   UNL     1       0.346  10.639  20.983  0.00  0.00    +0.000 A 
ATOM     12  C   UNL     1       0.053   9.858  22.100  0.00  0.00    +0.000 A 
ATOM     13  C   UNL     1       0.412   8.513  22.119  0.00  0.00    +0.000 A 
ATOM     14  C   UNL     1       1.072   7.946  21.024  0.00  0.00    +0.000 A 
ATOM     15  C   UNL     1       1.372   8.721  19.896  0.00  0.00    +0.000 A 
ATOM     16  H   UNL     1       1.998  10.734  16.768  0.00  0.00    +0.000 HD
ENDBRANCH   2   5
BRANCH   3  17
ATOM     17  C   UNL     1       4.509   5.324  19.346  0.00  0.00    +0.000 C 
BRANCH  17  18
ATOM     18  C   UNL     1       5.871   5.284  18.649  0.00  0.00    +0.000 C 
ATOM     19  O   UNL     1       6.857   5.813  19.172  0.00  0.00    +0.000 OA
ATOM     20  N   UNL     1       5.932   4.644  17.414  0.00  0.00    +0.000 N 
ATOM     21  C   UNL     1       4.771   4.022  16.764  0.00  0.00    +0.000 C 
ATOM     22  C   UNL     1       5.120   3.098  15.592  0.00  0.00    +0.000 C 
ATOM     23  C   UNL     1       6.027   3.818  14.635  0.00  0.00    +0.000 A 
ATOM     24  C   UNL     1       5.915   3.671  13.249  0.00  0.00    +0.000 A 
ATOM     25  C   UNL     1       6.785   4.360  12.404  0.00  0.00    +0.000 A 
ATOM     26  C   UNL     1       7.773   5.187  12.939  0.00  0.00    +0.000 A 
ATOM     27  C   UNL     1       7.900   5.321  14.322  0.00  0.00    +0.000 A 
ATOM     28  C   UNL     1       7.028   4.641  15.178  0.00  0.00    +0.000 A 
ATOM     29  C   UNL     1       7.196   4.711  16.677  0.00  0.00    +0.000 C 
ENDBRANCH  17  18
ENDBRANCH   3  17
TORSDOF 3
ENDMDL
MODEL 8
REMARK VINA RESULT:      -8.2      2.319      9.528
REMARK  Name = 
REMARK  3 active torsions:
REMARK  status: ('A' for Active; 'I' for Inactive)
REMARK    1  A    between atoms: C_2  and  C_17
REMARK    2  A    between atoms: N_3  and  C_4
REMARK    3  A    between atoms: C_4  and  C_5
REMARK                            x       y       z     vdW  Elec       q    Type
REMARK                         _______ _______ _______ _____ _____    ______ ____
ROOT
ATOM      1  O   UNL     1       4.759   7.168  16.229  0.00  0.00    +0.000 OA
ATOM      2  C   UNL     1       5.310   6.481  17.079  0.00  0.00    +0.000 C 
ATOM      3  N   UNL     1       6.481   6.844  17.698  0.00  0.00    +0.000 N 
ATOM      4  H   UNL     1       6.949   6.203  18.336  0.00  0.00    +0.000 HD
ENDROOT
BRANCH   2   5
ATOM      5  C   UNL     1       4.718   5.130  17.493  0.00  0.00    +0.000 A 
ATOM      6  N   UNL     1       5.211   4.067  16.914  0.00  0.00    +0.000 NA
ATOM      7  N   UNL     1       4.646   2.858  17.209  0.00  0.00    +0.000 N 
ATOM      8  C   UNL     1       3.552   2.648  18.016  0.00  0.00    +0.000 A 
ATOM      9  O   UNL     1       3.046   1.545  18.166  0.00  0.00    +0.000 OA
ATOM     10  C   UNL     1       3.029   3.836  18.721  0.00  0.00    +0.000 A 
ATOM     11  C   UNL     1       1.968   3.707  19.629  0.00  0.00    +0.000 A 
ATOM     12  C   UNL     1       1.518   4.825  20.331  0.00  0.00    +0.000 A 
ATOM     13  C   UNL     1       2.116   6.064  20.118  0.00  0.00    +0.000 A 
ATOM     14  C   UNL     1       3.161   6.192  19.197  0.00  0.00    +0.000 A 
ATOM     15  C   UNL     1       3.621   5.076  18.485  0.00  0.00    +0.000 A 
ATOM     16  H   UNL     1       5.016   2.050  16.718  0.00  0.00    +0.000 HD
ENDBRANCH   2   5
BRANCH   3  17
ATOM     17  C   UNL     1       7.133   8.091  17.346  0.00  0.00    +0.000 C 
BRANCH  17  18
ATOM     18  C   UNL     1       8.247   8.451  18.332  0.00  0.00    +0.000 C 
ATOM     19  O   UNL     1       8.774   7.577  19.026  0.00  0.00    +0.000 OA
ATOM     20  N   UNL     1       8.615   9.791  18.410  0.00  0.00    +0.000 N 
ATOM     21  C   UNL     1       7.992  10.853  17.607  0.00  0.00    +0.000 C 
ATOM     22  C   UNL     1       8.761  12.178  17.602  0.00  0.00    +0.000 C 
ATOM     23  C   UNL     1       9.058  12.594  19.015  0.00  0.00    +0.000 A 
ATOM     24  C   UNL     1       8.998  13.928  19.427  0.00  0.00    +0.000 A 
ATOM     25  C   UNL     1       9.288  14.261  20.750  0.00  0.00    +0.000 A 
ATOM     26  C   UNL     1       9.648  13.267  21.660  0.00  0.00    +0.000 A 
ATOM     27  C   UNL     1       9.728  11.937  21.248  0.00  0.00    +0.000 A 
ATOM     28  C   UNL     1       9.432  11.591  19.925  0.00  0.00    +0.000 A 
ATOM     29  C   UNL     1       9.587  10.170  19.439  0.00  0.00    +0.000 C 
ENDBRANCH  17  18
ENDBRANCH   3  17
TORSDOF 3
ENDMDL
MODEL 9
REMARK VINA RESULT:      -8.2      7.553     10.242
REMARK  Name = 
REMARK  3 active torsions:
REMARK  status: ('A' for Active; 'I' for Inactive)
REMARK    1  A    between atoms: C_2  and  C_17
REMARK    2  A    between atoms: N_3  and  C_4
REMARK    3  A    between atoms: C_4  and  C_5
REMARK                            x       y       z     vdW  Elec       q    Type
REMARK                         _______ _______ _______ _____ _____    ______ ____
ROOT
ATOM      1  O   UNL     1       0.222  12.286  19.121  0.00  0.00    +0.000 OA
ATOM      2  C   UNL     1      -0.709  11.767  19.724  0.00  0.00    +0.000 C 
ATOM      3  N   UNL     1      -0.535  10.902  20.776  0.00  0.00    +0.000 N 
ATOM      4  H   UNL     1      -1.335  10.428  21.193  0.00  0.00    +0.000 HD
ENDROOT
BRANCH   2   5
ATOM      5  C   UNL     1      -2.157  12.047  19.311  0.00  0.00    +0.000 A 
ATOM      6  N   UNL     1      -2.872  12.778  20.124  0.00  0.00    +0.000 NA
ATOM      7  N   UNL     1      -4.189  12.976  19.816  0.00  0.00    +0.000 N 
ATOM      8  C   UNL     1      -4.867  12.423  18.755  0.00  0.00    +0.000 A 
ATOM      9  O   UNL     1      -6.069  12.575  18.590  0.00  0.00    +0.000 OA
ATOM     10  C   UNL     1      -4.051  11.646  17.799  0.00  0.00    +0.000 A 
ATOM     11  C   UNL     1      -4.638  11.113  16.643  0.00  0.00    +0.000 A 
ATOM     12  C   UNL     1      -3.849  10.429  15.719  0.00  0.00    +0.000 A 
ATOM     13  C   UNL     1      -2.486  10.269  15.954  0.00  0.00    +0.000 A 
ATOM     14  C   UNL     1      -1.909  10.785  17.119  0.00  0.00    +0.000 A 
ATOM     15  C   UNL     1      -2.692  11.474  18.055  0.00  0.00    +0.000 A 
ATOM     16  H   UNL     1      -4.737  13.513  20.481  0.00  0.00    +0.000 HD
ENDBRANCH   2   5
BRANCH   3  17
ATOM     17  C   UNL     1       0.801  10.551  21.217  0.00  0.00    +0.000 C 
BRANCH  17  18
ATOM     18  C   UNL     1       1.014   9.036  21.245  0.00  0.00    +0.000 C 
ATOM     19  O   UNL     1       0.736   8.384  22.257  0.00  0.00    +0.000 OA
ATOM     20  N   UNL     1       1.537   8.448  20.097  0.00  0.00    +0.000 N 
ATOM     21  C   UNL     1       1.891   9.203  18.887  0.00  0.00    +0.000 C 
ATOM     22  C   UNL     1       2.129   8.336  17.646  0.00  0.00    +0.000 C 
ATOM     23  C   UNL     1       3.106   7.243  17.975  0.00  0.00    +0.000 A 
ATOM     24  C   UNL     1       4.086   6.822  17.071  0.00  0.00    +0.000 A 
ATOM     25  C   UNL     1       4.966   5.799  17.425  0.00  0.00    +0.000 A 
ATOM     26  C   UNL     1       4.863   5.188  18.675  0.00  0.00    +0.000 A 
ATOM     27  C   UNL     1       3.875   5.592  19.572  0.00  0.00    +0.000 A 
ATOM     28  C   UNL     1       2.992   6.622  19.231  0.00  0.00    +0.000 A 
ATOM     29  C   UNL     1       1.866   7.021  20.154  0.00  0.00    +0.000 C 
ENDBRANCH  17  18
ENDBRANCH   3  17
TORSDOF 3
ENDMDL
