MODEL 1
REMARK VINA RESULT:      -8.1      0.000      0.000
REMARK  Name = 
REMARK  7 active torsions:
REMARK  status: ('A' for Active; 'I' for Inactive)
REMARK    1  A    between atoms: C_1  and  C_2
REMARK    2  A    between atoms: C_2  and  C_3
REMARK    3  A    between atoms: N_9  and  C_10
REMARK    4  A    between atoms: C_10  and  C_11
REMARK    5  A    between atoms: N_13  and  C_14
REMARK    6  A    between atoms: C_18  and  C_19
REMARK    7  A    between atoms: N_23  and  C_24
REMARK                            x       y       z     vdW  Elec       q    Type
REMARK                         _______ _______ _______ _____ _____    ______ ____
ROOT
ATOM      1  C   UNL     1      -0.172   9.141  21.980  0.00  0.00    +0.000 C 
ATOM      2  O   UNL     1      -0.917   8.186  21.785  0.00  0.00    +0.000 OA
ATOM      3  N   UNL     1       1.029   9.384  21.317  0.00  0.00    +0.000 N 
ATOM      4  H   UNL     1       1.690   9.978  21.812  0.00  0.00    +0.000 HD
ENDROOT
BRANCH   3   5
ATOM      5  C   UNL     1       1.532   8.686  20.193  0.00  0.00    +0.000 A 
ATOM      6  C   UNL     1       1.404   9.163  18.890  0.00  0.00    +0.000 A 
ATOM      7  C   UNL     1       1.890   8.420  17.817  0.00  0.00    +0.000 A 
ATOM      8  C   UNL     1       2.545   7.212  18.044  0.00  0.00    +0.000 A 
ATOM      9  C   UNL     1       2.742   6.722  19.347  0.00  0.00    +0.000 A 
ATOM     10  C   UNL     1       2.201   7.464  20.413  0.00  0.00    +0.000 A 
BRANCH   9  11
ATOM     11  C   UNL     1       3.443   5.436  19.481  0.00  0.00    +0.000 A 
ATOM     12  N   UNL     1       4.663   5.215  19.002  0.00  0.00    +0.000 NA
ATOM     13  N   UNL     1       5.007   3.934  19.329  0.00  0.00    +0.000 NA
ATOM     14  N   UNL     1       4.039   3.345  20.005  0.00  0.00    +0.000 NA
ATOM     15  N   UNL     1       3.070   4.272  20.132  0.00  0.00    +0.000 N 
BRANCH  15  16
ATOM     16  C   UNL     1       1.869   4.003  20.895  0.00  0.00    +0.000 C 
ATOM     17  C   UNL     1       1.530   2.611  21.404  0.00  0.00    +0.000 C 
ATOM     18  C   UNL     1       0.745   3.182  20.276  0.00  0.00    +0.000 C 
ENDBRANCH  15  16
ENDBRANCH   9  11
ENDBRANCH   3   5
BRANCH   1  19
ATOM     19  C   UNL     1      -0.451  10.140  23.112  0.00  0.00    +0.000 C 
BRANCH  19  25
ATOM     20  C   UNL     1      -0.820  14.698  21.260  0.00  0.00    +0.000 C 
ATOM     21  C   UNL     1      -1.288  13.253  21.177  0.00  0.00    +0.000 C 
ATOM     22  N   UNL     1      -2.392  13.003  22.076  0.00  0.00    +0.000 N 
ATOM     23  C   UNL     1      -2.187  11.887  22.852  0.00  0.00    +0.000 C 
ATOM     24  O   UNL     1      -2.957  11.475  23.707  0.00  0.00    +0.000 OA
ATOM     25  N   UNL     1      -0.978  11.356  22.537  0.00  0.00    +0.000 N 
ATOM     26  C   UNL     1      -0.276  12.239  21.767  0.00  0.00    +0.000 C 
ATOM     27  O   UNL     1       0.921  12.201  21.526  0.00  0.00    +0.000 OA
ATOM     28  H   UNL     1      -3.256  13.526  22.109  0.00  0.00    +0.000 HD
BRANCH  21  29
ATOM     29  C   UNL     1      -1.561  12.833  19.747  0.00  0.00    +0.000 C 
ATOM     30  C   UNL     1      -2.834  12.165  19.290  0.00  0.00    +0.000 C 
ATOM     31  C   UNL     1      -1.548  11.387  19.302  0.00  0.00    +0.000 C 
ENDBRANCH  21  29
ENDBRANCH  19  25
ENDBRANCH   1  19
TORSDOF 6
ENDMDL
MODEL 2
REMARK VINA RESULT:      -8.1      3.228      8.715
REMARK  Name = 
REMARK  7 active torsions:
REMARK  status: ('A' for Active; 'I' for Inactive)
REMARK    1  A    between atoms: C_1  and  C_2
REMARK    2  A    between atoms: C_2  and  C_3
REMARK    3  A    between atoms: N_9  and  C_10
REMARK    4  A    between atoms: C_10  and  C_11
REMARK    5  A    between atoms: N_13  and  C_14
REMARK    6  A    between atoms: C_18  and  C_19
REMARK    7  A    between atoms: N_23  and  C_24
REMARK                            x       y       z     vdW  Elec       q    Type
REMARK                         _______ _______ _______ _____ _____    ______ ____
ROOT
ATOM      1  C   UNL     1       2.403   5.733  19.146  0.00  0.00    +0.000 C 
ATOM      2  O   UNL     1       2.126   5.729  20.341  0.00  0.00    +0.000 OA
ATOM      3  N   UNL     1       2.254   6.813  18.280  0.00  0.00    +0.000 N 
ATOM      4  H   UNL     1       2.176   6.577  17.293  0.00  0.00    +0.000 HD
ENDROOT
BRANCH   3   5
ATOM      5  C   UNL     1       1.922   8.143  18.635  0.00  0.00    +0.000 A 
ATOM      6  C   UNL     1       2.143   9.227  17.787  0.00  0.00    +0.000 A 
ATOM      7  C   UNL     1       1.826  10.519  18.198  0.00  0.00    +0.000 A 
ATOM      8  C   UNL     1       1.248  10.732  19.448  0.00  0.00    +0.000 A 
ATOM      9  C   UNL     1       0.960   9.661  20.311  0.00  0.00    +0.000 A 
ATOM     10  C   UNL     1       1.331   8.369  19.896  0.00  0.00    +0.000 A 
BRANCH   9  11
ATOM     11  C   UNL     1       0.351   9.990  21.609  0.00  0.00    +0.000 A 
ATOM     12  N   UNL     1       0.788   9.504  22.766  0.00  0.00    +0.000 NA
ATOM     13  N   UNL     1       0.012  10.038  23.755  0.00  0.00    +0.000 NA
ATOM     14  N   UNL     1      -0.898  10.850  23.252  0.00  0.00    +0.000 NA
ATOM     15  N   UNL     1      -0.685  10.854  21.922  0.00  0.00    +0.000 N 
BRANCH  15  16
ATOM     16  C   UNL     1      -1.457  11.704  21.040  0.00  0.00    +0.000 C 
ATOM     17  C   UNL     1      -1.052  13.141  20.744  0.00  0.00    +0.000 C 
ATOM     18  C   UNL     1      -2.233  12.884  21.612  0.00  0.00    +0.000 C 
ENDBRANCH  15  16
ENDBRANCH   9  11
ENDBRANCH   3   5
BRANCH   1  19
ATOM     19  C   UNL     1       2.849   4.446  18.437  0.00  0.00    +0.000 C 
BRANCH  19  25
ATOM     20  C   UNL     1       7.368   4.648  16.468  0.00  0.00    +0.000 C 
ATOM     21  C   UNL     1       6.465   5.069  17.617  0.00  0.00    +0.000 C 
ATOM     22  N   UNL     1       6.433   4.067  18.658  0.00  0.00    +0.000 N 
ATOM     23  C   UNL     1       5.149   3.746  19.030  0.00  0.00    +0.000 C 
ATOM     24  O   UNL     1       4.849   2.911  19.871  0.00  0.00    +0.000 OA
ATOM     25  N   UNL     1       4.285   4.477  18.281  0.00  0.00    +0.000 N 
ATOM     26  C   UNL     1       4.959   5.071  17.253  0.00  0.00    +0.000 C 
ATOM     27  O   UNL     1       4.465   5.578  16.257  0.00  0.00    +0.000 OA
ATOM     28  H   UNL     1       7.239   3.677  19.127  0.00  0.00    +0.000 HD
BRANCH  21  29
ATOM     29  C   UNL     1       6.807   6.457  18.120  0.00  0.00    +0.000 C 
ATOM     30  C   UNL     1       7.760   7.397  17.425  0.00  0.00    +0.000 C 
ATOM     31  C   UNL     1       8.141   6.794  18.749  0.00  0.00    +0.000 C 
ENDBRANCH  21  29
ENDBRANCH  19  25
ENDBRANCH   1  19
TORSDOF 6
ENDMDL
MODEL 3
REMARK VINA RESULT:      -8.0      2.786      4.045
REMARK  Name = 
REMARK  7 active torsions:
REMARK  status: ('A' for Active; 'I' for Inactive)
REMARK    1  A    between atoms: C_1  and  C_2
REMARK    2  A    between atoms: C_2  and  C_3
REMARK    3  A    between atoms: N_9  and  C_10
REMARK    4  A    between atoms: C_10  and  C_11
REMARK    5  A    between atoms: N_13  and  C_14
REMARK    6  A    between atoms: C_18  and  C_19
REMARK    7  A    between atoms: N_23  and  C_24
REMARK                            x       y       z     vdW  Elec       q    Type
REMARK                         _______ _______ _______ _____ _____    ______ ____
ROOT
ATOM      1  C   UNL     1       1.513   7.692  20.607  0.00  0.00    +0.000 C 
ATOM      2  O   UNL     1       0.694   6.827  20.901  0.00  0.00    +0.000 OA
ATOM      3  N   UNL     1       2.601   7.525  19.755  0.00  0.00    +0.000 N 
ATOM      4  H   UNL     1       3.366   8.184  19.887  0.00  0.00    +0.000 HD
ENDROOT
BRANCH   3   5
ATOM      5  C   UNL     1       2.877   6.399  18.942  0.00  0.00    +0.000 A 
ATOM      6  C   UNL     1       2.070   5.263  18.931  0.00  0.00    +0.000 A 
ATOM      7  C   UNL     1       2.404   4.169  18.135  0.00  0.00    +0.000 A 
ATOM      8  C   UNL     1       3.528   4.222  17.314  0.00  0.00    +0.000 A 
ATOM      9  C   UNL     1       4.338   5.368  17.257  0.00  0.00    +0.000 A 
ATOM     10  C   UNL     1       4.010   6.443  18.104  0.00  0.00    +0.000 A 
BRANCH   9  11
ATOM     11  C   UNL     1       5.503   5.323  16.360  0.00  0.00    +0.000 A 
ATOM     12  N   UNL     1       5.418   5.471  15.043  0.00  0.00    +0.000 NA
ATOM     13  N   UNL     1       6.685   5.400  14.537  0.00  0.00    +0.000 NA
ATOM     14  N   UNL     1       7.566   5.216  15.503  0.00  0.00    +0.000 NA
ATOM     15  N   UNL     1       6.852   5.193  16.645  0.00  0.00    +0.000 N 
BRANCH  15  16
ATOM     16  C   UNL     1       7.502   5.085  17.934  0.00  0.00    +0.000 C 
ATOM     17  C   UNL     1       6.797   5.457  19.230  0.00  0.00    +0.000 C 
ATOM     18  C   UNL     1       7.870   6.345  18.707  0.00  0.00    +0.000 C 
ENDBRANCH  15  16
ENDBRANCH   9  11
ENDBRANCH   3   5
BRANCH   1  19
ATOM     19  C   UNL     1       1.476   9.072  21.280  0.00  0.00    +0.000 C 
BRANCH  19  25
ATOM     20  C   UNL     1      -0.627  12.333  18.233  0.00  0.00    +0.000 C 
ATOM     21  C   UNL     1      -0.748  10.986  18.929  0.00  0.00    +0.000 C 
ATOM     22  N   UNL     1      -1.311  11.124  20.252  0.00  0.00    +0.000 N 
ATOM     23  C   UNL     1      -0.566  10.471  21.205  0.00  0.00    +0.000 C 
ATOM     24  O   UNL     1      -0.814  10.454  22.402  0.00  0.00    +0.000 OA
ATOM     25  N   UNL     1       0.502   9.893  20.599  0.00  0.00    +0.000 N 
ATOM     26  C   UNL     1       0.617  10.367  19.323  0.00  0.00    +0.000 C 
ATOM     27  O   UNL     1       1.592  10.263  18.594  0.00  0.00    +0.000 OA
ATOM     28  H   UNL     1      -2.184  11.581  20.477  0.00  0.00    +0.000 HD
BRANCH  21  29
ATOM     29  C   UNL     1      -1.468   9.970  18.064  0.00  0.00    +0.000 C 
ATOM     30  C   UNL     1      -2.034  10.272  16.699  0.00  0.00    +0.000 C 
ATOM     31  C   UNL     1      -2.965   9.995  17.847  0.00  0.00    +0.000 C 
ENDBRANCH  21  29
ENDBRANCH  19  25
ENDBRANCH   1  19
TORSDOF 6
ENDMDL
MODEL 4
REMARK VINA RESULT:      -8.0      2.771      4.344
REMARK  Name = 
REMARK  7 active torsions:
REMARK  status: ('A' for Active; 'I' for Inactive)
REMARK    1  A    between atoms: C_1  and  C_2
REMARK    2  A    between atoms: C_2  and  C_3
REMARK    3  A    between atoms: N_9  and  C_10
REMARK    4  A    between atoms: C_10  and  C_11
REMARK    5  A    between atoms: N_13  and  C_14
REMARK    6  A    between atoms: C_18  and  C_19
REMARK    7  A    between atoms: N_23  and  C_24
REMARK                            x       y       z     vdW  Elec       q    Type
REMARK                         _______ _______ _______ _____ _____    ______ ____
ROOT
ATOM      1  C   UNL     1       1.410   8.896  18.961  0.00  0.00    +0.000 C 
ATOM      2  O   UNL     1       1.409   8.990  20.184  0.00  0.00    +0.000 OA
ATOM      3  N   UNL     1       2.072   7.919  18.221  0.00  0.00    +0.000 N 
ATOM      4  H   UNL     1       2.280   8.167  17.256  0.00  0.00    +0.000 HD
ENDROOT
BRANCH   3   5
ATOM      5  C   UNL     1       2.721   6.768  18.727  0.00  0.00    +0.000 A 
ATOM      6  C   UNL     1       2.123   5.909  19.649  0.00  0.00    +0.000 A 
ATOM      7  C   UNL     1       2.819   4.807  20.139  0.00  0.00    +0.000 A 
ATOM      8  C   UNL     1       4.105   4.533  19.678  0.00  0.00    +0.000 A 
ATOM      9  C   UNL     1       4.723   5.343  18.711  0.00  0.00    +0.000 A 
ATOM     10  C   UNL     1       4.022   6.478  18.264  0.00  0.00    +0.000 A 
BRANCH   9  11
ATOM     11  C   UNL     1       6.083   4.970  18.292  0.00  0.00    +0.000 A 
ATOM     12  N   UNL     1       7.132   4.998  19.106  0.00  0.00    +0.000 NA
ATOM     13  N   UNL     1       8.217   4.568  18.395  0.00  0.00    +0.000 NA
ATOM     14  N   UNL     1       7.876   4.265  17.157  0.00  0.00    +0.000 NA
ATOM     15  N   UNL     1       6.549   4.483  17.082  0.00  0.00    +0.000 N 
BRANCH  15  16
ATOM     16  C   UNL     1       5.805   4.180  15.878  0.00  0.00    +0.000 C 
ATOM     17  C   UNL     1       6.466   4.136  14.508  0.00  0.00    +0.000 C 
ATOM     18  C   UNL     1       5.562   5.270  14.842  0.00  0.00    +0.000 C 
ENDBRANCH  15  16
ENDBRANCH   9  11
ENDBRANCH   3   5
BRANCH   1  19
ATOM     19  C   UNL     1       0.744   9.969  18.088  0.00  0.00    +0.000 C 
BRANCH  19  25
ATOM     20  C   UNL     1      -1.238  13.898  20.317  0.00  0.00    +0.000 C 
ATOM     21  C   UNL     1      -0.236  12.758  20.412  0.00  0.00    +0.000 C 
ATOM     22  N   UNL     1       1.034  13.121  19.825  0.00  0.00    +0.000 N 
ATOM     23  C   UNL     1       1.487  12.174  18.938  0.00  0.00    +0.000 C 
ATOM     24  O   UNL     1       2.521  12.252  18.292  0.00  0.00    +0.000 OA
ATOM     25  N   UNL     1       0.576  11.168  18.875  0.00  0.00    +0.000 N 
ATOM     26  C   UNL     1      -0.578  11.556  19.495  0.00  0.00    +0.000 C 
ATOM     27  O   UNL     1      -1.670  11.015  19.403  0.00  0.00    +0.000 OA
ATOM     28  H   UNL     1       1.584  13.934  20.066  0.00  0.00    +0.000 HD
BRANCH  21  29
ATOM     29  C   UNL     1      -0.123  12.225  21.825  0.00  0.00    +0.000 C 
ATOM     30  C   UNL     1      -0.678  10.897  22.276  0.00  0.00    +0.000 C 
ATOM     31  C   UNL     1      -1.298  12.172  22.776  0.00  0.00    +0.000 C 
ENDBRANCH  21  29
ENDBRANCH  19  25
ENDBRANCH   1  19
TORSDOF 6
ENDMDL
MODEL 5
REMARK VINA RESULT:      -8.0      3.816      9.068
REMARK  Name = 
REMARK  7 active torsions:
REMARK  status: ('A' for Active; 'I' for Inactive)
REMARK    1  A    between atoms: C_1  and  C_2
REMARK    2  A    between atoms: C_2  and  C_3
REMARK    3  A    between atoms: N_9  and  C_10
REMARK    4  A    between atoms: C_10  and  C_11
REMARK    5  A    between atoms: N_13  and  C_14
REMARK    6  A    between atoms: C_18  and  C_19
REMARK    7  A    between atoms: N_23  and  C_24
REMARK                            x       y       z     vdW  Elec       q    Type
REMARK                         _______ _______ _______ _____ _____    ______ ____
ROOT
ATOM      1  C   UNL     1       2.131   5.185  18.536  0.00  0.00    +0.000 C 
ATOM      2  O   UNL     1       1.377   4.659  19.347  0.00  0.00    +0.000 OA
ATOM      3  N   UNL     1       2.326   6.555  18.374  0.00  0.00    +0.000 N 
ATOM      4  H   UNL     1       2.679   6.842  17.464  0.00  0.00    +0.000 HD
ENDROOT
BRANCH   3   5
ATOM      5  C   UNL     1       1.830   7.584  19.210  0.00  0.00    +0.000 A 
ATOM      6  C   UNL     1       1.957   7.556  20.597  0.00  0.00    +0.000 A 
ATOM      7  C   UNL     1       1.424   8.581  21.375  0.00  0.00    +0.000 A 
ATOM      8  C   UNL     1       0.794   9.664  20.765  0.00  0.00    +0.000 A 
ATOM      9  C   UNL     1       0.692   9.756  19.367  0.00  0.00    +0.000 A 
ATOM     10  C   UNL     1       1.195   8.688  18.602  0.00  0.00    +0.000 A 
BRANCH   9  11
ATOM     11  C   UNL     1       0.007  10.938  18.821  0.00  0.00    +0.000 A 
ATOM     12  N   UNL     1      -1.250  10.922  18.392  0.00  0.00    +0.000 NA
ATOM     13  N   UNL     1      -1.562  12.187  17.982  0.00  0.00    +0.000 NA
ATOM     14  N   UNL     1      -0.536  13.000  18.146  0.00  0.00    +0.000 NA
ATOM     15  N   UNL     1       0.440  12.247  18.691  0.00  0.00    +0.000 N 
BRANCH  15  16
ATOM     16  C   UNL     1       1.705  12.830  19.086  0.00  0.00    +0.000 C 
ATOM     17  C   UNL     1       2.251  14.093  18.437  0.00  0.00    +0.000 C 
ATOM     18  C   UNL     1       2.892  12.784  18.131  0.00  0.00    +0.000 C 
ENDBRANCH  15  16
ENDBRANCH   9  11
ENDBRANCH   3   5
BRANCH   1  19
ATOM     19  C   UNL     1       2.879   4.340  17.493  0.00  0.00    +0.000 C 
BRANCH  19  25
ATOM     20  C   UNL     1       7.785   4.456  16.997  0.00  0.00    +0.000 C 
ATOM     21  C   UNL     1       6.576   4.967  17.765  0.00  0.00    +0.000 C 
ATOM     22  N   UNL     1       6.217   4.072  18.841  0.00  0.00    +0.000 N 
ATOM     23  C   UNL     1       4.879   3.758  18.832  0.00  0.00    +0.000 C 
ATOM     24  O   UNL     1       4.328   3.004  19.620  0.00  0.00    +0.000 OA
ATOM     25  N   UNL     1       4.292   4.391  17.784  0.00  0.00    +0.000 N 
ATOM     26  C   UNL     1       5.255   4.896  16.957  0.00  0.00    +0.000 C 
ATOM     27  O   UNL     1       5.096   5.291  15.811  0.00  0.00    +0.000 OA
ATOM     28  H   UNL     1       6.837   3.749  19.572  0.00  0.00    +0.000 HD
BRANCH  21  29
ATOM     29  C   UNL     1       6.756   6.405  18.204  0.00  0.00    +0.000 C 
ATOM     30  C   UNL     1       7.484   7.451  17.397  0.00  0.00    +0.000 C 
ATOM     31  C   UNL     1       8.083   6.954  18.683  0.00  0.00    +0.000 C 
ENDBRANCH  21  29
ENDBRANCH  19  25
ENDBRANCH   1  19
TORSDOF 6
ENDMDL
MODEL 6
REMARK VINA RESULT:      -8.0      7.599     11.018
REMARK  Name = 
REMARK  7 active torsions:
REMARK  status: ('A' for Active; 'I' for Inactive)
REMARK    1  A    between atoms: C_1  and  C_2
REMARK    2  A    between atoms: C_2  and  C_3
REMARK    3  A    between atoms: N_9  and  C_10
REMARK    4  A    between atoms: C_10  and  C_11
REMARK    5  A    between atoms: N_13  and  C_14
REMARK    6  A    between atoms: C_18  and  C_19
REMARK    7  A    between atoms: N_23  and  C_24
REMARK                            x       y       z     vdW  Elec       q    Type
REMARK                         _______ _______ _______ _____ _____    ______ ____
ROOT
ATOM      1  C   UNL     1       7.838   7.696  17.838  0.00  0.00    +0.000 C 
ATOM      2  O   UNL     1       8.283   7.082  18.803  0.00  0.00    +0.000 OA
ATOM      3  N   UNL     1       7.936   9.070  17.632  0.00  0.00    +0.000 N 
ATOM      4  H   UNL     1       7.237   9.470  17.010  0.00  0.00    +0.000 HD
ENDROOT
BRANCH   3   5
ATOM      5  C   UNL     1       8.699   9.988  18.393  0.00  0.00    +0.000 A 
ATOM      6  C   UNL     1       8.955   9.811  19.751  0.00  0.00    +0.000 A 
ATOM      7  C   UNL     1       9.686  10.762  20.460  0.00  0.00    +0.000 A 
ATOM      8  C   UNL     1      10.200  11.878  19.803  0.00  0.00    +0.000 A 
ATOM      9  C   UNL     1      10.010  12.066  18.424  0.00  0.00    +0.000 A 
ATOM     10  C   UNL     1       9.229  11.118  17.736  0.00  0.00    +0.000 A 
BRANCH   9  11
ATOM     11  C   UNL     1      10.592  13.277  17.825  0.00  0.00    +0.000 A 
ATOM     12  N   UNL     1      11.758  13.290  17.188  0.00  0.00    +0.000 NA
ATOM     13  N   UNL     1      11.970  14.564  16.743  0.00  0.00    +0.000 NA
ATOM     14  N   UNL     1      10.966  15.352  17.080  0.00  0.00    +0.000 NA
ATOM     15  N   UNL     1      10.088  14.563  17.729  0.00  0.00    +0.000 N 
BRANCH  15  16
ATOM     16  C   UNL     1       8.812  15.075  18.184  0.00  0.00    +0.000 C 
ATOM     17  C   UNL     1       8.637  16.515  18.643  0.00  0.00    +0.000 C 
ATOM     18  C   UNL     1       8.615  15.423  19.654  0.00  0.00    +0.000 C 
ENDBRANCH  15  16
ENDBRANCH   9  11
ENDBRANCH   3   5
BRANCH   1  19
ATOM     19  C   UNL     1       6.988   6.983  16.776  0.00  0.00    +0.000 C 
BRANCH  19  25
ATOM     20  C   UNL     1       4.175   4.225  19.746  0.00  0.00    +0.000 C 
ATOM     21  C   UNL     1       4.691   4.446  18.331  0.00  0.00    +0.000 C 
ATOM     22  N   UNL     1       5.965   3.795  18.127  0.00  0.00    +0.000 N 
ATOM     23  C   UNL     1       6.897   4.640  17.572  0.00  0.00    +0.000 C 
ATOM     24  O   UNL     1       8.055   4.342  17.321  0.00  0.00    +0.000 OA
ATOM     25  N   UNL     1       6.324   5.858  17.392  0.00  0.00    +0.000 N 
ATOM     26  C   UNL     1       5.130   5.905  18.054  0.00  0.00    +0.000 C 
ATOM     27  O   UNL     1       4.485   6.909  18.318  0.00  0.00    +0.000 OA
ATOM     28  H   UNL     1       6.163   2.819  18.297  0.00  0.00    +0.000 HD
BRANCH  21  29
ATOM     29  C   UNL     1       3.650   4.085  17.292  0.00  0.00    +0.000 C 
ATOM     30  C   UNL     1       2.161   4.162  17.523  0.00  0.00    +0.000 C 
ATOM     31  C   UNL     1       2.822   2.821  17.367  0.00  0.00    +0.000 C 
ENDBRANCH  21  29
ENDBRANCH  19  25
ENDBRANCH   1  19
TORSDOF 6
ENDMDL
MODEL 7
REMARK VINA RESULT:      -7.9      3.364      8.571
REMARK  Name = 
REMARK  7 active torsions:
REMARK  status: ('A' for Active; 'I' for Inactive)
REMARK    1  A    between atoms: C_1  and  C_2
REMARK    2  A    between atoms: C_2  and  C_3
REMARK    3  A    between atoms: N_9  and  C_10
REMARK    4  A    between atoms: C_10  and  C_11
REMARK    5  A    between atoms: N_13  and  C_14
REMARK    6  A    between atoms: C_18  and  C_19
REMARK    7  A    between atoms: N_23  and  C_24
REMARK                            x       y       z     vdW  Elec       q    Type
REMARK                         _______ _______ _______ _____ _____    ______ ____
ROOT
ATOM      1  C   UNL     1       3.527   6.960  17.803  0.00  0.00    +0.000 C 
ATOM      2  O   UNL     1       4.048   8.041  17.544  0.00  0.00    +0.000 OA
ATOM      3  N   UNL     1       2.564   6.736  18.783  0.00  0.00    +0.000 N 
ATOM      4  H   UNL     1       2.498   5.778  19.120  0.00  0.00    +0.000 HD
ENDROOT
BRANCH   3   5
ATOM      5  C   UNL     1       1.886   7.717  19.545  0.00  0.00    +0.000 A 
ATOM      6  C   UNL     1       1.483   7.505  20.862  0.00  0.00    +0.000 A 
ATOM      7  C   UNL     1       0.790   8.494  21.556  0.00  0.00    +0.000 A 
ATOM      8  C   UNL     1       0.531   9.721  20.947  0.00  0.00    +0.000 A 
ATOM      9  C   UNL     1       0.966   9.994  19.640  0.00  0.00    +0.000 A 
ATOM     10  C   UNL     1       1.622   8.965  18.940  0.00  0.00    +0.000 A 
BRANCH   9  11
ATOM     11  C   UNL     1       0.640  11.318  19.087  0.00  0.00    +0.000 A 
ATOM     12  N   UNL     1       1.522  12.307  18.990  0.00  0.00    +0.000 NA
ATOM     13  N   UNL     1       0.887  13.369  18.412  0.00  0.00    +0.000 NA
ATOM     14  N   UNL     1      -0.370  13.073  18.138  0.00  0.00    +0.000 NA
ATOM     15  N   UNL     1      -0.533  11.793  18.526  0.00  0.00    +0.000 N 
BRANCH  15  16
ATOM     16  C   UNL     1      -1.783  11.096  18.305  0.00  0.00    +0.000 C 
ATOM     17  C   UNL     1      -1.870   9.845  17.444  0.00  0.00    +0.000 C 
ATOM     18  C   UNL     1      -2.433  11.123  16.928  0.00  0.00    +0.000 C 
ENDBRANCH  15  16
ENDBRANCH   9  11
ENDBRANCH   3   5
BRANCH   1  19
ATOM     19  C   UNL     1       4.001   5.673  17.113  0.00  0.00    +0.000 C 
BRANCH  19  25
ATOM     20  C   UNL     1       4.417   2.093  20.481  0.00  0.00    +0.000 C 
ATOM     21  C   UNL     1       3.518   3.150  19.859  0.00  0.00    +0.000 C 
ATOM     22  N   UNL     1       2.836   2.641  18.690  0.00  0.00    +0.000 N 
ATOM     23  C   UNL     1       2.959   3.481  17.609  0.00  0.00    +0.000 C 
ATOM     24  O   UNL     1       2.496   3.271  16.499  0.00  0.00    +0.000 OA
ATOM     25  N   UNL     1       3.710   4.552  17.976  0.00  0.00    +0.000 N 
ATOM     26  C   UNL     1       4.298   4.306  19.184  0.00  0.00    +0.000 C 
ATOM     27  O   UNL     1       5.225   4.928  19.681  0.00  0.00    +0.000 OA
ATOM     28  H   UNL     1       2.270   1.804  18.655  0.00  0.00    +0.000 HD
BRANCH  21  29
ATOM     29  C   UNL     1       2.590   3.772  20.882  0.00  0.00    +0.000 C 
ATOM     30  C   UNL     1       1.680   2.982  21.789  0.00  0.00    +0.000 C 
ATOM     31  C   UNL     1       1.089   3.830  20.697  0.00  0.00    +0.000 C 
ENDBRANCH  21  29
ENDBRANCH  19  25
ENDBRANCH   1  19
TORSDOF 6
ENDMDL
MODEL 8
REMARK VINA RESULT:      -7.9      2.965      4.312
REMARK  Name = 
REMARK  7 active torsions:
REMARK  status: ('A' for Active; 'I' for Inactive)
REMARK    1  A    between atoms: C_1  and  C_2
REMARK    2  A    between atoms: C_2  and  C_3
REMARK    3  A    between atoms: N_9  and  C_10
REMARK    4  A    between atoms: C_10  and  C_11
REMARK    5  A    between atoms: N_13  and  C_14
REMARK    6  A    between atoms: C_18  and  C_19
REMARK    7  A    between atoms: N_23  and  C_24
REMARK                            x       y       z     vdW  Elec       q    Type
REMARK                         _______ _______ _______ _____ _____    ______ ____
ROOT
ATOM      1  C   UNL     1       2.121   9.212  18.360  0.00  0.00    +0.000 C 
ATOM      2  O   UNL     1       2.066   9.244  17.135  0.00  0.00    +0.000 OA
ATOM      3  N   UNL     1       2.354   8.077  19.134  0.00  0.00    +0.000 N 
ATOM      4  H   UNL     1       2.022   8.127  20.095  0.00  0.00    +0.000 HD
ENDROOT
BRANCH   3   5
ATOM      5  C   UNL     1       2.733   6.796  18.667  0.00  0.00    +0.000 A 
ATOM      6  C   UNL     1       1.806   5.810  18.335  0.00  0.00    +0.000 A 
ATOM      7  C   UNL     1       2.234   4.555  17.910  0.00  0.00    +0.000 A 
ATOM      8  C   UNL     1       3.595   4.291  17.774  0.00  0.00    +0.000 A 
ATOM      9  C   UNL     1       4.560   5.275  18.047  0.00  0.00    +0.000 A 
ATOM     10  C   UNL     1       4.109   6.520  18.521  0.00  0.00    +0.000 A 
BRANCH   9  11
ATOM     11  C   UNL     1       5.971   4.896  17.875  0.00  0.00    +0.000 A 
ATOM     12  N   UNL     1       6.856   4.902  18.867  0.00  0.00    +0.000 NA
ATOM     13  N   UNL     1       8.049   4.473  18.357  0.00  0.00    +0.000 NA
ATOM     14  N   UNL     1       7.937   4.193  17.072  0.00  0.00    +0.000 NA
ATOM     15  N   UNL     1       6.646   4.424  16.762  0.00  0.00    +0.000 N 
BRANCH  15  16
ATOM     16  C   UNL     1       6.131   4.147  15.437  0.00  0.00    +0.000 C 
ATOM     17  C   UNL     1       6.861   4.588  14.178  0.00  0.00    +0.000 C 
ATOM     18  C   UNL     1       5.608   5.288  14.573  0.00  0.00    +0.000 C 
ENDBRANCH  15  16
ENDBRANCH   9  11
ENDBRANCH   3   5
BRANCH   1  19
ATOM     19  C   UNL     1       1.806  10.461  19.196  0.00  0.00    +0.000 C 
BRANCH  19  25
ATOM     20  C   UNL     1      -2.682  12.506  19.290  0.00  0.00    +0.000 C 
ATOM     21  C   UNL     1      -1.820  11.361  18.780  0.00  0.00    +0.000 C 
ATOM     22  N   UNL     1      -1.759  10.280  19.737  0.00  0.00    +0.000 N 
ATOM     23  C   UNL     1      -0.468   9.875  19.981  0.00  0.00    +0.000 C 
ATOM     24  O   UNL     1      -0.144   8.996  20.766  0.00  0.00    +0.000 OA
ATOM     25  N   UNL     1       0.374  10.639  19.240  0.00  0.00    +0.000 N 
ATOM     26  C   UNL     1      -0.310  11.702  18.721  0.00  0.00    +0.000 C 
ATOM     27  O   UNL     1       0.177  12.710  18.231  0.00  0.00    +0.000 OA
ATOM     28  H   UNL     1      -2.554   9.808  20.146  0.00  0.00    +0.000 HD
BRANCH  21  29
ATOM     29  C   UNL     1      -2.236  10.921  17.391  0.00  0.00    +0.000 C 
ATOM     30  C   UNL     1      -3.608  11.148  16.807  0.00  0.00    +0.000 C 
ATOM     31  C   UNL     1      -3.165   9.752  17.146  0.00  0.00    +0.000 C 
ENDBRANCH  21  29
ENDBRANCH  19  25
ENDBRANCH   1  19
TORSDOF 6
ENDMDL
MODEL 9
REMARK VINA RESULT:      -7.9      3.468      8.886
REMARK  Name = 
REMARK  7 active torsions:
REMARK  status: ('A' for Active; 'I' for Inactive)
REMARK    1  A    between atoms: C_1  and  C_2
REMARK    2  A    between atoms: C_2  and  C_3
REMARK    3  A    between atoms: N_9  and  C_10
REMARK    4  A    between atoms: C_10  and  C_11
REMARK    5  A    between atoms: N_13  and  C_14
REMARK    6  A    between atoms: C_18  and  C_19
REMARK    7  A    between atoms: N_23  and  C_24
REMARK                            x       y       z     vdW  Elec       q    Type
REMARK                         _______ _______ _______ _____ _____    ______ ____
ROOT
ATOM      1  C   UNL     1       3.660   6.797  17.869  0.00  0.00    +0.000 C 
ATOM      2  O   UNL     1       4.364   7.800  17.810  0.00  0.00    +0.000 OA
ATOM      3  N   UNL     1       2.536   6.638  18.676  0.00  0.00    +0.000 N 
ATOM      4  H   UNL     1       2.282   5.675  18.888  0.00  0.00    +0.000 HD
ENDROOT
BRANCH   3   5
ATOM      5  C   UNL     1       1.897   7.639  19.445  0.00  0.00    +0.000 A 
ATOM      6  C   UNL     1       1.859   7.611  20.838  0.00  0.00    +0.000 A 
ATOM      7  C   UNL     1       1.189   8.606  21.545  0.00  0.00    +0.000 A 
ATOM      8  C   UNL     1       0.586   9.661  20.863  0.00  0.00    +0.000 A 
ATOM      9  C   UNL     1       0.647   9.755  19.463  0.00  0.00    +0.000 A 
ATOM     10  C   UNL     1       1.287   8.714  18.765  0.00  0.00    +0.000 A 
BRANCH   9  11
ATOM     11  C   UNL     1      -0.023  10.906  18.838  0.00  0.00    +0.000 A 
ATOM     12  N   UNL     1      -1.246  10.847  18.321  0.00  0.00    +0.000 NA
ATOM     13  N   UNL     1      -1.556  12.094  17.856  0.00  0.00    +0.000 NA
ATOM     14  N   UNL     1      -0.562  12.936  18.071  0.00  0.00    +0.000 NA
ATOM     15  N   UNL     1       0.388  12.221  18.705  0.00  0.00    +0.000 N 
BRANCH  15  16
ATOM     16  C   UNL     1       1.608  12.844  19.173  0.00  0.00    +0.000 C 
ATOM     17  C   UNL     1       2.021  14.242  18.738  0.00  0.00    +0.000 C 
ATOM     18  C   UNL     1       2.765  13.067  18.208  0.00  0.00    +0.000 C 
ENDBRANCH  15  16
ENDBRANCH   9  11
ENDBRANCH   3   5
BRANCH   1  19
ATOM     19  C   UNL     1       4.044   5.520  17.107  0.00  0.00    +0.000 C 
BRANCH  19  25
ATOM     20  C   UNL     1       4.483   1.721  20.223  0.00  0.00    +0.000 C 
ATOM     21  C   UNL     1       3.623   2.886  19.756  0.00  0.00    +0.000 C 
ATOM     22  N   UNL     1       2.782   2.507  18.643  0.00  0.00    +0.000 N 
ATOM     23  C   UNL     1       2.867   3.398  17.600  0.00  0.00    +0.000 C 
ATOM     24  O   UNL     1       2.275   3.294  16.536  0.00  0.00    +0.000 OA
ATOM     25  N   UNL     1       3.745   4.378  17.937  0.00  0.00    +0.000 N 
ATOM     26  C   UNL     1       4.430   4.011  19.061  0.00  0.00    +0.000 C 
ATOM     27  O   UNL     1       5.455   4.523  19.486  0.00  0.00    +0.000 OA
ATOM     28  H   UNL     1       2.142   1.724  18.627  0.00  0.00    +0.000 HD
BRANCH  21  29
ATOM     29  C   UNL     1       2.865   3.520  20.903  0.00  0.00    +0.000 C 
ATOM     30  C   UNL     1       1.853   2.793  21.754  0.00  0.00    +0.000 C 
ATOM     31  C   UNL     1       1.397   3.876  20.817  0.00  0.00    +0.000 C 
ENDBRANCH  21  29
ENDBRANCH  19  25
ENDBRANCH   1  19
TORSDOF 6
ENDMDL
