MODEL 1
REMARK VINA RESULT:      -8.9      0.000      0.000
REMARK  Name = 
REMARK  5 active torsions:
REMARK  status: ('A' for Active; 'I' for Inactive)
REMARK    1  A    between atoms: C_1  and  N_2
REMARK    2  A    between atoms: C_5  and  C_6
REMARK    3  A    between atoms: C_10  and  N_11
REMARK    4  A    between atoms: C_18  and  C_19
REMARK    5  A    between atoms: N_27  and  C_28
REMARK                            x       y       z     vdW  Elec       q    Type
REMARK                         _______ _______ _______ _____ _____    ______ ____
ROOT
ATOM      1  C   UNL     1       1.181   9.307  19.532  0.00  0.00    +0.000 A 
ATOM      2  C   UNL     1       0.885   8.627  20.721  0.00  0.00    +0.000 A 
ATOM      3  C   UNL     1       1.495   7.411  21.010  0.00  0.00    +0.000 A 
ATOM      4  C   UNL     1       2.327   6.815  20.072  0.00  0.00    +0.000 A 
ATOM      5  C   UNL     1       2.437   7.370  18.787  0.00  0.00    +0.000 A 
ATOM      6  C   UNL     1       1.990   8.678  18.573  0.00  0.00    +0.000 A 
ENDROOT
BRANCH   5   7
ATOM      7  N   UNL     1       2.555   6.490  17.631  0.00  0.00    +0.000 N 
ATOM      8  C   UNL     1       1.681   5.302  17.806  0.00  0.00    +0.000 C 
ATOM      9  C   UNL     1       2.603   4.335  18.487  0.00  0.00    +0.000 A 
ATOM     10  C   UNL     1       3.906   4.660  18.095  0.00  0.00    +0.000 A 
ATOM     11  C   UNL     1       5.031   4.089  18.660  0.00  0.00    +0.000 A 
ATOM     12  C   UNL     1       4.829   3.157  19.675  0.00  0.00    +0.000 A 
ATOM     13  C   UNL     1       3.525   2.829  20.094  0.00  0.00    +0.000 A 
ATOM     14  C   UNL     1       2.382   3.414  19.505  0.00  0.00    +0.000 A 
ATOM     15  C   UNL     1       3.855   5.965  17.400  0.00  0.00    +0.000 C 
ATOM     16  O   UNL     1       4.825   6.530  16.929  0.00  0.00    +0.000 OA
BRANCH  14  17
ATOM     17  C   UNL     1       1.022   3.107  20.079  0.00  0.00    +0.000 C 
ATOM     18  F   UNL     1       0.301   4.206  20.429  0.00  0.00    +0.000 F 
ATOM     19  F   UNL     1       0.240   2.418  19.202  0.00  0.00    +0.000 F 
ATOM     20  F   UNL     1       1.093   2.338  21.201  0.00  0.00    +0.000 F 
ENDBRANCH  14  17
ENDBRANCH   5   7
BRANCH   1  25
ATOM     21  C   UNL     1      -1.154  13.200  22.890  0.00  0.00    +0.000 C 
ATOM     22  N   UNL     1       0.006  12.893  22.073  0.00  0.00    +0.000 NA
ATOM     23  C   UNL     1      -0.159  12.162  21.030  0.00  0.00    +0.000 C 
ATOM     24  C   UNL     1       1.093  11.757  20.277  0.00  0.00    +0.000 C 
ATOM     25  C   UNL     1       0.600  10.685  19.302  0.00  0.00    +0.000 C 
ATOM     26  C   UNL     1      -0.933  10.664  19.401  0.00  0.00    +0.000 C 
ATOM     27  N   UNL     1      -1.281  11.655  20.415  0.00  0.00    +0.000 N 
ATOM     28  C   UNL     1      -2.417  12.514  20.099  0.00  0.00    +0.000 C 
ENDBRANCH   1  25
TORSDOF 3
ENDMDL
MODEL 2
REMARK VINA RESULT:      -8.8      2.856      3.684
REMARK  Name = 
REMARK  5 active torsions:
REMARK  status: ('A' for Active; 'I' for Inactive)
REMARK    1  A    between atoms: C_1  and  N_2
REMARK    2  A    between atoms: C_5  and  C_6
REMARK    3  A    between atoms: C_10  and  N_11
REMARK    4  A    between atoms: C_18  and  C_19
REMARK    5  A    between atoms: N_27  and  C_28
REMARK                            x       y       z     vdW  Elec       q    Type
REMARK                         _______ _______ _______ _____ _____    ______ ____
ROOT
ATOM      1  C   UNL     1       1.269   8.818  19.405  0.00  0.00    +0.000 A 
ATOM      2  C   UNL     1       1.947   9.276  18.267  0.00  0.00    +0.000 A 
ATOM      3  C   UNL     1       2.771   8.420  17.544  0.00  0.00    +0.000 A 
ATOM      4  C   UNL     1       3.006   7.132  18.006  0.00  0.00    +0.000 A 
ATOM      5  C   UNL     1       2.526   6.748  19.268  0.00  0.00    +0.000 A 
ATOM      6  C   UNL     1       1.544   7.530  19.888  0.00  0.00    +0.000 A 
ENDROOT
BRANCH   5   7
ATOM      7  N   UNL     1       3.332   5.870  20.108  0.00  0.00    +0.000 N 
ATOM      8  C   UNL     1       4.554   5.452  19.376  0.00  0.00    +0.000 C 
ATOM      9  C   UNL     1       4.099   4.191  18.703  0.00  0.00    +0.000 A 
ATOM     10  C   UNL     1       3.081   3.645  19.492  0.00  0.00    +0.000 A 
ATOM     11  C   UNL     1       2.307   2.572  19.093  0.00  0.00    +0.000 A 
ATOM     12  C   UNL     1       2.566   2.036  17.834  0.00  0.00    +0.000 A 
ATOM     13  C   UNL     1       3.576   2.582  17.018  0.00  0.00    +0.000 A 
ATOM     14  C   UNL     1       4.365   3.675  17.439  0.00  0.00    +0.000 A 
ATOM     15  C   UNL     1       2.700   4.659  20.500  0.00  0.00    +0.000 C 
ATOM     16  O   UNL     1       1.841   4.495  21.347  0.00  0.00    +0.000 OA
BRANCH  14  17
ATOM     17  C   UNL     1       5.349   4.286  16.473  0.00  0.00    +0.000 C 
ATOM     18  F   UNL     1       5.642   3.500  15.402  0.00  0.00    +0.000 F 
ATOM     19  F   UNL     1       4.896   5.460  15.955  0.00  0.00    +0.000 F 
ATOM     20  F   UNL     1       6.544   4.572  17.061  0.00  0.00    +0.000 F 
ENDBRANCH  14  17
ENDBRANCH   5   7
BRANCH   1  25
ATOM     21  C   UNL     1      -0.270  14.203  18.689  0.00  0.00    +0.000 C 
ATOM     22  N   UNL     1      -0.713  12.826  18.566  0.00  0.00    +0.000 NA
ATOM     23  C   UNL     1      -0.252  11.961  19.396  0.00  0.00    +0.000 C 
ATOM     24  C   UNL     1      -0.634  10.514  19.156  0.00  0.00    +0.000 C 
ATOM     25  C   UNL     1       0.284   9.733  20.099  0.00  0.00    +0.000 C 
ATOM     26  C   UNL     1       1.008  10.768  20.974  0.00  0.00    +0.000 C 
ATOM     27  N   UNL     1       0.543  12.074  20.514  0.00  0.00    +0.000 N 
ATOM     28  C   UNL     1       0.233  13.041  21.561  0.00  0.00    +0.000 C 
ENDBRANCH   1  25
TORSDOF 3
ENDMDL
MODEL 3
REMARK VINA RESULT:      -8.7      0.776      1.075
REMARK  Name = 
REMARK  5 active torsions:
REMARK  status: ('A' for Active; 'I' for Inactive)
REMARK    1  A    between atoms: C_1  and  N_2
REMARK    2  A    between atoms: C_5  and  C_6
REMARK    3  A    between atoms: C_10  and  N_11
REMARK    4  A    between atoms: C_18  and  C_19
REMARK    5  A    between atoms: N_27  and  C_28
REMARK                            x       y       z     vdW  Elec       q    Type
REMARK                         _______ _______ _______ _____ _____    ______ ____
ROOT
ATOM      1  C   UNL     1       1.408   9.074  18.999  0.00  0.00    +0.000 A 
ATOM      2  C   UNL     1       1.179   8.562  20.284  0.00  0.00    +0.000 A 
ATOM      3  C   UNL     1       1.827   7.408  20.710  0.00  0.00    +0.000 A 
ATOM      4  C   UNL     1       2.628   6.697  19.825  0.00  0.00    +0.000 A 
ATOM      5  C   UNL     1       2.667   7.068  18.472  0.00  0.00    +0.000 A 
ATOM      6  C   UNL     1       2.184   8.327  18.099  0.00  0.00    +0.000 A 
ENDROOT
BRANCH   5   7
ATOM      7  N   UNL     1       2.750   6.036  17.445  0.00  0.00    +0.000 N 
ATOM      8  C   UNL     1       1.798   4.939  17.752  0.00  0.00    +0.000 C 
ATOM      9  C   UNL     1       2.643   4.016  18.579  0.00  0.00    +0.000 A 
ATOM     10  C   UNL     1       3.971   4.205  18.184  0.00  0.00    +0.000 A 
ATOM     11  C   UNL     1       5.046   3.646  18.850  0.00  0.00    +0.000 A 
ATOM     12  C   UNL     1       4.764   2.872  19.972  0.00  0.00    +0.000 A 
ATOM     13  C   UNL     1       3.434   2.683  20.395  0.00  0.00    +0.000 A 
ATOM     14  C   UNL     1       2.343   3.254  19.703  0.00  0.00    +0.000 A 
ATOM     15  C   UNL     1       4.018   5.407  17.322  0.00  0.00    +0.000 C 
ATOM     16  O   UNL     1       5.031   5.843  16.807  0.00  0.00    +0.000 OA
BRANCH  14  17
ATOM     17  C   UNL     1       0.955   3.111  20.275  0.00  0.00    +0.000 C 
ATOM     18  F   UNL     1       0.906   2.461  21.469  0.00  0.00    +0.000 F 
ATOM     19  F   UNL     1       0.361   4.317  20.487  0.00  0.00    +0.000 F 
ATOM     20  F   UNL     1       0.121   2.424  19.445  0.00  0.00    +0.000 F 
ENDBRANCH  14  17
ENDBRANCH   5   7
BRANCH   1  25
ATOM     21  C   UNL     1      -2.226  12.605  21.492  0.00  0.00    +0.000 C 
ATOM     22  N   UNL     1      -0.846  12.438  21.071  0.00  0.00    +0.000 NA
ATOM     23  C   UNL     1      -0.609  11.733  20.024  0.00  0.00    +0.000 C 
ATOM     24  C   UNL     1       0.848  11.475  19.692  0.00  0.00    +0.000 C 
ATOM     25  C   UNL     1       0.788  10.397  18.607  0.00  0.00    +0.000 C 
ATOM     26  C   UNL     1      -0.691  10.227  18.229  0.00  0.00    +0.000 C 
ATOM     27  N   UNL     1      -1.431  11.144  19.091  0.00  0.00    +0.000 N 
ATOM     28  C   UNL     1      -2.497  11.902  18.445  0.00  0.00    +0.000 C 
ENDBRANCH   1  25
TORSDOF 3
ENDMDL
MODEL 4
REMARK VINA RESULT:      -8.6      2.977      3.814
REMARK  Name = 
REMARK  5 active torsions:
REMARK  status: ('A' for Active; 'I' for Inactive)
REMARK    1  A    between atoms: C_1  and  N_2
REMARK    2  A    between atoms: C_5  and  C_6
REMARK    3  A    between atoms: C_10  and  N_11
REMARK    4  A    between atoms: C_18  and  C_19
REMARK    5  A    between atoms: N_27  and  C_28
REMARK                            x       y       z     vdW  Elec       q    Type
REMARK                         _______ _______ _______ _____ _____    ______ ____
ROOT
ATOM      1  C   UNL     1       1.643   8.926  19.147  0.00  0.00    +0.000 A 
ATOM      2  C   UNL     1       2.291   9.141  17.923  0.00  0.00    +0.000 A 
ATOM      3  C   UNL     1       2.939   8.096  17.274  0.00  0.00    +0.000 A 
ATOM      4  C   UNL     1       3.035   6.854  17.888  0.00  0.00    +0.000 A 
ATOM      5  C   UNL     1       2.602   6.699  19.214  0.00  0.00    +0.000 A 
ATOM      6  C   UNL     1       1.780   7.681  19.778  0.00  0.00    +0.000 A 
ENDROOT
BRANCH   5   7
ATOM      7  N   UNL     1       3.344   5.826  20.116  0.00  0.00    +0.000 N 
ATOM      8  C   UNL     1       4.587   5.355  19.455  0.00  0.00    +0.000 C 
ATOM      9  C   UNL     1       4.129   4.086  18.798  0.00  0.00    +0.000 A 
ATOM     10  C   UNL     1       3.061   3.591  19.554  0.00  0.00    +0.000 A 
ATOM     11  C   UNL     1       2.277   2.527  19.150  0.00  0.00    +0.000 A 
ATOM     12  C   UNL     1       2.579   1.946  17.922  0.00  0.00    +0.000 A 
ATOM     13  C   UNL     1       3.641   2.441  17.138  0.00  0.00    +0.000 A 
ATOM     14  C   UNL     1       4.439   3.526  17.564  0.00  0.00    +0.000 A 
ATOM     15  C   UNL     1       2.662   4.645  20.513  0.00  0.00    +0.000 C 
ATOM     16  O   UNL     1       1.761   4.529  21.323  0.00  0.00    +0.000 OA
BRANCH  14  17
ATOM     17  C   UNL     1       5.483   4.080  16.628  0.00  0.00    +0.000 C 
ATOM     18  F   UNL     1       5.124   5.241  16.014  0.00  0.00    +0.000 F 
ATOM     19  F   UNL     1       6.654   4.350  17.268  0.00  0.00    +0.000 F 
ATOM     20  F   UNL     1       5.795   3.212  15.625  0.00  0.00    +0.000 F 
ENDBRANCH  14  17
ENDBRANCH   5   7
BRANCH   1  25
ATOM     21  C   UNL     1      -3.075  11.661  17.682  0.00  0.00    +0.000 C 
ATOM     22  N   UNL     1      -2.501  10.731  18.640  0.00  0.00    +0.000 NA
ATOM     23  C   UNL     1      -1.259  10.856  18.941  0.00  0.00    +0.000 C 
ATOM     24  C   UNL     1      -0.666   9.790  19.841  0.00  0.00    +0.000 C 
ATOM     25  C   UNL     1       0.841  10.048  19.767  0.00  0.00    +0.000 C 
ATOM     26  C   UNL     1       1.030  11.361  18.992  0.00  0.00    +0.000 C 
ATOM     27  N   UNL     1      -0.311  11.799  18.615  0.00  0.00    +0.000 N 
ATOM     28  C   UNL     1      -0.582  13.223  18.777  0.00  0.00    +0.000 C 
ENDBRANCH   1  25
TORSDOF 3
ENDMDL
MODEL 5
REMARK VINA RESULT:      -8.6      1.031      1.346
REMARK  Name = 
REMARK  5 active torsions:
REMARK  status: ('A' for Active; 'I' for Inactive)
REMARK    1  A    between atoms: C_1  and  N_2
REMARK    2  A    between atoms: C_5  and  C_6
REMARK    3  A    between atoms: C_10  and  N_11
REMARK    4  A    between atoms: C_18  and  C_19
REMARK    5  A    between atoms: N_27  and  C_28
REMARK                            x       y       z     vdW  Elec       q    Type
REMARK                         _______ _______ _______ _____ _____    ______ ____
ROOT
ATOM      1  C   UNL     1       1.432   9.161  18.990  0.00  0.00    +0.000 A 
ATOM      2  C   UNL     1       1.116   8.645  20.254  0.00  0.00    +0.000 A 
ATOM      3  C   UNL     1       1.693   7.459  20.697  0.00  0.00    +0.000 A 
ATOM      4  C   UNL     1       2.508   6.726  19.844  0.00  0.00    +0.000 A 
ATOM      5  C   UNL     1       2.633   7.111  18.500  0.00  0.00    +0.000 A 
ATOM      6  C   UNL     1       2.222   8.393  18.121  0.00  0.00    +0.000 A 
ENDROOT
BRANCH   5   7
ATOM      7  N   UNL     1       2.727   6.088  17.465  0.00  0.00    +0.000 N 
ATOM      8  C   UNL     1       1.783   4.980  17.760  0.00  0.00    +0.000 C 
ATOM      9  C   UNL     1       2.633   4.057  18.581  0.00  0.00    +0.000 A 
ATOM     10  C   UNL     1       3.961   4.261  18.190  0.00  0.00    +0.000 A 
ATOM     11  C   UNL     1       5.039   3.705  18.854  0.00  0.00    +0.000 A 
ATOM     12  C   UNL     1       4.761   2.919  19.969  0.00  0.00    +0.000 A 
ATOM     13  C   UNL     1       3.432   2.716  20.388  0.00  0.00    +0.000 A 
ATOM     14  C   UNL     1       2.337   3.284  19.698  0.00  0.00    +0.000 A 
ATOM     15  C   UNL     1       3.999   5.470  17.339  0.00  0.00    +0.000 C 
ATOM     16  O   UNL     1       5.010   5.918  16.830  0.00  0.00    +0.000 OA
BRANCH  14  17
ATOM     17  C   UNL     1       0.950   3.124  20.266  0.00  0.00    +0.000 C 
ATOM     18  F   UNL     1       0.903   2.459  21.451  0.00  0.00    +0.000 F 
ATOM     19  F   UNL     1       0.348   4.324  20.493  0.00  0.00    +0.000 F 
ATOM     20  F   UNL     1       0.121   2.442  19.426  0.00  0.00    +0.000 F 
ENDBRANCH  14  17
ENDBRANCH   5   7
BRANCH   1  25
ATOM     21  C   UNL     1       1.662  14.327  21.256  0.00  0.00    +0.000 C 
ATOM     22  N   UNL     1       2.117  13.506  20.148  0.00  0.00    +0.000 NA
ATOM     23  C   UNL     1       1.343  12.573  19.723  0.00  0.00    +0.000 C 
ATOM     24  C   UNL     1       1.905  11.656  18.655  0.00  0.00    +0.000 C 
ATOM     25  C   UNL     1       0.889  10.514  18.585  0.00  0.00    +0.000 C 
ATOM     26  C   UNL     1      -0.301  10.921  19.468  0.00  0.00    +0.000 C 
ATOM     27  N   UNL     1       0.051  12.219  20.037  0.00  0.00    +0.000 N 
ATOM     28  C   UNL     1      -1.016  13.213  20.057  0.00  0.00    +0.000 C 
ENDBRANCH   1  25
TORSDOF 3
ENDMDL
MODEL 6
REMARK VINA RESULT:      -8.3      4.467      7.418
REMARK  Name = 
REMARK  5 active torsions:
REMARK  status: ('A' for Active; 'I' for Inactive)
REMARK    1  A    between atoms: C_1  and  N_2
REMARK    2  A    between atoms: C_5  and  C_6
REMARK    3  A    between atoms: C_10  and  N_11
REMARK    4  A    between atoms: C_18  and  C_19
REMARK    5  A    between atoms: N_27  and  C_28
REMARK                            x       y       z     vdW  Elec       q    Type
REMARK                         _______ _______ _______ _____ _____    ______ ____
ROOT
ATOM      1  C   UNL     1      -4.615  11.773  17.912  0.00  0.00    +0.000 A 
ATOM      2  C   UNL     1      -4.200  11.167  16.718  0.00  0.00    +0.000 A 
ATOM      3  C   UNL     1      -2.939  10.587  16.622  0.00  0.00    +0.000 A 
ATOM      4  C   UNL     1      -2.045  10.697  17.679  0.00  0.00    +0.000 A 
ATOM      5  C   UNL     1      -2.365  11.509  18.779  0.00  0.00    +0.000 A 
ATOM      6  C   UNL     1      -3.691  11.916  18.958  0.00  0.00    +0.000 A 
ENDROOT
BRANCH   5   7
ATOM      7  N   UNL     1      -1.316  12.287  19.428  0.00  0.00    +0.000 N 
ATOM      8  C   UNL     1       0.015  11.856  18.930  0.00  0.00    +0.000 C 
ATOM      9  C   UNL     1       0.378  10.777  19.905  0.00  0.00    +0.000 A 
ATOM     10  C   UNL     1      -0.275  11.069  21.107  0.00  0.00    +0.000 A 
ATOM     11  C   UNL     1      -0.310  10.198  22.181  0.00  0.00    +0.000 A 
ATOM     12  C   UNL     1       0.335   8.974  22.026  0.00  0.00    +0.000 A 
ATOM     13  C   UNL     1       0.985   8.655  20.818  0.00  0.00    +0.000 A 
ATOM     14  C   UNL     1       1.019   9.555  19.729  0.00  0.00    +0.000 A 
ATOM     15  C   UNL     1      -1.248  12.151  20.840  0.00  0.00    +0.000 C 
ATOM     16  O   UNL     1      -1.977  12.641  21.682  0.00  0.00    +0.000 OA
BRANCH  14  17
ATOM     17  C   UNL     1       1.629   9.108  18.425  0.00  0.00    +0.000 C 
ATOM     18  F   UNL     1       2.355   7.960  18.512  0.00  0.00    +0.000 F 
ATOM     19  F   UNL     1       0.686   8.875  17.472  0.00  0.00    +0.000 F 
ATOM     20  F   UNL     1       2.472  10.040  17.899  0.00  0.00    +0.000 F 
ENDBRANCH  14  17
ENDBRANCH   5   7
BRANCH   1  25
ATOM     21  C   UNL     1      -7.241  16.498  16.280  0.00  0.00    +0.000 C 
ATOM     22  N   UNL     1      -7.133  15.069  16.044  0.00  0.00    +0.000 NA
ATOM     23  C   UNL     1      -6.853  14.307  17.039  0.00  0.00    +0.000 C 
ATOM     24  C   UNL     1      -6.621  12.841  16.729  0.00  0.00    +0.000 C 
ATOM     25  C   UNL     1      -6.034  12.283  18.028  0.00  0.00    +0.000 C 
ATOM     26  C   UNL     1      -6.138  13.399  19.080  0.00  0.00    +0.000 C 
ATOM     27  N   UNL     1      -6.724  14.545  18.388  0.00  0.00    +0.000 N 
ATOM     28  C   UNL     1      -7.752  15.273  19.124  0.00  0.00    +0.000 C 
ENDBRANCH   1  25
TORSDOF 3
ENDMDL
MODEL 7
REMARK VINA RESULT:      -8.3      2.830      3.549
REMARK  Name = 
REMARK  5 active torsions:
REMARK  status: ('A' for Active; 'I' for Inactive)
REMARK    1  A    between atoms: C_1  and  N_2
REMARK    2  A    between atoms: C_5  and  C_6
REMARK    3  A    between atoms: C_10  and  N_11
REMARK    4  A    between atoms: C_18  and  C_19
REMARK    5  A    between atoms: N_27  and  C_28
REMARK                            x       y       z     vdW  Elec       q    Type
REMARK                         _______ _______ _______ _____ _____    ______ ____
ROOT
ATOM      1  C   UNL     1       1.188   8.842  19.078  0.00  0.00    +0.000 A 
ATOM      2  C   UNL     1       2.006   9.369  18.069  0.00  0.00    +0.000 A 
ATOM      3  C   UNL     1       2.977   8.579  17.463  0.00  0.00    +0.000 A 
ATOM      4  C   UNL     1       3.210   7.291  17.927  0.00  0.00    +0.000 A 
ATOM      5  C   UNL     1       2.564   6.844  19.091  0.00  0.00    +0.000 A 
ATOM      6  C   UNL     1       1.458   7.555  19.568  0.00  0.00    +0.000 A 
ENDROOT
BRANCH   5   7
ATOM      7  N   UNL     1       3.280   5.983  20.025  0.00  0.00    +0.000 N 
ATOM      8  C   UNL     1       4.539   5.499  19.404  0.00  0.00    +0.000 C 
ATOM      9  C   UNL     1       4.095   4.222  18.754  0.00  0.00    +0.000 A 
ATOM     10  C   UNL     1       3.007   3.741  19.489  0.00  0.00    +0.000 A 
ATOM     11  C   UNL     1       2.231   2.672  19.080  0.00  0.00    +0.000 A 
ATOM     12  C   UNL     1       2.564   2.073  17.869  0.00  0.00    +0.000 A 
ATOM     13  C   UNL     1       3.647   2.553  17.107  0.00  0.00    +0.000 A 
ATOM     14  C   UNL     1       4.437   3.642  17.537  0.00  0.00    +0.000 A 
ATOM     15  C   UNL     1       2.585   4.809  20.421  0.00  0.00    +0.000 C 
ATOM     16  O   UNL     1       1.662   4.708  21.209  0.00  0.00    +0.000 OA
BRANCH  14  17
ATOM     17  C   UNL     1       5.506   4.181  16.621  0.00  0.00    +0.000 C 
ATOM     18  F   UNL     1       6.679   4.476  17.243  0.00  0.00    +0.000 F 
ATOM     19  F   UNL     1       5.825   3.301  15.633  0.00  0.00    +0.000 F 
ATOM     20  F   UNL     1       5.122   5.327  15.992  0.00  0.00    +0.000 F 
ENDBRANCH  14  17
ENDBRANCH   5   7
BRANCH   1  25
ATOM     21  C   UNL     1       0.900  13.938  21.493  0.00  0.00    +0.000 C 
ATOM     22  N   UNL     1       0.556  13.176  20.305  0.00  0.00    +0.000 NA
ATOM     23  C   UNL     1       0.285  11.928  20.438  0.00  0.00    +0.000 C 
ATOM     24  C   UNL     1       0.060  11.140  19.163  0.00  0.00    +0.000 C 
ATOM     25  C   UNL     1       0.059   9.683  19.632  0.00  0.00    +0.000 C 
ATOM     26  C   UNL     1       0.086   9.708  21.168  0.00  0.00    +0.000 C 
ATOM     27  N   UNL     1       0.138  11.119  21.542  0.00  0.00    +0.000 N 
ATOM     28  C   UNL     1      -0.721  11.512  22.653  0.00  0.00    +0.000 C 
ENDBRANCH   1  25
TORSDOF 3
ENDMDL
MODEL 8
REMARK VINA RESULT:      -8.1      3.357      8.088
REMARK  Name = 
REMARK  5 active torsions:
REMARK  status: ('A' for Active; 'I' for Inactive)
REMARK    1  A    between atoms: C_1  and  N_2
REMARK    2  A    between atoms: C_5  and  C_6
REMARK    3  A    between atoms: C_10  and  N_11
REMARK    4  A    between atoms: C_18  and  C_19
REMARK    5  A    between atoms: N_27  and  C_28
REMARK                            x       y       z     vdW  Elec       q    Type
REMARK                         _______ _______ _______ _____ _____    ______ ____
ROOT
ATOM      1  C   UNL     1       2.431   7.013  19.276  0.00  0.00    +0.000 A 
ATOM      2  C   UNL     1       2.474   7.603  18.005  0.00  0.00    +0.000 A 
ATOM      3  C   UNL     1       2.049   8.914  17.821  0.00  0.00    +0.000 A 
ATOM      4  C   UNL     1       1.481   9.613  18.879  0.00  0.00    +0.000 A 
ATOM      5  C   UNL     1       1.213   8.949  20.086  0.00  0.00    +0.000 A 
ATOM      6  C   UNL     1       1.819   7.711  20.329  0.00  0.00    +0.000 A 
ENDROOT
BRANCH   5   7
ATOM      7  N   UNL     1       0.008   9.279  20.837  0.00  0.00    +0.000 N 
ATOM      8  C   UNL     1      -1.179   9.204  19.947  0.00  0.00    +0.000 C 
ATOM      9  C   UNL     1      -1.265  10.606  19.423  0.00  0.00    +0.000 A 
ATOM     10  C   UNL     1      -0.700  11.445  20.389  0.00  0.00    +0.000 A 
ATOM     11  C   UNL     1      -0.451  12.787  20.174  0.00  0.00    +0.000 A 
ATOM     12  C   UNL     1      -0.778  13.301  18.922  0.00  0.00    +0.000 A 
ATOM     13  C   UNL     1      -1.333  12.469  17.931  0.00  0.00    +0.000 A 
ATOM     14  C   UNL     1      -1.588  11.099  18.163  0.00  0.00    +0.000 A 
ATOM     15  C   UNL     1      -0.022  10.588  21.388  0.00  0.00    +0.000 C 
ATOM     16  O   UNL     1       0.567  11.010  22.365  0.00  0.00    +0.000 OA
BRANCH  14  17
ATOM     17  C   UNL     1      -2.074  10.239  17.024  0.00  0.00    +0.000 C 
ATOM     18  F   UNL     1      -3.232   9.573  17.280  0.00  0.00    +0.000 F 
ATOM     19  F   UNL     1      -2.308  10.966  15.897  0.00  0.00    +0.000 F 
ATOM     20  F   UNL     1      -1.168   9.284  16.672  0.00  0.00    +0.000 F 
ENDBRANCH  14  17
ENDBRANCH   5   7
BRANCH   1  25
ATOM     21  C   UNL     1       5.710   3.652  16.140  0.00  0.00    +0.000 C 
ATOM     22  N   UNL     1       5.664   4.463  17.344  0.00  0.00    +0.000 NA
ATOM     23  C   UNL     1       4.547   4.563  17.970  0.00  0.00    +0.000 C 
ATOM     24  C   UNL     1       4.508   5.519  19.145  0.00  0.00    +0.000 C 
ATOM     25  C   UNL     1       3.017   5.632  19.472  0.00  0.00    +0.000 C 
ATOM     26  C   UNL     1       2.290   4.593  18.605  0.00  0.00    +0.000 C 
ATOM     27  N   UNL     1       3.326   3.952  17.799  0.00  0.00    +0.000 N 
ATOM     28  C   UNL     1       3.223   2.502  17.671  0.00  0.00    +0.000 C 
ENDBRANCH   1  25
TORSDOF 3
ENDMDL
MODEL 9
REMARK VINA RESULT:      -8.1      3.131      4.675
REMARK  Name = 
REMARK  5 active torsions:
REMARK  status: ('A' for Active; 'I' for Inactive)
REMARK    1  A    between atoms: C_1  and  N_2
REMARK    2  A    between atoms: C_5  and  C_6
REMARK    3  A    between atoms: C_10  and  N_11
REMARK    4  A    between atoms: C_18  and  C_19
REMARK    5  A    between atoms: N_27  and  C_28
REMARK                            x       y       z     vdW  Elec       q    Type
REMARK                         _______ _______ _______ _____ _____    ______ ____
ROOT
ATOM      1  C   UNL     1       2.397   6.078  20.073  0.00  0.00    +0.000 A 
ATOM      2  C   UNL     1       1.190   5.510  20.503  0.00  0.00    +0.000 A 
ATOM      3  C   UNL     1       1.072   4.132  20.654  0.00  0.00    +0.000 A 
ATOM      4  C   UNL     1       2.122   3.303  20.282  0.00  0.00    +0.000 A 
ATOM      5  C   UNL     1       3.238   3.847  19.626  0.00  0.00    +0.000 A 
ATOM      6  C   UNL     1       3.437   5.231  19.660  0.00  0.00    +0.000 A 
ENDROOT
BRANCH   5   7
ATOM      7  N   UNL     1       3.889   3.087  18.565  0.00  0.00    +0.000 N 
ATOM      8  C   UNL     1       5.361   3.265  18.645  0.00  0.00    +0.000 C 
ATOM      9  C   UNL     1       5.579   4.457  17.761  0.00  0.00    +0.000 A 
ATOM     10  C   UNL     1       4.546   4.467  16.818  0.00  0.00    +0.000 A 
ATOM     11  C   UNL     1       4.327   5.517  15.947  0.00  0.00    +0.000 A 
ATOM     12  C   UNL     1       5.182   6.611  16.043  0.00  0.00    +0.000 A 
ATOM     13  C   UNL     1       6.218   6.628  16.998  0.00  0.00    +0.000 A 
ATOM     14  C   UNL     1       6.437   5.546  17.879  0.00  0.00    +0.000 A 
ATOM     15  C   UNL     1       3.539   3.471  17.243  0.00  0.00    +0.000 C 
ATOM     16  O   UNL     1       2.513   3.229  16.633  0.00  0.00    +0.000 OA
BRANCH  14  17
ATOM     17  C   UNL     1       7.486   5.675  18.954  0.00  0.00    +0.000 C 
ATOM     18  F   UNL     1       7.007   5.560  20.222  0.00  0.00    +0.000 F 
ATOM     19  F   UNL     1       8.455   4.725  18.840  0.00  0.00    +0.000 F 
ATOM     20  F   UNL     1       8.131   6.874  18.908  0.00  0.00    +0.000 F 
ENDBRANCH  14  17
ENDBRANCH   5   7
BRANCH   1  25
ATOM     21  C   UNL     1      -1.195  10.337  19.157  0.00  0.00    +0.000 C 
ATOM     22  N   UNL     1      -0.378   9.681  20.163  0.00  0.00    +0.000 NA
ATOM     23  C   UNL     1       0.719   9.126  19.790  0.00  0.00    +0.000 C 
ATOM     24  C   UNL     1       1.477   8.341  20.842  0.00  0.00    +0.000 C 
ATOM     25  C   UNL     1       2.536   7.584  20.038  0.00  0.00    +0.000 C 
ATOM     26  C   UNL     1       2.466   8.114  18.597  0.00  0.00    +0.000 C 
ATOM     27  N   UNL     1       1.388   9.100  18.588  0.00  0.00    +0.000 N 
ATOM     28  C   UNL     1       1.660  10.330  17.852  0.00  0.00    +0.000 C 
ENDBRANCH   1  25
TORSDOF 3
ENDMDL
