MODEL 1
REMARK VINA RESULT:      -9.6      0.000      0.000
REMARK  Name = 
REMARK  3 active torsions:
REMARK  status: ('A' for Active; 'I' for Inactive)
REMARK    1  A    between atoms: C_1  and  C_2
REMARK    2  A    between atoms: C_2  and  C_3
REMARK    3  A    between atoms: C_7  and  C_8
REMARK                            x       y       z     vdW  Elec       q    Type
REMARK                         _______ _______ _______ _____ _____    ______ ____
ROOT
ATOM      1  C   UNL     1       2.262   7.050  19.439  0.00  0.00    +0.000 A 
ATOM      2  C   UNL     1       2.262   7.650  18.167  0.00  0.00    +0.000 A 
ATOM      3  C   UNL     1       1.697   8.908  17.954  0.00  0.00    +0.000 A 
ATOM      4  C   UNL     1       1.116   9.601  19.020  0.00  0.00    +0.000 A 
ATOM      5  C   UNL     1       1.154   9.072  20.307  0.00  0.00    +0.000 A 
ATOM      6  C   UNL     1       1.705   7.785  20.511  0.00  0.00    +0.000 A 
ENDROOT
BRANCH   5   7
ATOM      7  C   UNL     1       0.479   9.739  21.454  0.00  0.00    +0.000 C 
ATOM      8  O   UNL     1       0.681   9.256  22.570  0.00  0.00    +0.000 OA
ATOM      9  N   UNL     1      -0.364  10.839  21.277  0.00  0.00    +0.000 N 
ATOM     10  C   UNL     1      -1.130  11.319  22.453  0.00  0.00    +0.000 C 
ATOM     11  C   UNL     1      -1.747  12.717  22.244  0.00  0.00    +0.000 C 
ATOM     12  C   UNL     1      -2.584  12.617  20.991  0.00  0.00    +0.000 A 
ATOM     13  C   UNL     1      -3.939  12.933  20.983  0.00  0.00    +0.000 A 
ATOM     14  F   UNL     1      -4.502  13.533  22.039  0.00  0.00    +0.000 F 
ATOM     15  C   UNL     1      -4.738  12.546  19.917  0.00  0.00    +0.000 A 
ATOM     16  C   UNL     1      -4.166  11.887  18.825  0.00  0.00    +0.000 A 
ATOM     17  C   UNL     1      -2.786  11.644  18.782  0.00  0.00    +0.000 A 
ATOM     18 BR   UNL     1      -2.108  10.791  17.231  0.00  0.00    +0.000 Br
ATOM     19  C   UNL     1      -1.982  11.990  19.872  0.00  0.00    +0.000 A 
ATOM     20  C   UNL     1      -0.524  11.619  20.043  0.00  0.00    +0.000 C 
ENDBRANCH   5   7
BRANCH   1  22
ATOM     21  C   UNL     1       4.204   5.428  19.029  0.00  0.00    +0.000 C 
ATOM     22  C   UNL     1       2.796   5.626  19.600  0.00  0.00    +0.000 C 
ATOM     23  N   UNL     1       2.769   5.144  20.971  0.00  0.00    +0.000 N 
ATOM     24  C   UNL     1       2.025   4.002  21.115  0.00  0.00    +0.000 C 
ATOM     25  O   UNL     1       1.976   3.327  22.127  0.00  0.00    +0.000 OA
ATOM     26  N   UNL     1       1.413   3.730  19.943  0.00  0.00    +0.000 N 
ATOM     27  C   UNL     1       1.840   4.575  18.972  0.00  0.00    +0.000 C 
ATOM     28  O   UNL     1       1.558   4.465  17.784  0.00  0.00    +0.000 OA
ATOM     29  H   UNL     1       3.386   5.452  21.709  0.00  0.00    +0.000 HD
ATOM     30  H   UNL     1       0.837   2.920  19.785  0.00  0.00    +0.000 HD
ENDBRANCH   1  22
TORSDOF 2
ENDMDL
MODEL 2
REMARK VINA RESULT:      -9.4      1.204      1.756
REMARK  Name = 
REMARK  3 active torsions:
REMARK  status: ('A' for Active; 'I' for Inactive)
REMARK    1  A    between atoms: C_1  and  C_2
REMARK    2  A    between atoms: C_2  and  C_3
REMARK    3  A    between atoms: C_7  and  C_8
REMARK                            x       y       z     vdW  Elec       q    Type
REMARK                         _______ _______ _______ _____ _____    ______ ____
ROOT
ATOM      1  C   UNL     1       2.204   6.934  19.325  0.00  0.00    +0.000 A 
ATOM      2  C   UNL     1       2.425   7.500  18.056  0.00  0.00    +0.000 A 
ATOM      3  C   UNL     1       2.097   8.828  17.782  0.00  0.00    +0.000 A 
ATOM      4  C   UNL     1       1.539   9.629  18.782  0.00  0.00    +0.000 A 
ATOM      5  C   UNL     1       1.365   9.127  20.070  0.00  0.00    +0.000 A 
ATOM      6  C   UNL     1       1.674   7.773  20.333  0.00  0.00    +0.000 A 
ENDROOT
BRANCH   5   7
ATOM      7  C   UNL     1       0.701   9.919  21.141  0.00  0.00    +0.000 C 
ATOM      8  O   UNL     1       0.968   9.608  22.303  0.00  0.00    +0.000 OA
ATOM      9  N   UNL     1      -0.202  10.945  20.850  0.00  0.00    +0.000 N 
ATOM     10  C   UNL     1      -0.945  11.553  21.980  0.00  0.00    +0.000 C 
ATOM     11  C   UNL     1      -1.638  12.879  21.607  0.00  0.00    +0.000 C 
ATOM     12  C   UNL     1      -2.516  12.567  20.418  0.00  0.00    +0.000 A 
ATOM     13  C   UNL     1      -3.884  12.819  20.426  0.00  0.00    +0.000 A 
ATOM     14  F   UNL     1      -4.436  13.537  21.412  0.00  0.00    +0.000 F 
ATOM     15  C   UNL     1      -4.702  12.251  19.460  0.00  0.00    +0.000 A 
ATOM     16  C   UNL     1      -4.140  11.471  18.446  0.00  0.00    +0.000 A 
ATOM     17  C   UNL     1      -2.752  11.285  18.376  0.00  0.00    +0.000 A 
ATOM     18 BR   UNL     1      -2.092  10.251  16.931  0.00  0.00    +0.000 Br
ATOM     19  C   UNL     1      -1.926  11.816  19.371  0.00  0.00    +0.000 A 
ATOM     20  C   UNL     1      -0.446  11.536  19.528  0.00  0.00    +0.000 C 
ENDBRANCH   5   7
BRANCH   1  22
ATOM     21  C   UNL     1       2.199   4.972  20.974  0.00  0.00    +0.000 C 
ATOM     22  C   UNL     1       2.479   5.446  19.544  0.00  0.00    +0.000 C 
ATOM     23  N   UNL     1       1.775   4.579  18.612  0.00  0.00    +0.000 N 
ATOM     24  C   UNL     1       2.626   3.787  17.884  0.00  0.00    +0.000 C 
ATOM     25  O   UNL     1       2.275   2.878  17.155  0.00  0.00    +0.000 OA
ATOM     26  N   UNL     1       3.897   4.149  18.155  0.00  0.00    +0.000 N 
ATOM     27  C   UNL     1       3.933   5.063  19.157  0.00  0.00    +0.000 C 
ATOM     28  O   UNL     1       4.959   5.456  19.700  0.00  0.00    +0.000 OA
ATOM     29  H   UNL     1       0.784   4.392  18.626  0.00  0.00    +0.000 HD
ATOM     30  H   UNL     1       4.706   3.689  17.770  0.00  0.00    +0.000 HD
ENDBRANCH   1  22
TORSDOF 2
ENDMDL
MODEL 3
REMARK VINA RESULT:      -9.3      2.811      3.965
REMARK  Name = 
REMARK  3 active torsions:
REMARK  status: ('A' for Active; 'I' for Inactive)
REMARK    1  A    between atoms: C_1  and  C_2
REMARK    2  A    between atoms: C_2  and  C_3
REMARK    3  A    between atoms: C_7  and  C_8
REMARK                            x       y       z     vdW  Elec       q    Type
REMARK                         _______ _______ _______ _____ _____    ______ ____
ROOT
ATOM      1  C   UNL     1       4.146   6.093  18.314  0.00  0.00    +0.000 A 
ATOM      2  C   UNL     1       4.059   7.094  17.330  0.00  0.00    +0.000 A 
ATOM      3  C   UNL     1       3.118   8.120  17.414  0.00  0.00    +0.000 A 
ATOM      4  C   UNL     1       2.236   8.171  18.498  0.00  0.00    +0.000 A 
ATOM      5  C   UNL     1       2.334   7.237  19.528  0.00  0.00    +0.000 A 
ATOM      6  C   UNL     1       3.272   6.185  19.422  0.00  0.00    +0.000 A 
ENDROOT
BRANCH   5   7
ATOM      7  C   UNL     1       1.366   7.207  20.658  0.00  0.00    +0.000 C 
ATOM      8  O   UNL     1       0.895   6.106  20.951  0.00  0.00    +0.000 OA
ATOM      9  N   UNL     1       0.984   8.367  21.336  0.00  0.00    +0.000 N 
ATOM     10  C   UNL     1      -0.117   8.261  22.324  0.00  0.00    +0.000 C 
ATOM     11  C   UNL     1      -0.223   9.491  23.248  0.00  0.00    +0.000 C 
ATOM     12  C   UNL     1      -0.359  10.686  22.334  0.00  0.00    +0.000 A 
ATOM     13  C   UNL     1      -1.433  11.565  22.424  0.00  0.00    +0.000 A 
ATOM     14  F   UNL     1      -2.279  11.498  23.460  0.00  0.00    +0.000 F 
ATOM     15  C   UNL     1      -1.691  12.458  21.395  0.00  0.00    +0.000 A 
ATOM     16  C   UNL     1      -0.834  12.510  20.292  0.00  0.00    +0.000 A 
ATOM     17  C   UNL     1       0.303  11.692  20.232  0.00  0.00    +0.000 A 
ATOM     18 BR   UNL     1       1.423  11.882  18.715  0.00  0.00    +0.000 Br
ATOM     19  C   UNL     1       0.544  10.758  21.243  0.00  0.00    +0.000 A 
ATOM     20  C   UNL     1       1.615   9.688  21.216  0.00  0.00    +0.000 C 
ENDBRANCH   5   7
BRANCH   1  22
ATOM     21  C   UNL     1       4.605   3.596  18.670  0.00  0.00    +0.000 C 
ATOM     22  C   UNL     1       5.121   4.931  18.121  0.00  0.00    +0.000 C 
ATOM     23  N   UNL     1       5.540   4.744  16.742  0.00  0.00    +0.000 N 
ATOM     24  C   UNL     1       6.900   4.832  16.587  0.00  0.00    +0.000 C 
ATOM     25  O   UNL     1       7.502   4.563  15.563  0.00  0.00    +0.000 OA
ATOM     26  N   UNL     1       7.449   5.207  17.761  0.00  0.00    +0.000 N 
ATOM     27  C   UNL     1       6.512   5.232  18.742  0.00  0.00    +0.000 C 
ATOM     28  O   UNL     1       6.758   5.399  19.931  0.00  0.00    +0.000 OA
ATOM     29  H   UNL     1       4.962   4.373  16.002  0.00  0.00    +0.000 HD
ATOM     30  H   UNL     1       8.439   5.306  17.912  0.00  0.00    +0.000 HD
ENDBRANCH   1  22
TORSDOF 2
ENDMDL
MODEL 4
REMARK VINA RESULT:      -9.1      2.533      3.213
REMARK  Name = 
REMARK  3 active torsions:
REMARK  status: ('A' for Active; 'I' for Inactive)
REMARK    1  A    between atoms: C_1  and  C_2
REMARK    2  A    between atoms: C_2  and  C_3
REMARK    3  A    between atoms: C_7  and  C_8
REMARK                            x       y       z     vdW  Elec       q    Type
REMARK                         _______ _______ _______ _____ _____    ______ ____
ROOT
ATOM      1  C   UNL     1       2.663   6.175  19.078  0.00  0.00    +0.000 A 
ATOM      2  C   UNL     1       2.196   5.975  20.389  0.00  0.00    +0.000 A 
ATOM      3  C   UNL     1       1.521   6.979  21.084  0.00  0.00    +0.000 A 
ATOM      4  C   UNL     1       1.294   8.217  20.475  0.00  0.00    +0.000 A 
ATOM      5  C   UNL     1       1.683   8.433  19.155  0.00  0.00    +0.000 A 
ATOM      6  C   UNL     1       2.389   7.420  18.466  0.00  0.00    +0.000 A 
ENDROOT
BRANCH   5   7
ATOM      7  C   UNL     1       1.532   9.760  18.497  0.00  0.00    +0.000 C 
ATOM      8  O   UNL     1       2.351  10.035  17.618  0.00  0.00    +0.000 OA
ATOM      9  N   UNL     1       0.534  10.662  18.871  0.00  0.00    +0.000 N 
ATOM     10  C   UNL     1       0.577  12.024  18.286  0.00  0.00    +0.000 C 
ATOM     11  C   UNL     1      -0.733  12.811  18.486  0.00  0.00    +0.000 C 
ATOM     12  C   UNL     1      -0.992  12.814  19.974  0.00  0.00    +0.000 A 
ATOM     13  C   UNL     1      -1.149  13.994  20.693  0.00  0.00    +0.000 A 
ATOM     14  F   UNL     1      -1.279  15.164  20.056  0.00  0.00    +0.000 F 
ATOM     15  C   UNL     1      -1.078  13.980  22.079  0.00  0.00    +0.000 A 
ATOM     16  C   UNL     1      -0.906  12.768  22.752  0.00  0.00    +0.000 A 
ATOM     17  C   UNL     1      -0.839  11.560  22.041  0.00  0.00    +0.000 A 
ATOM     18 BR   UNL     1      -0.656   9.971  23.057  0.00  0.00    +0.000 Br
ATOM     19  C   UNL     1      -0.863  11.571  20.644  0.00  0.00    +0.000 A 
ATOM     20  C   UNL     1      -0.608  10.376  19.750  0.00  0.00    +0.000 C 
ENDBRANCH   5   7
BRANCH   1  22
ATOM     21  C   UNL     1       4.202   5.550  17.125  0.00  0.00    +0.000 C 
ATOM     22  C   UNL     1       3.491   5.082  18.399  0.00  0.00    +0.000 C 
ATOM     23  N   UNL     1       4.462   4.454  19.280  0.00  0.00    +0.000 N 
ATOM     24  C   UNL     1       4.277   3.099  19.388  0.00  0.00    +0.000 C 
ATOM     25  O   UNL     1       5.047   2.335  19.941  0.00  0.00    +0.000 OA
ATOM     26  N   UNL     1       3.143   2.761  18.740  0.00  0.00    +0.000 N 
ATOM     27  C   UNL     1       2.636   3.828  18.072  0.00  0.00    +0.000 C 
ATOM     28  O   UNL     1       1.696   3.771  17.288  0.00  0.00    +0.000 OA
ATOM     29  H   UNL     1       5.313   4.885  19.610  0.00  0.00    +0.000 HD
ATOM     30  H   UNL     1       2.810   1.816  18.646  0.00  0.00    +0.000 HD
ENDBRANCH   1  22
TORSDOF 2
ENDMDL
MODEL 5
REMARK VINA RESULT:      -9.0      2.083      2.165
REMARK  Name = 
REMARK  3 active torsions:
REMARK  status: ('A' for Active; 'I' for Inactive)
REMARK    1  A    between atoms: C_1  and  C_2
REMARK    2  A    between atoms: C_2  and  C_3
REMARK    3  A    between atoms: C_7  and  C_8
REMARK                            x       y       z     vdW  Elec       q    Type
REMARK                         _______ _______ _______ _____ _____    ______ ____
ROOT
ATOM      1  C   UNL     1       2.433   6.804  19.517  0.00  0.00    +0.000 A 
ATOM      2  C   UNL     1       2.773   7.466  18.323  0.00  0.00    +0.000 A 
ATOM      3  C   UNL     1       2.255   8.724  18.014  0.00  0.00    +0.000 A 
ATOM      4  C   UNL     1       1.380   9.355  18.902  0.00  0.00    +0.000 A 
ATOM      5  C   UNL     1       1.070   8.764  20.124  0.00  0.00    +0.000 A 
ATOM      6  C   UNL     1       1.577   7.478  20.420  0.00  0.00    +0.000 A 
ENDROOT
BRANCH   5   7
ATOM      7  C   UNL     1       0.082   9.364  21.062  0.00  0.00    +0.000 C 
ATOM      8  O   UNL     1      -0.765   8.603  21.531  0.00  0.00    +0.000 OA
ATOM      9  N   UNL     1       0.092  10.726  21.375  0.00  0.00    +0.000 N 
ATOM     10  C   UNL     1      -1.038  11.260  22.172  0.00  0.00    +0.000 C 
ATOM     11  C   UNL     1      -0.763  12.664  22.747  0.00  0.00    +0.000 C 
ATOM     12  C   UNL     1      -0.408  13.534  21.565  0.00  0.00    +0.000 A 
ATOM     13  C   UNL     1      -1.105  14.702  21.273  0.00  0.00    +0.000 A 
ATOM     14  F   UNL     1      -1.986  15.203  22.148  0.00  0.00    +0.000 F 
ATOM     15  C   UNL     1      -0.962  15.306  20.032  0.00  0.00    +0.000 A 
ATOM     16  C   UNL     1      -0.072  14.770  19.098  0.00  0.00    +0.000 A 
ATOM     17  C   UNL     1       0.704  13.646  19.415  0.00  0.00    +0.000 A 
ATOM     18 BR   UNL     1       1.916  13.033  18.094  0.00  0.00    +0.000 Br
ATOM     19  C   UNL     1       0.532  13.005  20.645  0.00  0.00    +0.000 A 
ATOM     20  C   UNL     1       1.155  11.683  21.043  0.00  0.00    +0.000 C 
ENDBRANCH   5   7
BRANCH   1  22
ATOM     21  C   UNL     1       4.398   5.167  19.337  0.00  0.00    +0.000 C 
ATOM     22  C   UNL     1       2.941   5.382  19.761  0.00  0.00    +0.000 C 
ATOM     23  N   UNL     1       2.775   4.931  21.133  0.00  0.00    +0.000 N 
ATOM     24  C   UNL     1       2.014   3.794  21.226  0.00  0.00    +0.000 C 
ATOM     25  O   UNL     1       1.860   3.141  22.242  0.00  0.00    +0.000 OA
ATOM     26  N   UNL     1       1.520   3.499  20.005  0.00  0.00    +0.000 N 
ATOM     27  C   UNL     1       2.047   4.321  19.063  0.00  0.00    +0.000 C 
ATOM     28  O   UNL     1       1.884   4.186  17.856  0.00  0.00    +0.000 OA
ATOM     29  H   UNL     1       3.317   5.252  21.921  0.00  0.00    +0.000 HD
ATOM     30  H   UNL     1       0.959   2.687  19.807  0.00  0.00    +0.000 HD
ENDBRANCH   1  22
TORSDOF 2
ENDMDL
MODEL 6
REMARK VINA RESULT:      -9.0      2.830      3.733
REMARK  Name = 
REMARK  3 active torsions:
REMARK  status: ('A' for Active; 'I' for Inactive)
REMARK    1  A    between atoms: C_1  and  C_2
REMARK    2  A    between atoms: C_2  and  C_3
REMARK    3  A    between atoms: C_7  and  C_8
REMARK                            x       y       z     vdW  Elec       q    Type
REMARK                         _______ _______ _______ _____ _____    ______ ____
ROOT
ATOM      1  C   UNL     1       3.611   6.740  18.115  0.00  0.00    +0.000 A 
ATOM      2  C   UNL     1       3.088   6.149  19.279  0.00  0.00    +0.000 A 
ATOM      3  C   UNL     1       2.153   6.809  20.076  0.00  0.00    +0.000 A 
ATOM      4  C   UNL     1       1.712   8.087  19.721  0.00  0.00    +0.000 A 
ATOM      5  C   UNL     1       2.155   8.681  18.541  0.00  0.00    +0.000 A 
ATOM      6  C   UNL     1       3.123   8.017  17.752  0.00  0.00    +0.000 A 
ENDROOT
BRANCH   5   7
ATOM      7  C   UNL     1       1.773  10.070  18.167  0.00  0.00    +0.000 C 
ATOM      8  O   UNL     1       2.513  10.649  17.370  0.00  0.00    +0.000 OA
ATOM      9  N   UNL     1       0.651  10.701  18.711  0.00  0.00    +0.000 N 
ATOM     10  C   UNL     1       0.456  12.141  18.417  0.00  0.00    +0.000 C 
ATOM     11  C   UNL     1      -0.959  12.645  18.764  0.00  0.00    +0.000 C 
ATOM     12  C   UNL     1      -1.176  12.302  20.219  0.00  0.00    +0.000 A 
ATOM     13  C   UNL     1      -1.503  13.269  21.163  0.00  0.00    +0.000 A 
ATOM     14  F   UNL     1      -1.840  14.507  20.778  0.00  0.00    +0.000 F 
ATOM     15  C   UNL     1      -1.395  12.985  22.517  0.00  0.00    +0.000 A 
ATOM     16  C   UNL     1      -1.011  11.707  22.929  0.00  0.00    +0.000 A 
ATOM     17  C   UNL     1      -0.766  10.697  21.987  0.00  0.00    +0.000 A 
ATOM     18 BR   UNL     1      -0.300   8.987  22.657  0.00  0.00    +0.000 Br
ATOM     19  C   UNL     1      -0.828  10.988  20.621  0.00  0.00    +0.000 A 
ATOM     20  C   UNL     1      -0.405  10.058  19.503  0.00  0.00    +0.000 C 
ENDBRANCH   5   7
BRANCH   1  22
ATOM     21  C   UNL     1       4.886   6.533  15.900  0.00  0.00    +0.000 C 
ATOM     22  C   UNL     1       4.713   6.022  17.335  0.00  0.00    +0.000 C 
ATOM     23  N   UNL     1       6.005   6.039  18.002  0.00  0.00    +0.000 N 
ATOM     24  C   UNL     1       6.490   4.779  18.242  0.00  0.00    +0.000 C 
ATOM     25  O   UNL     1       7.612   4.532  18.647  0.00  0.00    +0.000 OA
ATOM     26  N   UNL     1       5.546   3.876  17.903  0.00  0.00    +0.000 N 
ATOM     27  C   UNL     1       4.493   4.485  17.304  0.00  0.00    +0.000 C 
ATOM     28  O   UNL     1       3.562   3.894  16.769  0.00  0.00    +0.000 OA
ATOM     29  H   UNL     1       6.604   6.846  18.092  0.00  0.00    +0.000 HD
ATOM     30  H   UNL     1       5.678   2.879  17.954  0.00  0.00    +0.000 HD
ENDBRANCH   1  22
TORSDOF 2
ENDMDL
MODEL 7
REMARK VINA RESULT:      -8.9      1.382      1.721
REMARK  Name = 
REMARK  3 active torsions:
REMARK  status: ('A' for Active; 'I' for Inactive)
REMARK    1  A    between atoms: C_1  and  C_2
REMARK    2  A    between atoms: C_2  and  C_3
REMARK    3  A    between atoms: C_7  and  C_8
REMARK                            x       y       z     vdW  Elec       q    Type
REMARK                         _______ _______ _______ _____ _____    ______ ____
ROOT
ATOM      1  C   UNL     1       2.031   5.973  19.761  0.00  0.00    +0.000 A 
ATOM      2  C   UNL     1       2.330   6.435  18.467  0.00  0.00    +0.000 A 
ATOM      3  C   UNL     1       2.209   7.783  18.127  0.00  0.00    +0.000 A 
ATOM      4  C   UNL     1       1.786   8.708  19.086  0.00  0.00    +0.000 A 
ATOM      5  C   UNL     1       1.544   8.302  20.396  0.00  0.00    +0.000 A 
ATOM      6  C   UNL     1       1.642   6.931  20.726  0.00  0.00    +0.000 A 
ENDROOT
BRANCH   5   7
ATOM      7  C   UNL     1       1.015   9.239  21.426  0.00  0.00    +0.000 C 
ATOM      8  O   UNL     1       1.212   8.931  22.603  0.00  0.00    +0.000 OA
ATOM      9  N   UNL     1       0.308  10.393  21.083  0.00  0.00    +0.000 N 
ATOM     10  C   UNL     1      -0.332  11.163  22.176  0.00  0.00    +0.000 C 
ATOM     11  C   UNL     1      -0.780  12.573  21.743  0.00  0.00    +0.000 C 
ATOM     12  C   UNL     1      -1.686  12.372  20.551  0.00  0.00    +0.000 A 
ATOM     13  C   UNL     1      -2.990  12.856  20.526  0.00  0.00    +0.000 A 
ATOM     14  F   UNL     1      -3.420  13.696  21.475  0.00  0.00    +0.000 F 
ATOM     15  C   UNL     1      -3.884  12.401  19.567  0.00  0.00    +0.000 A 
ATOM     16  C   UNL     1      -3.454  11.496  18.593  0.00  0.00    +0.000 A 
ATOM     17  C   UNL     1      -2.119  11.071  18.554  0.00  0.00    +0.000 A 
ATOM     18 BR   UNL     1      -1.632   9.883  17.159  0.00  0.00    +0.000 Br
ATOM     19  C   UNL     1      -1.224  11.489  19.543  0.00  0.00    +0.000 A 
ATOM     20  C   UNL     1       0.183  10.964  19.735  0.00  0.00    +0.000 C 
ENDBRANCH   5   7
BRANCH   1  22
ATOM     21  C   UNL     1       2.397   4.138  21.514  0.00  0.00    +0.000 C 
ATOM     22  C   UNL     1       2.075   4.472  20.053  0.00  0.00    +0.000 C 
ATOM     23  N   UNL     1       0.865   3.767  19.663  0.00  0.00    +0.000 N 
ATOM     24  C   UNL     1       1.108   2.763  18.760  0.00  0.00    +0.000 C 
ATOM     25  O   UNL     1       0.288   1.938  18.401  0.00  0.00    +0.000 OA
ATOM     26  N   UNL     1       2.405   2.814  18.390  0.00  0.00    +0.000 N 
ATOM     27  C   UNL     1       3.078   3.732  19.128  0.00  0.00    +0.000 C 
ATOM     28  O   UNL     1       4.294   3.884  19.103  0.00  0.00    +0.000 OA
ATOM     29  H   UNL     1      -0.024   3.827  20.137  0.00  0.00    +0.000 HD
ATOM     30  H   UNL     1       2.836   2.157  17.761  0.00  0.00    +0.000 HD
ENDBRANCH   1  22
TORSDOF 2
ENDMDL
MODEL 8
REMARK VINA RESULT:      -8.9      2.925      4.060
REMARK  Name = 
REMARK  3 active torsions:
REMARK  status: ('A' for Active; 'I' for Inactive)
REMARK    1  A    between atoms: C_1  and  C_2
REMARK    2  A    between atoms: C_2  and  C_3
REMARK    3  A    between atoms: C_7  and  C_8
REMARK                            x       y       z     vdW  Elec       q    Type
REMARK                         _______ _______ _______ _____ _____    ______ ____
ROOT
ATOM      1  C   UNL     1       3.367   6.402  18.454  0.00  0.00    +0.000 A 
ATOM      2  C   UNL     1       2.863   5.955  19.688  0.00  0.00    +0.000 A 
ATOM      3  C   UNL     1       2.004   6.743  20.455  0.00  0.00    +0.000 A 
ATOM      4  C   UNL     1       1.624   8.008  19.997  0.00  0.00    +0.000 A 
ATOM      5  C   UNL     1       2.047   8.461  18.750  0.00  0.00    +0.000 A 
ATOM      6  C   UNL     1       2.939   7.668  17.991  0.00  0.00    +0.000 A 
ENDROOT
BRANCH   5   7
ATOM      7  C   UNL     1       1.732   9.831  18.260  0.00  0.00    +0.000 C 
ATOM      8  O   UNL     1       2.496  10.306  17.419  0.00  0.00    +0.000 OA
ATOM      9  N   UNL     1       0.643  10.558  18.748  0.00  0.00    +0.000 N 
ATOM     10  C   UNL     1       0.516  11.976  18.334  0.00  0.00    +0.000 C 
ATOM     11  C   UNL     1      -0.872  12.574  18.635  0.00  0.00    +0.000 C 
ATOM     12  C   UNL     1      -1.102  12.365  20.114  0.00  0.00    +0.000 A 
ATOM     13  C   UNL     1      -1.381  13.422  20.973  0.00  0.00    +0.000 A 
ATOM     14  F   UNL     1      -1.659  14.638  20.486  0.00  0.00    +0.000 F 
ATOM     15  C   UNL     1      -1.283  13.248  22.346  0.00  0.00    +0.000 A 
ATOM     16  C   UNL     1      -0.959  11.991  22.864  0.00  0.00    +0.000 A 
ATOM     17  C   UNL     1      -0.765  10.896  22.010  0.00  0.00    +0.000 A 
ATOM     18 BR   UNL     1      -0.380   9.227  22.821  0.00  0.00    +0.000 Br
ATOM     19  C   UNL     1      -0.816  11.074  20.625  0.00  0.00    +0.000 A 
ATOM     20  C   UNL     1      -0.441  10.035  19.590  0.00  0.00    +0.000 C 
ENDBRANCH   5   7
BRANCH   1  22
ATOM     21  C   UNL     1       3.774   4.347  16.976  0.00  0.00    +0.000 C 
ATOM     22  C   UNL     1       4.389   5.548  17.704  0.00  0.00    +0.000 C 
ATOM     23  N   UNL     1       5.204   6.302  16.766  0.00  0.00    +0.000 N 
ATOM     24  C   UNL     1       6.546   6.205  17.035  0.00  0.00    +0.000 C 
ATOM     25  O   UNL     1       7.432   6.618  16.309  0.00  0.00    +0.000 OA
ATOM     26  N   UNL     1       6.710   5.534  18.194  0.00  0.00    +0.000 N 
ATOM     27  C   UNL     1       5.524   5.049  18.639  0.00  0.00    +0.000 C 
ATOM     28  O   UNL     1       5.401   4.283  19.589  0.00  0.00    +0.000 OA
ATOM     29  H   UNL     1       4.883   6.678  15.886  0.00  0.00    +0.000 HD
ATOM     30  H   UNL     1       7.607   5.302  18.586  0.00  0.00    +0.000 HD
ENDBRANCH   1  22
TORSDOF 2
ENDMDL
MODEL 9
REMARK VINA RESULT:      -8.9      4.224      8.718
REMARK  Name = 
REMARK  3 active torsions:
REMARK  status: ('A' for Active; 'I' for Inactive)
REMARK    1  A    between atoms: C_1  and  C_2
REMARK    2  A    between atoms: C_2  and  C_3
REMARK    3  A    between atoms: C_7  and  C_8
REMARK                            x       y       z     vdW  Elec       q    Type
REMARK                         _______ _______ _______ _____ _____    ______ ____
ROOT
ATOM      1  C   UNL     1      -0.000  10.357  20.073  0.00  0.00    +0.000 A 
ATOM      2  C   UNL     1      -0.188   9.510  21.180  0.00  0.00    +0.000 A 
ATOM      3  C   UNL     1       0.513   8.310  21.308  0.00  0.00    +0.000 A 
ATOM      4  C   UNL     1       1.429   7.929  20.323  0.00  0.00    +0.000 A 
ATOM      5  C   UNL     1       1.692   8.771  19.244  0.00  0.00    +0.000 A 
ATOM      6  C   UNL     1       0.959   9.972  19.108  0.00  0.00    +0.000 A 
ENDROOT
BRANCH   5   7
ATOM      7  C   UNL     1       2.599   8.368  18.134  0.00  0.00    +0.000 C 
ATOM      8  O   UNL     1       2.671   9.138  17.175  0.00  0.00    +0.000 OA
ATOM      9  N   UNL     1       3.311   7.167  18.160  0.00  0.00    +0.000 N 
ATOM     10  C   UNL     1       4.043   6.770  16.933  0.00  0.00    +0.000 C 
ATOM     11  C   UNL     1       5.057   5.633  17.173  0.00  0.00    +0.000 C 
ATOM     12  C   UNL     1       4.270   4.499  17.786  0.00  0.00    +0.000 A 
ATOM     13  C   UNL     1       4.242   3.230  17.219  0.00  0.00    +0.000 A 
ATOM     14  F   UNL     1       5.077   2.914  16.221  0.00  0.00    +0.000 F 
ATOM     15  C   UNL     1       3.286   2.308  17.620  0.00  0.00    +0.000 A 
ATOM     16  C   UNL     1       2.387   2.640  18.637  0.00  0.00    +0.000 A 
ATOM     17  C   UNL     1       2.464   3.885  19.279  0.00  0.00    +0.000 A 
ATOM     18 BR   UNL     1       1.229   4.211  20.679  0.00  0.00    +0.000 Br
ATOM     19  C   UNL     1       3.395   4.835  18.849  0.00  0.00    +0.000 A 
ATOM     20  C   UNL     1       3.463   6.274  19.316  0.00  0.00    +0.000 C 
ENDBRANCH   5   7
BRANCH   1  22
ATOM     21  C   UNL     1      -1.884  11.789  21.059  0.00  0.00    +0.000 C 
ATOM     22  C   UNL     1      -0.870  11.606  19.925  0.00  0.00    +0.000 C 
ATOM     23  N   UNL     1      -0.106  12.833  19.770  0.00  0.00    +0.000 N 
ATOM     24  C   UNL     1      -0.400  13.494  18.604  0.00  0.00    +0.000 C 
ATOM     25  O   UNL     1      -0.008  14.612  18.321  0.00  0.00    +0.000 OA
ATOM     26  N   UNL     1      -1.228  12.727  17.866  0.00  0.00    +0.000 N 
ATOM     27  C   UNL     1      -1.619  11.632  18.564  0.00  0.00    +0.000 C 
ATOM     28  O   UNL     1      -2.478  10.842  18.191  0.00  0.00    +0.000 OA
ATOM     29  H   UNL     1       0.415  13.291  20.503  0.00  0.00    +0.000 HD
ATOM     30  H   UNL     1      -1.616  13.010  16.980  0.00  0.00    +0.000 HD
ENDBRANCH   1  22
TORSDOF 2
ENDMDL
