MODEL 1
REMARK VINA RESULT:      -8.4      0.000      0.000
REMARK  Name = 
REMARK  2 active torsions:
REMARK  status: ('A' for Active; 'I' for Inactive)
REMARK    1  A    between atoms: C_2  and  C_15
REMARK    2  A    between atoms: C_6  and  C_7
REMARK                            x       y       z     vdW  Elec       q    Type
REMARK                         _______ _______ _______ _____ _____    ______ ____
ROOT
ATOM      1  O   UNL     1       5.435   7.055  15.918  0.00  0.00    +0.000 OA
ATOM      2  C   UNL     1       5.819   6.393  16.877  0.00  0.00    +0.000 C 
ATOM      3  N   UNL     1       6.799   6.738  17.796  0.00  0.00    +0.000 N 
ATOM      4  C   UNL     1       7.441   7.959  17.844  0.00  0.00    +0.000 A 
ATOM      5  C   UNL     1       8.472   8.288  18.764  0.00  0.00    +0.000 A 
ATOM      6  C   UNL     1       8.799   9.598  18.486  0.00  0.00    +0.000 A 
ATOM      7  O   UNL     1       8.006  10.020  17.461  0.00  0.00    +0.000 OA
ATOM      8  N   UNL     1       7.164   9.006  17.064  0.00  0.00    +0.000 NA
ATOM      9  H   UNL     1       7.077   6.033  18.469  0.00  0.00    +0.000 HD
ENDROOT
BRANCH   2  10
ATOM     10  C   UNL     1       5.124   5.088  17.266  0.00  0.00    +0.000 C 
ATOM     11  C   UNL     1       5.560   4.521  18.622  0.00  0.00    +0.000 C 
ATOM     12  C   UNL     1       4.370   3.658  18.843  0.00  0.00    +0.000 A 
ATOM     13  C   UNL     1       4.201   2.538  19.638  0.00  0.00    +0.000 A 
ATOM     14  C   UNL     1       2.951   1.904  19.632  0.00  0.00    +0.000 A 
ATOM     15  C   UNL     1       1.887   2.419  18.869  0.00  0.00    +0.000 A 
ATOM     16  C   UNL     1       2.073   3.559  18.095  0.00  0.00    +0.000 A 
ATOM     17  F   UNL     1       1.070   4.042  17.352  0.00  0.00    +0.000 F 
ATOM     18  C   UNL     1       3.319   4.148  18.074  0.00  0.00    +0.000 A 
ATOM     19  O   UNL     1       3.682   5.213  17.284  0.00  0.00    +0.000 OA
ENDBRANCH   2  10
BRANCH   6  20
ATOM     20  C   UNL     1       9.746  10.579  19.011  0.00  0.00    +0.000 A 
ATOM     21  C   UNL     1      10.765  11.110  18.204  0.00  0.00    +0.000 A 
ATOM     22  C   UNL     1      11.671  12.048  18.715  0.00  0.00    +0.000 A 
ATOM     23  C   UNL     1      11.574  12.469  20.038  0.00  0.00    +0.000 A 
ATOM     24  C   UNL     1      10.573  11.956  20.856  0.00  0.00    +0.000 A 
ATOM     25  C   UNL     1       9.669  11.019  20.344  0.00  0.00    +0.000 A 
ENDBRANCH   6  20
TORSDOF 2
ENDMDL
MODEL 2
REMARK VINA RESULT:      -8.3      7.136      8.210
REMARK  Name = 
REMARK  2 active torsions:
REMARK  status: ('A' for Active; 'I' for Inactive)
REMARK    1  A    between atoms: C_2  and  C_15
REMARK    2  A    between atoms: C_6  and  C_7
REMARK                            x       y       z     vdW  Elec       q    Type
REMARK                         _______ _______ _______ _____ _____    ______ ____
ROOT
ATOM      1  O   UNL     1       2.261   8.593  18.728  0.00  0.00    +0.000 OA
ATOM      2  C   UNL     1       1.995   7.891  19.698  0.00  0.00    +0.000 C 
ATOM      3  N   UNL     1       1.294   8.264  20.835  0.00  0.00    +0.000 N 
ATOM      4  C   UNL     1       0.676   9.485  21.017  0.00  0.00    +0.000 A 
ATOM      5  C   UNL     1      -0.005   9.872  22.202  0.00  0.00    +0.000 A 
ATOM      6  C   UNL     1      -0.493  11.135  21.943  0.00  0.00    +0.000 A 
ATOM      7  O   UNL     1      -0.123  11.474  20.675  0.00  0.00    +0.000 OA
ATOM      8  N   UNL     1       0.599  10.453  20.102  0.00  0.00    +0.000 NA
ATOM      9  H   UNL     1       1.251   7.596  21.597  0.00  0.00    +0.000 HD
ENDROOT
BRANCH   2  10
ATOM     10  C   UNL     1       2.312   6.396  19.703  0.00  0.00    +0.000 C 
ATOM     11  C   UNL     1       1.363   5.552  20.562  0.00  0.00    +0.000 C 
ATOM     12  C   UNL     1       1.649   4.247  19.910  0.00  0.00    +0.000 A 
ATOM     13  C   UNL     1       1.490   2.952  20.374  0.00  0.00    +0.000 A 
ATOM     14  C   UNL     1       1.870   1.898  19.533  0.00  0.00    +0.000 A 
ATOM     15  C   UNL     1       2.360   2.150  18.238  0.00  0.00    +0.000 A 
ATOM     16  C   UNL     1       2.489   3.459  17.785  0.00  0.00    +0.000 A 
ATOM     17  F   UNL     1       2.973   3.706  16.562  0.00  0.00    +0.000 F 
ATOM     18  C   UNL     1       2.155   4.489  18.637  0.00  0.00    +0.000 A 
ATOM     19  O   UNL     1       2.323   5.828  18.372  0.00  0.00    +0.000 OA
ENDBRANCH   2  10
BRANCH   6  20
ATOM     20  C   UNL     1      -1.271  12.131  22.673  0.00  0.00    +0.000 A 
ATOM     21  C   UNL     1      -0.787  13.435  22.864  0.00  0.00    +0.000 A 
ATOM     22  C   UNL     1      -1.538  14.385  23.568  0.00  0.00    +0.000 A 
ATOM     23  C   UNL     1      -2.782  14.047  24.094  0.00  0.00    +0.000 A 
ATOM     24  C   UNL     1      -3.280  12.761  23.918  0.00  0.00    +0.000 A 
ATOM     25  C   UNL     1      -2.530  11.813  23.214  0.00  0.00    +0.000 A 
ENDBRANCH   6  20
TORSDOF 2
ENDMDL
MODEL 3
REMARK VINA RESULT:      -8.0      6.175      7.719
REMARK  Name = 
REMARK  2 active torsions:
REMARK  status: ('A' for Active; 'I' for Inactive)
REMARK    1  A    between atoms: C_2  and  C_15
REMARK    2  A    between atoms: C_6  and  C_7
REMARK                            x       y       z     vdW  Elec       q    Type
REMARK                         _______ _______ _______ _____ _____    ______ ____
ROOT
ATOM      1  O   UNL     1       1.523   4.983  20.748  0.00  0.00    +0.000 OA
ATOM      2  C   UNL     1       2.241   5.657  20.016  0.00  0.00    +0.000 C 
ATOM      3  N   UNL     1       2.218   7.033  19.854  0.00  0.00    +0.000 N 
ATOM      4  C   UNL     1       1.434   7.902  20.589  0.00  0.00    +0.000 A 
ATOM      5  C   UNL     1       1.388   9.307  20.387  0.00  0.00    +0.000 A 
ATOM      6  C   UNL     1       0.518   9.781  21.345  0.00  0.00    +0.000 A 
ATOM      7  O   UNL     1       0.076   8.716  22.073  0.00  0.00    +0.000 OA
ATOM      8  N   UNL     1       0.645   7.553  21.606  0.00  0.00    +0.000 NA
ATOM      9  H   UNL     1       2.805   7.428  19.128  0.00  0.00    +0.000 HD
ENDROOT
BRANCH   2  10
ATOM     10  C   UNL     1       3.403   5.024  19.251  0.00  0.00    +0.000 C 
ATOM     11  C   UNL     1       3.273   5.106  17.725  0.00  0.00    +0.000 C 
ATOM     12  C   UNL     1       4.713   4.904  17.414  0.00  0.00    +0.000 A 
ATOM     13  C   UNL     1       5.333   4.454  16.261  0.00  0.00    +0.000 A 
ATOM     14  C   UNL     1       6.730   4.343  16.262  0.00  0.00    +0.000 A 
ATOM     15  C   UNL     1       7.481   4.718  17.392  0.00  0.00    +0.000 A 
ATOM     16  C   UNL     1       6.837   5.190  18.531  0.00  0.00    +0.000 A 
ATOM     17  F   UNL     1       7.544   5.530  19.615  0.00  0.00    +0.000 F 
ATOM     18  C   UNL     1       5.460   5.252  18.534  0.00  0.00    +0.000 A 
ATOM     19  O   UNL     1       4.682   5.598  19.614  0.00  0.00    +0.000 OA
ENDBRANCH   2  10
BRANCH   6  20
ATOM     20  C   UNL     1      -0.006  11.087  21.736  0.00  0.00    +0.000 A 
ATOM     21  C   UNL     1      -1.003  11.207  22.716  0.00  0.00    +0.000 A 
ATOM     22  C   UNL     1      -1.503  12.463  23.084  0.00  0.00    +0.000 A 
ATOM     23  C   UNL     1      -1.016  13.617  22.477  0.00  0.00    +0.000 A 
ATOM     24  C   UNL     1      -0.028  13.522  21.503  0.00  0.00    +0.000 A 
ATOM     25  C   UNL     1       0.470  12.267  21.137  0.00  0.00    +0.000 A 
ENDBRANCH   6  20
TORSDOF 2
ENDMDL
MODEL 4
REMARK VINA RESULT:      -8.0      3.342      4.426
REMARK  Name = 
REMARK  2 active torsions:
REMARK  status: ('A' for Active; 'I' for Inactive)
REMARK    1  A    between atoms: C_2  and  C_15
REMARK    2  A    between atoms: C_6  and  C_7
REMARK                            x       y       z     vdW  Elec       q    Type
REMARK                         _______ _______ _______ _____ _____    ______ ____
ROOT
ATOM      1  O   UNL     1       7.505   5.522  18.520  0.00  0.00    +0.000 OA
ATOM      2  C   UNL     1       7.409   5.976  17.385  0.00  0.00    +0.000 C 
ATOM      3  N   UNL     1       7.650   7.280  16.980  0.00  0.00    +0.000 N 
ATOM      4  C   UNL     1       8.152   8.279  17.792  0.00  0.00    +0.000 A 
ATOM      5  C   UNL     1       8.357   9.622  17.378  0.00  0.00    +0.000 A 
ATOM      6  C   UNL     1       8.896  10.259  18.475  0.00  0.00    +0.000 A 
ATOM      7  O   UNL     1       9.005   9.344  19.480  0.00  0.00    +0.000 OA
ATOM      8  N   UNL     1       8.546   8.118  19.056  0.00  0.00    +0.000 NA
ATOM      9  H   UNL     1       7.421   7.522  16.023  0.00  0.00    +0.000 HD
ENDROOT
BRANCH   2  10
ATOM     10  C   UNL     1       7.122   5.066  16.191  0.00  0.00    +0.000 C 
ATOM     11  C   UNL     1       5.632   4.821  15.928  0.00  0.00    +0.000 C 
ATOM     12  C   UNL     1       5.770   4.397  14.509  0.00  0.00    +0.000 A 
ATOM     13  C   UNL     1       4.936   3.637  13.708  0.00  0.00    +0.000 A 
ATOM     14  C   UNL     1       5.340   3.377  12.392  0.00  0.00    +0.000 A 
ATOM     15  C   UNL     1       6.542   3.908  11.890  0.00  0.00    +0.000 A 
ATOM     16  C   UNL     1       7.354   4.688  12.707  0.00  0.00    +0.000 A 
ATOM     17  F   UNL     1       8.508   5.180  12.240  0.00  0.00    +0.000 F 
ATOM     18  C   UNL     1       6.968   4.901  14.012  0.00  0.00    +0.000 A 
ATOM     19  O   UNL     1       7.709   5.561  14.964  0.00  0.00    +0.000 OA
ENDBRANCH   2  10
BRANCH   6  20
ATOM     20  C   UNL     1       9.351  11.611  18.786  0.00  0.00    +0.000 A 
ATOM     21  C   UNL     1       9.910  11.922  20.037  0.00  0.00    +0.000 A 
ATOM     22  C   UNL     1      10.342  13.221  20.329  0.00  0.00    +0.000 A 
ATOM     23  C   UNL     1      10.221  14.231  19.379  0.00  0.00    +0.000 A 
ATOM     24  C   UNL     1       9.670  13.948  18.134  0.00  0.00    +0.000 A 
ATOM     25  C   UNL     1       9.239  12.649  17.843  0.00  0.00    +0.000 A 
ENDBRANCH   6  20
TORSDOF 2
ENDMDL
MODEL 5
REMARK VINA RESULT:      -7.9      3.278      4.291
REMARK  Name = 
REMARK  2 active torsions:
REMARK  status: ('A' for Active; 'I' for Inactive)
REMARK    1  A    between atoms: C_2  and  C_15
REMARK    2  A    between atoms: C_6  and  C_7
REMARK                            x       y       z     vdW  Elec       q    Type
REMARK                         _______ _______ _______ _____ _____    ______ ____
ROOT
ATOM      1  O   UNL     1       7.498   6.009  18.798  0.00  0.00    +0.000 OA
ATOM      2  C   UNL     1       7.440   6.393  17.635  0.00  0.00    +0.000 C 
ATOM      3  N   UNL     1       7.734   7.660  17.154  0.00  0.00    +0.000 N 
ATOM      4  C   UNL     1       8.256   8.690  17.912  0.00  0.00    +0.000 A 
ATOM      5  C   UNL     1       8.517   9.997  17.419  0.00  0.00    +0.000 A 
ATOM      6  C   UNL     1       9.057  10.683  18.485  0.00  0.00    +0.000 A 
ATOM      7  O   UNL     1       9.115   9.830  19.547  0.00  0.00    +0.000 OA
ATOM      8  N   UNL     1       8.620   8.596  19.192  0.00  0.00    +0.000 NA
ATOM      9  H   UNL     1       7.532   7.849  16.179  0.00  0.00    +0.000 HD
ENDROOT
BRANCH   2  10
ATOM     10  C   UNL     1       7.143   5.420  16.494  0.00  0.00    +0.000 C 
ATOM     11  C   UNL     1       5.649   5.186  16.236  0.00  0.00    +0.000 C 
ATOM     12  C   UNL     1       5.788   4.678  14.846  0.00  0.00    +0.000 A 
ATOM     13  C   UNL     1       4.944   3.887  14.085  0.00  0.00    +0.000 A 
ATOM     14  C   UNL     1       5.351   3.542  12.789  0.00  0.00    +0.000 A 
ATOM     15  C   UNL     1       6.566   4.021  12.265  0.00  0.00    +0.000 A 
ATOM     16  C   UNL     1       7.387   4.833  13.040  0.00  0.00    +0.000 A 
ATOM     17  F   UNL     1       8.553   5.276  12.554  0.00  0.00    +0.000 F 
ATOM     18  C   UNL     1       6.998   5.130  14.328  0.00  0.00    +0.000 A 
ATOM     19  O   UNL     1       7.746   5.831  15.244  0.00  0.00    +0.000 OA
ENDBRANCH   2  10
BRANCH   6  20
ATOM     20  C   UNL     1       9.555  12.036  18.721  0.00  0.00    +0.000 A 
ATOM     21  C   UNL     1       9.199  13.099  17.876  0.00  0.00    +0.000 A 
ATOM     22  C   UNL     1       9.681  14.394  18.106  0.00  0.00    +0.000 A 
ATOM     23  C   UNL     1      10.528  14.646  19.181  0.00  0.00    +0.000 A 
ATOM     24  C   UNL     1      10.895  13.608  20.031  0.00  0.00    +0.000 A 
ATOM     25  C   UNL     1      10.412  12.315  19.800  0.00  0.00    +0.000 A 
ENDBRANCH   6  20
TORSDOF 2
ENDMDL
MODEL 6
REMARK VINA RESULT:      -7.9      5.870      7.648
REMARK  Name = 
REMARK  2 active torsions:
REMARK  status: ('A' for Active; 'I' for Inactive)
REMARK    1  A    between atoms: C_2  and  C_15
REMARK    2  A    between atoms: C_6  and  C_7
REMARK                            x       y       z     vdW  Elec       q    Type
REMARK                         _______ _______ _______ _____ _____    ______ ____
ROOT
ATOM      1  O   UNL     1       2.613   4.972  20.620  0.00  0.00    +0.000 OA
ATOM      2  C   UNL     1       2.961   5.609  19.631  0.00  0.00    +0.000 C 
ATOM      3  N   UNL     1       2.558   6.885  19.269  0.00  0.00    +0.000 N 
ATOM      4  C   UNL     1       1.761   7.708  20.040  0.00  0.00    +0.000 A 
ATOM      5  C   UNL     1       1.319   8.999  19.643  0.00  0.00    +0.000 A 
ATOM      6  C   UNL     1       0.588   9.475  20.710  0.00  0.00    +0.000 A 
ATOM      7  O   UNL     1       0.598   8.520  21.684  0.00  0.00    +0.000 OA
ATOM      8  N   UNL     1       1.325   7.428  21.270  0.00  0.00    +0.000 NA
ATOM      9  H   UNL     1       2.854   7.230  18.364  0.00  0.00    +0.000 HD
ENDROOT
BRANCH   2  10
ATOM     10  C   UNL     1       4.050   5.082  18.695  0.00  0.00    +0.000 C 
ATOM     11  C   UNL     1       3.522   4.490  17.383  0.00  0.00    +0.000 C 
ATOM     12  C   UNL     1       4.791   4.602  16.616  0.00  0.00    +0.000 A 
ATOM     13  C   UNL     1       5.232   3.919  15.496  0.00  0.00    +0.000 A 
ATOM     14  C   UNL     1       6.503   4.226  14.993  0.00  0.00    +0.000 A 
ATOM     15  C   UNL     1       7.290   5.229  15.588  0.00  0.00    +0.000 A 
ATOM     16  C   UNL     1       6.816   5.919  16.700  0.00  0.00    +0.000 A 
ATOM     17  F   UNL     1       7.568   6.861  17.282  0.00  0.00    +0.000 F 
ATOM     18  C   UNL     1       5.583   5.578  17.212  0.00  0.00    +0.000 A 
ATOM     19  O   UNL     1       5.027   6.095  18.359  0.00  0.00    +0.000 OA
ENDBRANCH   2  10
BRANCH   6  20
ATOM     20  C   UNL     1      -0.149  10.697  21.018  0.00  0.00    +0.000 A 
ATOM     21  C   UNL     1      -0.527  11.593  20.005  0.00  0.00    +0.000 A 
ATOM     22  C   UNL     1      -1.232  12.765  20.306  0.00  0.00    +0.000 A 
ATOM     23  C   UNL     1      -1.569  13.061  21.624  0.00  0.00    +0.000 A 
ATOM     24  C   UNL     1      -1.204  12.189  22.644  0.00  0.00    +0.000 A 
ATOM     25  C   UNL     1      -0.501  11.018  22.341  0.00  0.00    +0.000 A 
ENDBRANCH   6  20
TORSDOF 2
ENDMDL
MODEL 7
REMARK VINA RESULT:      -7.8      6.049      7.631
REMARK  Name = 
REMARK  2 active torsions:
REMARK  status: ('A' for Active; 'I' for Inactive)
REMARK    1  A    between atoms: C_2  and  C_15
REMARK    2  A    between atoms: C_6  and  C_7
REMARK                            x       y       z     vdW  Elec       q    Type
REMARK                         _______ _______ _______ _____ _____    ______ ____
ROOT
ATOM      1  O   UNL     1       2.087   5.401  20.941  0.00  0.00    +0.000 OA
ATOM      2  C   UNL     1       2.542   5.881  19.909  0.00  0.00    +0.000 C 
ATOM      3  N   UNL     1       2.275   7.133  19.376  0.00  0.00    +0.000 N 
ATOM      4  C   UNL     1       1.515   8.107  19.993  0.00  0.00    +0.000 A 
ATOM      5  C   UNL     1       1.214   9.372  19.421  0.00  0.00    +0.000 A 
ATOM      6  C   UNL     1       0.473  10.033  20.377  0.00  0.00    +0.000 A 
ATOM      7  O   UNL     1       0.346   9.207  21.454  0.00  0.00    +0.000 OA
ATOM      8  N   UNL     1       0.992   8.016  21.217  0.00  0.00    +0.000 NA
ATOM      9  H   UNL     1       2.648   7.339  18.456  0.00  0.00    +0.000 HD
ENDROOT
BRANCH   2  10
ATOM     10  C   UNL     1       3.626   5.156  19.111  0.00  0.00    +0.000 C 
ATOM     11  C   UNL     1       3.423   5.192  17.592  0.00  0.00    +0.000 C 
ATOM     12  C   UNL     1       4.831   4.896  17.218  0.00  0.00    +0.000 A 
ATOM     13  C   UNL     1       5.366   4.371  16.054  0.00  0.00    +0.000 A 
ATOM     14  C   UNL     1       6.752   4.179  15.991  0.00  0.00    +0.000 A 
ATOM     15  C   UNL     1       7.580   4.549  17.067  0.00  0.00    +0.000 A 
ATOM     16  C   UNL     1       7.023   5.096  18.218  0.00  0.00    +0.000 A 
ATOM     17  F   UNL     1       7.803   5.432  19.253  0.00  0.00    +0.000 F 
ATOM     18  C   UNL     1       5.654   5.239  18.287  0.00  0.00    +0.000 A 
ATOM     19  O   UNL     1       4.952   5.666  19.389  0.00  0.00    +0.000 OA
ENDBRANCH   2  10
BRANCH   6  20
ATOM     20  C   UNL     1      -0.166  11.341  20.492  0.00  0.00    +0.000 A 
ATOM     21  C   UNL     1      -1.433  11.583  19.936  0.00  0.00    +0.000 A 
ATOM     22  C   UNL     1      -2.039  12.840  20.048  0.00  0.00    +0.000 A 
ATOM     23  C   UNL     1      -1.390  13.876  20.715  0.00  0.00    +0.000 A 
ATOM     24  C   UNL     1      -0.135  13.659  21.273  0.00  0.00    +0.000 A 
ATOM     25  C   UNL     1       0.469  12.403  21.161  0.00  0.00    +0.000 A 
ENDBRANCH   6  20
TORSDOF 2
ENDMDL
MODEL 8
REMARK VINA RESULT:      -7.7      6.368      7.357
REMARK  Name = 
REMARK  2 active torsions:
REMARK  status: ('A' for Active; 'I' for Inactive)
REMARK    1  A    between atoms: C_2  and  C_15
REMARK    2  A    between atoms: C_6  and  C_7
REMARK                            x       y       z     vdW  Elec       q    Type
REMARK                         _______ _______ _______ _____ _____    ______ ____
ROOT
ATOM      1  O   UNL     1       2.630   8.484  17.269  0.00  0.00    +0.000 OA
ATOM      2  C   UNL     1       2.521   7.739  18.236  0.00  0.00    +0.000 C 
ATOM      3  N   UNL     1       1.971   8.043  19.472  0.00  0.00    +0.000 N 
ATOM      4  C   UNL     1       1.344   9.234  19.785  0.00  0.00    +0.000 A 
ATOM      5  C   UNL     1       0.819   9.552  21.066  0.00  0.00    +0.000 A 
ATOM      6  C   UNL     1       0.260  10.804  20.927  0.00  0.00    +0.000 A 
ATOM      7  O   UNL     1       0.443  11.203  19.636  0.00  0.00    +0.000 OA
ATOM      8  N   UNL     1       1.112  10.230  18.929  0.00  0.00    +0.000 NA
ATOM      9  H   UNL     1       2.053   7.348  20.205  0.00  0.00    +0.000 HD
ENDROOT
BRANCH   2  10
ATOM     10  C   UNL     1       2.884   6.257  18.138  0.00  0.00    +0.000 C 
ATOM     11  C   UNL     1       4.057   5.834  19.030  0.00  0.00    +0.000 C 
ATOM     12  C   UNL     1       3.747   4.380  19.052  0.00  0.00    +0.000 A 
ATOM     13  C   UNL     1       4.558   3.288  19.308  0.00  0.00    +0.000 A 
ATOM     14  C   UNL     1       3.987   2.010  19.236  0.00  0.00    +0.000 A 
ATOM     15  C   UNL     1       2.618   1.848  18.952  0.00  0.00    +0.000 A 
ATOM     16  C   UNL     1       1.818   2.962  18.721  0.00  0.00    +0.000 A 
ATOM     17  F   UNL     1       0.520   2.813  18.431  0.00  0.00    +0.000 F 
ATOM     18  C   UNL     1       2.400   4.211  18.750  0.00  0.00    +0.000 A 
ATOM     19  O   UNL     1       1.765   5.392  18.444  0.00  0.00    +0.000 OA
ENDBRANCH   2  10
BRANCH   6  20
ATOM     20  C   UNL     1      -0.443  11.743  21.796  0.00  0.00    +0.000 A 
ATOM     21  C   UNL     1      -1.489  11.320  22.631  0.00  0.00    +0.000 A 
ATOM     22  C   UNL     1      -2.160  12.226  23.460  0.00  0.00    +0.000 A 
ATOM     23  C   UNL     1      -1.800  13.571  23.466  0.00  0.00    +0.000 A 
ATOM     24  C   UNL     1      -0.767  14.014  22.646  0.00  0.00    +0.000 A 
ATOM     25  C   UNL     1      -0.097  13.107  21.819  0.00  0.00    +0.000 A 
ENDBRANCH   6  20
TORSDOF 2
ENDMDL
MODEL 9
REMARK VINA RESULT:      -7.7      7.080      8.030
REMARK  Name = 
REMARK  2 active torsions:
REMARK  status: ('A' for Active; 'I' for Inactive)
REMARK    1  A    between atoms: C_2  and  C_15
REMARK    2  A    between atoms: C_6  and  C_7
REMARK                            x       y       z     vdW  Elec       q    Type
REMARK                         _______ _______ _______ _____ _____    ______ ____
ROOT
ATOM      1  O   UNL     1       2.462   8.594  18.251  0.00  0.00    +0.000 OA
ATOM      2  C   UNL     1       2.126   7.978  19.257  0.00  0.00    +0.000 C 
ATOM      3  N   UNL     1       1.355   8.448  20.309  0.00  0.00    +0.000 N 
ATOM      4  C   UNL     1       0.736   9.682  20.345  0.00  0.00    +0.000 A 
ATOM      5  C   UNL     1      -0.018  10.170  21.446  0.00  0.00    +0.000 A 
ATOM      6  C   UNL     1      -0.476  11.408  21.049  0.00  0.00    +0.000 A 
ATOM      7  O   UNL     1      -0.021  11.638  19.785  0.00  0.00    +0.000 OA
ATOM      8  N   UNL     1       0.729  10.569  19.349  0.00  0.00    +0.000 NA
ATOM      9  H   UNL     1       1.256   7.848  21.120  0.00  0.00    +0.000 HD
ENDROOT
BRANCH   2  10
ATOM     10  C   UNL     1       2.429   6.488  19.410  0.00  0.00    +0.000 C 
ATOM     11  C   UNL     1       1.627   5.790  20.515  0.00  0.00    +0.000 C 
ATOM     12  C   UNL     1       1.794   4.404  20.005  0.00  0.00    +0.000 A 
ATOM     13  C   UNL     1       1.704   3.185  20.656  0.00  0.00    +0.000 A 
ATOM     14  C   UNL     1       1.933   2.020  19.912  0.00  0.00    +0.000 A 
ATOM     15  C   UNL     1       2.207   2.088  18.534  0.00  0.00    +0.000 A 
ATOM     16  C   UNL     1       2.269   3.323  17.896  0.00  0.00    +0.000 A 
ATOM     17  F   UNL     1       2.549   3.395  16.589  0.00  0.00    +0.000 F 
ATOM     18  C   UNL     1       2.086   4.464  18.646  0.00  0.00    +0.000 A 
ATOM     19  O   UNL     1       2.218   5.752  18.182  0.00  0.00    +0.000 OA
ENDBRANCH   2  10
BRANCH   6  20
ATOM     20  C   UNL     1      -1.293  12.465  21.639  0.00  0.00    +0.000 A 
ATOM     21  C   UNL     1      -2.238  13.167  20.875  0.00  0.00    +0.000 A 
ATOM     22  C   UNL     1      -3.016  14.181  21.446  0.00  0.00    +0.000 A 
ATOM     23  C   UNL     1      -2.860  14.512  22.790  0.00  0.00    +0.000 A 
ATOM     24  C   UNL     1      -1.929  13.831  23.566  0.00  0.00    +0.000 A 
ATOM     25  C   UNL     1      -1.154  12.817  22.994  0.00  0.00    +0.000 A 
ENDBRANCH   6  20
TORSDOF 2
ENDMDL
