MODEL 1
REMARK VINA RESULT:      -8.7      0.000      0.000
REMARK  Name = 
REMARK  4 active torsions:
REMARK  status: ('A' for Active; 'I' for Inactive)
REMARK    1  A    between atoms: C_5  and  C_6
REMARK    2  A    between atoms: C_6  and  N_7
REMARK    3  A    between atoms: C_14  and  C_15
REMARK    4  A    between atoms: N_21  and  C_22
REMARK                            x       y       z     vdW  Elec       q    Type
REMARK                         _______ _______ _______ _____ _____    ______ ____
ROOT
ATOM      1  O   UNL     1       4.230   7.507  16.922  0.00  0.00    +0.000 OA
ATOM      2  C   UNL     1       3.909   6.407  17.332  0.00  0.00    +0.000 C 
ATOM      3  C   UNL     1       2.986   6.255  18.450  0.00  0.00    +0.000 A 
ATOM      4  C   UNL     1       2.480   7.260  19.239  0.00  0.00    +0.000 A 
ATOM      5  C   UNL     1       1.805   6.898  20.404  0.00  0.00    +0.000 A 
ATOM      6  C   UNL     1       1.536   5.530  20.649  0.00  0.00    +0.000 A 
ATOM      7  C   UNL     1       1.988   4.513  19.772  0.00  0.00    +0.000 A 
ATOM      8  C   UNL     1       2.775   4.905  18.693  0.00  0.00    +0.000 A 
ATOM      9  C   UNL     1       3.540   4.106  17.680  0.00  0.00    +0.000 C 
ATOM     10  N   UNL     1       4.276   5.126  16.935  0.00  0.00    +0.000 N 
ENDROOT
BRANCH  10  11
ATOM     11  C   UNL     1       5.241   4.832  15.937  0.00  0.00    +0.000 A 
ATOM     12  C   UNL     1       6.599   5.148  16.123  0.00  0.00    +0.000 A 
ATOM     13  C   UNL     1       7.551   4.912  15.127  0.00  0.00    +0.000 A 
ATOM     14  C   UNL     1       7.157   4.350  13.920  0.00  0.00    +0.000 A 
ATOM     15  C   UNL     1       5.825   4.002  13.741  0.00  0.00    +0.000 A 
ATOM     16  F   UNL     1       5.443   3.452  12.579  0.00  0.00    +0.000 F 
ATOM     17  C   UNL     1       4.871   4.222  14.735  0.00  0.00    +0.000 A 
ENDBRANCH  10  11
BRANCH   7  18
ATOM     18  C   UNL     1       1.655   3.063  20.006  0.00  0.00    +0.000 C 
ATOM     19  F   UNL     1       0.973   2.481  18.983  0.00  0.00    +0.000 F 
ATOM     20  F   UNL     1       2.774   2.307  20.186  0.00  0.00    +0.000 F 
ATOM     21  F   UNL     1       0.900   2.876  21.122  0.00  0.00    +0.000 F 
ENDBRANCH   7  18
BRANCH   5  22
ATOM     22  C   UNL     1       1.492   7.983  21.414  0.00  0.00    +0.000 C 
BRANCH  22  23
ATOM     23  N   UNL     1       0.293   8.760  21.067  0.00  0.00    +0.000 NA
ATOM     24  C   UNL     1       0.632  10.036  20.405  0.00  0.00    +0.000 C 
ATOM     25  C   UNL     1       0.345  11.165  21.406  0.00  0.00    +0.000 C 
ATOM     26  C   UNL     1      -0.690  10.594  22.322  0.00  0.00    +0.000 C 
ATOM     27  C   UNL     1      -0.280   9.742  23.480  0.00  0.00    +0.000 C 
ATOM     28  C   UNL     1      -0.643   9.096  22.172  0.00  0.00    +0.000 C 
ENDBRANCH  22  23
ENDBRANCH   5  22
TORSDOF 4
ENDMDL
MODEL 2
REMARK VINA RESULT:      -8.6      2.112      7.727
REMARK  Name = 
REMARK  4 active torsions:
REMARK  status: ('A' for Active; 'I' for Inactive)
REMARK    1  A    between atoms: C_5  and  C_6
REMARK    2  A    between atoms: C_6  and  N_7
REMARK    3  A    between atoms: C_14  and  C_15
REMARK    4  A    between atoms: N_21  and  C_22
REMARK                            x       y       z     vdW  Elec       q    Type
REMARK                         _______ _______ _______ _____ _____    ______ ____
ROOT
ATOM      1  O   UNL     1       2.506   8.754  18.441  0.00  0.00    +0.000 OA
ATOM      2  C   UNL     1       2.208   7.856  19.207  0.00  0.00    +0.000 C 
ATOM      3  C   UNL     1       2.676   6.493  18.996  0.00  0.00    +0.000 A 
ATOM      4  C   UNL     1       3.368   6.022  17.906  0.00  0.00    +0.000 A 
ATOM      5  C   UNL     1       3.519   4.642  17.775  0.00  0.00    +0.000 A 
ATOM      6  C   UNL     1       3.096   3.798  18.830  0.00  0.00    +0.000 A 
ATOM      7  C   UNL     1       2.468   4.314  19.990  0.00  0.00    +0.000 A 
ATOM      8  C   UNL     1       2.212   5.682  20.022  0.00  0.00    +0.000 A 
ATOM      9  C   UNL     1       1.440   6.525  20.993  0.00  0.00    +0.000 C 
ATOM     10  N   UNL     1       1.424   7.841  20.355  0.00  0.00    +0.000 N 
ENDROOT
BRANCH  10  11
ATOM     11  C   UNL     1       0.694   8.950  20.855  0.00  0.00    +0.000 A 
ATOM     12  C   UNL     1       0.555   9.165  22.238  0.00  0.00    +0.000 A 
ATOM     13  C   UNL     1      -0.205  10.224  22.744  0.00  0.00    +0.000 A 
ATOM     14  C   UNL     1      -0.842  11.092  21.868  0.00  0.00    +0.000 A 
ATOM     15  C   UNL     1      -0.681  10.908  20.501  0.00  0.00    +0.000 A 
ATOM     16  F   UNL     1      -1.290  11.750  19.653  0.00  0.00    +0.000 F 
ATOM     17  C   UNL     1       0.086   9.863  19.988  0.00  0.00    +0.000 A 
ENDBRANCH  10  11
BRANCH   7  18
ATOM     18  C   UNL     1       2.068   3.421  21.135  0.00  0.00    +0.000 C 
ATOM     19  F   UNL     1       0.732   3.174  21.202  0.00  0.00    +0.000 F 
ATOM     20  F   UNL     1       2.670   2.201  21.063  0.00  0.00    +0.000 F 
ATOM     21  F   UNL     1       2.421   3.935  22.344  0.00  0.00    +0.000 F 
ENDBRANCH   7  18
BRANCH   5  22
ATOM     22  C   UNL     1       4.025   4.102  16.453  0.00  0.00    +0.000 C 
BRANCH  22  23
ATOM     23  N   UNL     1       5.453   3.754  16.485  0.00  0.00    +0.000 NA
ATOM     24  C   UNL     1       6.215   4.631  17.399  0.00  0.00    +0.000 C 
ATOM     25  C   UNL     1       7.073   5.564  16.532  0.00  0.00    +0.000 C 
ATOM     26  C   UNL     1       7.257   4.816  15.251  0.00  0.00    +0.000 C 
ATOM     27  C   UNL     1       6.209   4.879  14.188  0.00  0.00    +0.000 C 
ATOM     28  C   UNL     1       6.184   3.760  15.191  0.00  0.00    +0.000 C 
ENDBRANCH  22  23
ENDBRANCH   5  22
TORSDOF 4
ENDMDL
MODEL 3
REMARK VINA RESULT:      -8.6      2.040      7.805
REMARK  Name = 
REMARK  4 active torsions:
REMARK  status: ('A' for Active; 'I' for Inactive)
REMARK    1  A    between atoms: C_5  and  C_6
REMARK    2  A    between atoms: C_6  and  N_7
REMARK    3  A    between atoms: C_14  and  C_15
REMARK    4  A    between atoms: N_21  and  C_22
REMARK                            x       y       z     vdW  Elec       q    Type
REMARK                         _______ _______ _______ _____ _____    ______ ____
ROOT
ATOM      1  O   UNL     1       2.606   8.695  18.285  0.00  0.00    +0.000 OA
ATOM      2  C   UNL     1       2.278   7.822  19.067  0.00  0.00    +0.000 C 
ATOM      3  C   UNL     1       2.769   6.457  18.929  0.00  0.00    +0.000 A 
ATOM      4  C   UNL     1       3.517   5.955  17.891  0.00  0.00    +0.000 A 
ATOM      5  C   UNL     1       3.686   4.573  17.817  0.00  0.00    +0.000 A 
ATOM      6  C   UNL     1       3.220   3.763  18.880  0.00  0.00    +0.000 A 
ATOM      7  C   UNL     1       2.531   4.313  19.989  0.00  0.00    +0.000 A 
ATOM      8  C   UNL     1       2.262   5.679  19.959  0.00  0.00    +0.000 A 
ATOM      9  C   UNL     1       1.436   6.547  20.860  0.00  0.00    +0.000 C 
ATOM     10  N   UNL     1       1.439   7.839  20.175  0.00  0.00    +0.000 N 
ENDROOT
BRANCH  10  11
ATOM     11  C   UNL     1       0.676   8.958  20.599  0.00  0.00    +0.000 A 
ATOM     12  C   UNL     1       0.309   9.971  19.696  0.00  0.00    +0.000 A 
ATOM     13  C   UNL     1      -0.397  11.104  20.110  0.00  0.00    +0.000 A 
ATOM     14  C   UNL     1      -0.749  11.244  21.446  0.00  0.00    +0.000 A 
ATOM     15  C   UNL     1      -0.420  10.232  22.338  0.00  0.00    +0.000 A 
ATOM     16  F   UNL     1      -0.765  10.361  23.628  0.00  0.00    +0.000 F 
ATOM     17  C   UNL     1       0.271   9.092  21.930  0.00  0.00    +0.000 A 
ENDBRANCH  10  11
BRANCH   7  18
ATOM     18  C   UNL     1       2.084   3.457  21.144  0.00  0.00    +0.000 C 
ATOM     19  F   UNL     1       0.742   3.233  21.179  0.00  0.00    +0.000 F 
ATOM     20  F   UNL     1       2.667   2.225  21.120  0.00  0.00    +0.000 F 
ATOM     21  F   UNL     1       2.412   3.996  22.350  0.00  0.00    +0.000 F 
ENDBRANCH   7  18
BRANCH   5  22
ATOM     22  C   UNL     1       4.261   3.992  16.541  0.00  0.00    +0.000 C 
BRANCH  22  23
ATOM     23  N   UNL     1       5.021   4.975  15.755  0.00  0.00    +0.000 NA
ATOM     24  C   UNL     1       5.290   4.498  14.383  0.00  0.00    +0.000 C 
ATOM     25  C   UNL     1       6.786   4.162  14.297  0.00  0.00    +0.000 C 
ATOM     26  C   UNL     1       7.417   5.009  15.356  0.00  0.00    +0.000 C 
ATOM     27  C   UNL     1       7.447   4.539  16.774  0.00  0.00    +0.000 C 
ATOM     28  C   UNL     1       6.325   5.425  16.306  0.00  0.00    +0.000 C 
ENDBRANCH  22  23
ENDBRANCH   5  22
TORSDOF 4
ENDMDL
MODEL 4
REMARK VINA RESULT:      -8.6      2.090      7.836
REMARK  Name = 
REMARK  4 active torsions:
REMARK  status: ('A' for Active; 'I' for Inactive)
REMARK    1  A    between atoms: C_5  and  C_6
REMARK    2  A    between atoms: C_6  and  N_7
REMARK    3  A    between atoms: C_14  and  C_15
REMARK    4  A    between atoms: N_21  and  C_22
REMARK                            x       y       z     vdW  Elec       q    Type
REMARK                         _______ _______ _______ _____ _____    ______ ____
ROOT
ATOM      1  O   UNL     1       2.567   8.693  18.245  0.00  0.00    +0.000 OA
ATOM      2  C   UNL     1       2.264   7.829  19.046  0.00  0.00    +0.000 C 
ATOM      3  C   UNL     1       2.737   6.459  18.898  0.00  0.00    +0.000 A 
ATOM      4  C   UNL     1       3.438   5.943  17.834  0.00  0.00    +0.000 A 
ATOM      5  C   UNL     1       3.592   4.559  17.763  0.00  0.00    +0.000 A 
ATOM      6  C   UNL     1       3.163   3.760  18.850  0.00  0.00    +0.000 A 
ATOM      7  C   UNL     1       2.525   4.324  19.982  0.00  0.00    +0.000 A 
ATOM      8  C   UNL     1       2.266   5.692  19.953  0.00  0.00    +0.000 A 
ATOM      9  C   UNL     1       1.485   6.573  20.882  0.00  0.00    +0.000 C 
ATOM     10  N   UNL     1       1.471   7.860  20.188  0.00  0.00    +0.000 N 
ENDROOT
BRANCH  10  11
ATOM     11  C   UNL     1       0.736   8.989  20.634  0.00  0.00    +0.000 A 
ATOM     12  C   UNL     1       0.447  10.058  19.767  0.00  0.00    +0.000 A 
ATOM     13  C   UNL     1      -0.230  11.199  20.207  0.00  0.00    +0.000 A 
ATOM     14  C   UNL     1      -0.632  11.290  21.533  0.00  0.00    +0.000 A 
ATOM     15  C   UNL     1      -0.382  10.225  22.388  0.00  0.00    +0.000 A 
ATOM     16  F   UNL     1      -0.776  10.307  23.667  0.00  0.00    +0.000 F 
ATOM     17  C   UNL     1       0.281   9.077  21.953  0.00  0.00    +0.000 A 
ENDBRANCH  10  11
BRANCH   7  18
ATOM     18  C   UNL     1       2.117   3.479  21.161  0.00  0.00    +0.000 C 
ATOM     19  F   UNL     1       2.438   4.022  22.366  0.00  0.00    +0.000 F 
ATOM     20  F   UNL     1       0.771   3.267  21.193  0.00  0.00    +0.000 F 
ATOM     21  F   UNL     1       2.684   2.243  21.136  0.00  0.00    +0.000 F 
ENDBRANCH   7  18
BRANCH   5  22
ATOM     22  C   UNL     1       4.109   3.964  16.469  0.00  0.00    +0.000 C 
BRANCH  22  23
ATOM     23  N   UNL     1       5.557   3.709  16.494  0.00  0.00    +0.000 NA
ATOM     24  C   UNL     1       6.266   4.634  17.404  0.00  0.00    +0.000 C 
ATOM     25  C   UNL     1       7.058   5.619  16.532  0.00  0.00    +0.000 C 
ATOM     26  C   UNL     1       7.283   4.883  15.251  0.00  0.00    +0.000 C 
ATOM     27  C   UNL     1       6.227   4.879  14.193  0.00  0.00    +0.000 C 
ATOM     28  C   UNL     1       6.280   3.761  15.197  0.00  0.00    +0.000 C 
ENDBRANCH  22  23
ENDBRANCH   5  22
TORSDOF 4
ENDMDL
MODEL 5
REMARK VINA RESULT:      -8.5      2.070      7.715
REMARK  Name = 
REMARK  4 active torsions:
REMARK  status: ('A' for Active; 'I' for Inactive)
REMARK    1  A    between atoms: C_5  and  C_6
REMARK    2  A    between atoms: C_6  and  N_7
REMARK    3  A    between atoms: C_14  and  C_15
REMARK    4  A    between atoms: N_21  and  C_22
REMARK                            x       y       z     vdW  Elec       q    Type
REMARK                         _______ _______ _______ _____ _____    ______ ____
ROOT
ATOM      1  O   UNL     1       2.589   8.685  18.406  0.00  0.00    +0.000 OA
ATOM      2  C   UNL     1       2.283   7.802  19.185  0.00  0.00    +0.000 C 
ATOM      3  C   UNL     1       2.766   6.438  19.013  0.00  0.00    +0.000 A 
ATOM      4  C   UNL     1       3.482   5.949  17.946  0.00  0.00    +0.000 A 
ATOM      5  C   UNL     1       3.647   4.569  17.848  0.00  0.00    +0.000 A 
ATOM      6  C   UNL     1       3.210   3.743  18.912  0.00  0.00    +0.000 A 
ATOM      7  C   UNL     1       2.556   4.279  20.049  0.00  0.00    +0.000 A 
ATOM      8  C   UNL     1       2.289   5.645  20.046  0.00  0.00    +0.000 A 
ATOM      9  C   UNL     1       1.492   6.502  20.984  0.00  0.00    +0.000 C 
ATOM     10  N   UNL     1       1.477   7.804  20.318  0.00  0.00    +0.000 N 
ENDROOT
BRANCH  10  11
ATOM     11  C   UNL     1       0.730   8.918  20.780  0.00  0.00    +0.000 A 
ATOM     12  C   UNL     1       0.554   9.155  22.156  0.00  0.00    +0.000 A 
ATOM     13  C   UNL     1      -0.224  10.218  22.624  0.00  0.00    +0.000 A 
ATOM     14  C   UNL     1      -0.842  11.068  21.717  0.00  0.00    +0.000 A 
ATOM     15  C   UNL     1      -0.646  10.862  20.358  0.00  0.00    +0.000 A 
ATOM     16  F   UNL     1      -1.237  11.686  19.481  0.00  0.00    +0.000 F 
ATOM     17  C   UNL     1       0.140   9.812  19.883  0.00  0.00    +0.000 A 
ENDBRANCH  10  11
BRANCH   7  18
ATOM     18  C   UNL     1       2.141   3.407  21.204  0.00  0.00    +0.000 C 
ATOM     19  F   UNL     1       2.387   3.954  22.426  0.00  0.00    +0.000 F 
ATOM     20  F   UNL     1       0.806   3.132  21.180  0.00  0.00    +0.000 F 
ATOM     21  F   UNL     1       2.766   2.198  21.196  0.00  0.00    +0.000 F 
ENDBRANCH   7  18
BRANCH   5  22
ATOM     22  C   UNL     1       4.182   4.005  16.547  0.00  0.00    +0.000 C 
BRANCH  22  23
ATOM     23  N   UNL     1       4.974   4.980  15.783  0.00  0.00    +0.000 NA
ATOM     24  C   UNL     1       5.262   4.507  14.413  0.00  0.00    +0.000 C 
ATOM     25  C   UNL     1       6.754   4.146  14.355  0.00  0.00    +0.000 C 
ATOM     26  C   UNL     1       7.378   4.975  15.431  0.00  0.00    +0.000 C 
ATOM     27  C   UNL     1       7.371   4.496  16.847  0.00  0.00    +0.000 C 
ATOM     28  C   UNL     1       6.275   5.404  16.362  0.00  0.00    +0.000 C 
ENDBRANCH  22  23
ENDBRANCH   5  22
TORSDOF 4
ENDMDL
MODEL 6
REMARK VINA RESULT:      -8.1      3.647      5.842
REMARK  Name = 
REMARK  4 active torsions:
REMARK  status: ('A' for Active; 'I' for Inactive)
REMARK    1  A    between atoms: C_5  and  C_6
REMARK    2  A    between atoms: C_6  and  N_7
REMARK    3  A    between atoms: C_14  and  C_15
REMARK    4  A    between atoms: N_21  and  C_22
REMARK                            x       y       z     vdW  Elec       q    Type
REMARK                         _______ _______ _______ _____ _____    ______ ____
ROOT
ATOM      1  O   UNL     1       2.671   7.778  17.521  0.00  0.00    +0.000 OA
ATOM      2  C   UNL     1       2.233   7.840  18.655  0.00  0.00    +0.000 C 
ATOM      3  C   UNL     1       1.553   9.034  19.141  0.00  0.00    +0.000 A 
ATOM      4  C   UNL     1       1.430  10.234  18.481  0.00  0.00    +0.000 A 
ATOM      5  C   UNL     1       0.956  11.329  19.202  0.00  0.00    +0.000 A 
ATOM      6  C   UNL     1       0.481  11.134  20.521  0.00  0.00    +0.000 A 
ATOM      7  C   UNL     1       0.531   9.866  21.151  0.00  0.00    +0.000 A 
ATOM      8  C   UNL     1       1.137   8.828  20.448  0.00  0.00    +0.000 A 
ATOM      9  C   UNL     1       1.501   7.432  20.857  0.00  0.00    +0.000 C 
ATOM     10  N   UNL     1       2.250   6.931  19.706  0.00  0.00    +0.000 N 
ENDROOT
BRANCH  10  11
ATOM     11  C   UNL     1       2.908   5.674  19.680  0.00  0.00    +0.000 A 
ATOM     12  C   UNL     1       4.278   5.576  19.376  0.00  0.00    +0.000 A 
ATOM     13  C   UNL     1       4.926   4.340  19.295  0.00  0.00    +0.000 A 
ATOM     14  C   UNL     1       4.210   3.173  19.520  0.00  0.00    +0.000 A 
ATOM     15  C   UNL     1       2.866   3.262  19.856  0.00  0.00    +0.000 A 
ATOM     16  F   UNL     1       2.173   2.136  20.081  0.00  0.00    +0.000 F 
ATOM     17  C   UNL     1       2.214   4.491  19.952  0.00  0.00    +0.000 A 
ENDBRANCH  10  11
BRANCH   7  18
ATOM     18  C   UNL     1      -0.023   9.649  22.534  0.00  0.00    +0.000 C 
ATOM     19  F   UNL     1      -0.695  10.720  23.035  0.00  0.00    +0.000 F 
ATOM     20  F   UNL     1      -0.901   8.607  22.572  0.00  0.00    +0.000 F 
ATOM     21  F   UNL     1       0.945   9.348  23.442  0.00  0.00    +0.000 F 
ENDBRANCH   7  18
BRANCH   5  22
ATOM     22  C   UNL     1       1.080  12.703  18.576  0.00  0.00    +0.000 C 
BRANCH  22  23
ATOM     23  N   UNL     1       1.547  13.724  19.524  0.00  0.00    +0.000 NA
ATOM     24  C   UNL     1       0.757  14.970  19.430  0.00  0.00    +0.000 C 
ATOM     25  C   UNL     1       1.649  16.031  18.769  0.00  0.00    +0.000 C 
ATOM     26  C   UNL     1       3.043  15.584  19.071  0.00  0.00    +0.000 C 
ATOM     27  C   UNL     1       3.708  14.563  18.205  0.00  0.00    +0.000 C 
ATOM     28  C   UNL     1       2.975  14.127  19.444  0.00  0.00    +0.000 C 
ENDBRANCH  22  23
ENDBRANCH   5  22
TORSDOF 4
ENDMDL
MODEL 7
REMARK VINA RESULT:      -8.1      3.646      5.633
REMARK  Name = 
REMARK  4 active torsions:
REMARK  status: ('A' for Active; 'I' for Inactive)
REMARK    1  A    between atoms: C_5  and  C_6
REMARK    2  A    between atoms: C_6  and  N_7
REMARK    3  A    between atoms: C_14  and  C_15
REMARK    4  A    between atoms: N_21  and  C_22
REMARK                            x       y       z     vdW  Elec       q    Type
REMARK                         _______ _______ _______ _____ _____    ______ ____
ROOT
ATOM      1  O   UNL     1       2.365   8.643  17.167  0.00  0.00    +0.000 OA
ATOM      2  C   UNL     1       2.012   8.501  18.323  0.00  0.00    +0.000 C 
ATOM      3  C   UNL     1       1.344   9.573  19.049  0.00  0.00    +0.000 A 
ATOM      4  C   UNL     1       1.146  10.861  18.612  0.00  0.00    +0.000 A 
ATOM      5  C   UNL     1       0.704  11.804  19.539  0.00  0.00    +0.000 A 
ATOM      6  C   UNL     1       0.334  11.376  20.836  0.00  0.00    +0.000 A 
ATOM      7  C   UNL     1       0.458  10.023  21.238  0.00  0.00    +0.000 A 
ATOM      8  C   UNL     1       1.032   9.138  20.329  0.00  0.00    +0.000 A 
ATOM      9  C   UNL     1       1.456   7.706  20.470  0.00  0.00    +0.000 C 
ATOM     10  N   UNL     1       2.128   7.430  19.201  0.00  0.00    +0.000 N 
ENDROOT
BRANCH  10  11
ATOM     11  C   UNL     1       2.809   6.218  18.918  0.00  0.00    +0.000 A 
ATOM     12  C   UNL     1       4.061   5.936  19.494  0.00  0.00    +0.000 A 
ATOM     13  C   UNL     1       4.767   4.770  19.182  0.00  0.00    +0.000 A 
ATOM     14  C   UNL     1       4.227   3.860  18.284  0.00  0.00    +0.000 A 
ATOM     15  C   UNL     1       2.976   4.113  17.737  0.00  0.00    +0.000 A 
ATOM     16  F   UNL     1       2.449   3.232  16.874  0.00  0.00    +0.000 F 
ATOM     17  C   UNL     1       2.259   5.267  18.053  0.00  0.00    +0.000 A 
ENDBRANCH  10  11
BRANCH   7  18
ATOM     18  C   UNL     1       0.014   9.560  22.600  0.00  0.00    +0.000 C 
ATOM     19  F   UNL     1      -0.636  10.512  23.323  0.00  0.00    +0.000 F 
ATOM     20  F   UNL     1      -0.841   8.501  22.523  0.00  0.00    +0.000 F 
ATOM     21  F   UNL     1       1.053   9.139  23.371  0.00  0.00    +0.000 F 
ENDBRANCH   7  18
BRANCH   5  22
ATOM     22  C   UNL     1       0.752  13.267  19.146  0.00  0.00    +0.000 C 
BRANCH  22  23
ATOM     23  N   UNL     1       1.660  14.057  19.990  0.00  0.00    +0.000 NA
ATOM     24  C   UNL     1       1.266  15.480  20.045  0.00  0.00    +0.000 C 
ATOM     25  C   UNL     1       2.296  16.275  19.229  0.00  0.00    +0.000 C 
ATOM     26  C   UNL     1       3.529  15.429  19.263  0.00  0.00    +0.000 C 
ATOM     27  C   UNL     1       3.698  14.309  18.288  0.00  0.00    +0.000 C 
ATOM     28  C   UNL     1       3.104  14.035  19.642  0.00  0.00    +0.000 C 
ENDBRANCH  22  23
ENDBRANCH   5  22
TORSDOF 4
ENDMDL
MODEL 8
REMARK VINA RESULT:      -8.0      3.698      5.830
REMARK  Name = 
REMARK  4 active torsions:
REMARK  status: ('A' for Active; 'I' for Inactive)
REMARK    1  A    between atoms: C_5  and  C_6
REMARK    2  A    between atoms: C_6  and  N_7
REMARK    3  A    between atoms: C_14  and  C_15
REMARK    4  A    between atoms: N_21  and  C_22
REMARK                            x       y       z     vdW  Elec       q    Type
REMARK                         _______ _______ _______ _____ _____    ______ ____
ROOT
ATOM      1  O   UNL     1       2.283   8.755  17.200  0.00  0.00    +0.000 OA
ATOM      2  C   UNL     1       1.944   8.598  18.358  0.00  0.00    +0.000 C 
ATOM      3  C   UNL     1       1.261   9.651  19.097  0.00  0.00    +0.000 A 
ATOM      4  C   UNL     1       1.031  10.937  18.670  0.00  0.00    +0.000 A 
ATOM      5  C   UNL     1       0.578  11.865  19.606  0.00  0.00    +0.000 A 
ATOM      6  C   UNL     1       0.230  11.422  20.905  0.00  0.00    +0.000 A 
ATOM      7  C   UNL     1       0.388  10.070  21.297  0.00  0.00    +0.000 A 
ATOM      8  C   UNL     1       0.972   9.203  20.377  0.00  0.00    +0.000 A 
ATOM      9  C   UNL     1       1.428   7.780  20.506  0.00  0.00    +0.000 C 
ATOM     10  N   UNL     1       2.093   7.525  19.229  0.00  0.00    +0.000 N 
ENDROOT
BRANCH  10  11
ATOM     11  C   UNL     1       2.797   6.329  18.932  0.00  0.00    +0.000 A 
ATOM     12  C   UNL     1       2.187   5.286  18.213  0.00  0.00    +0.000 A 
ATOM     13  C   UNL     1       2.851   4.082  17.959  0.00  0.00    +0.000 A 
ATOM     14  C   UNL     1       4.146   3.902  18.424  0.00  0.00    +0.000 A 
ATOM     15  C   UNL     1       4.769   4.939  19.104  0.00  0.00    +0.000 A 
ATOM     16  F   UNL     1       6.023   4.771  19.548  0.00  0.00    +0.000 F 
ATOM     17  C   UNL     1       4.119   6.149  19.350  0.00  0.00    +0.000 A 
ENDBRANCH  10  11
BRANCH   7  18
ATOM     18  C   UNL     1      -0.032   9.589  22.661  0.00  0.00    +0.000 C 
ATOM     19  F   UNL     1       1.002   9.193  23.451  0.00  0.00    +0.000 F 
ATOM     20  F   UNL     1      -0.687  10.557  23.362  0.00  0.00    +0.000 F 
ATOM     21  F   UNL     1      -0.891   8.535  22.600  0.00  0.00    +0.000 F 
ENDBRANCH   7  18
BRANCH   5  22
ATOM     22  C   UNL     1       0.589  13.331  19.222  0.00  0.00    +0.000 C 
BRANCH  22  23
ATOM     23  N   UNL     1       1.542  14.123  20.013  0.00  0.00    +0.000 NA
ATOM     24  C   UNL     1       1.212  15.563  19.998  0.00  0.00    +0.000 C 
ATOM     25  C   UNL     1       2.264  16.268  19.130  0.00  0.00    +0.000 C 
ATOM     26  C   UNL     1       3.459  15.372  19.195  0.00  0.00    +0.000 C 
ATOM     27  C   UNL     1       3.567  14.196  18.278  0.00  0.00    +0.000 C 
ATOM     28  C   UNL     1       2.980  14.019  19.651  0.00  0.00    +0.000 C 
ENDBRANCH  22  23
ENDBRANCH   5  22
TORSDOF 4
ENDMDL
MODEL 9
REMARK VINA RESULT:      -8.0      3.614      5.888
REMARK  Name = 
REMARK  4 active torsions:
REMARK  status: ('A' for Active; 'I' for Inactive)
REMARK    1  A    between atoms: C_5  and  C_6
REMARK    2  A    between atoms: C_6  and  N_7
REMARK    3  A    between atoms: C_14  and  C_15
REMARK    4  A    between atoms: N_21  and  C_22
REMARK                            x       y       z     vdW  Elec       q    Type
REMARK                         _______ _______ _______ _____ _____    ______ ____
ROOT
ATOM      1  O   UNL     1       2.123   8.944  17.252  0.00  0.00    +0.000 OA
ATOM      2  C   UNL     1       1.820   8.791  18.420  0.00  0.00    +0.000 C 
ATOM      3  C   UNL     1       1.057   9.799  19.144  0.00  0.00    +0.000 A 
ATOM      4  C   UNL     1       0.705  11.047  18.686  0.00  0.00    +0.000 A 
ATOM      5  C   UNL     1       0.185  11.956  19.606  0.00  0.00    +0.000 A 
ATOM      6  C   UNL     1      -0.100  11.521  20.923  0.00  0.00    +0.000 A 
ATOM      7  C   UNL     1       0.186  10.200  21.348  0.00  0.00    +0.000 A 
ATOM      8  C   UNL     1       0.830   9.363  20.440  0.00  0.00    +0.000 A 
ATOM      9  C   UNL     1       1.414   7.990  20.598  0.00  0.00    +0.000 C 
ATOM     10  N   UNL     1       2.078   7.760  19.316  0.00  0.00    +0.000 N 
ENDROOT
BRANCH  10  11
ATOM     11  C   UNL     1       2.882   6.624  19.038  0.00  0.00    +0.000 A 
ATOM     12  C   UNL     1       3.753   6.604  17.933  0.00  0.00    +0.000 A 
ATOM     13  C   UNL     1       4.511   5.473  17.617  0.00  0.00    +0.000 A 
ATOM     14  C   UNL     1       4.409   4.335  18.406  0.00  0.00    +0.000 A 
ATOM     15  C   UNL     1       3.578   4.359  19.518  0.00  0.00    +0.000 A 
ATOM     16  F   UNL     1       3.484   3.264  20.287  0.00  0.00    +0.000 F 
ATOM     17  C   UNL     1       2.829   5.488  19.849  0.00  0.00    +0.000 A 
ENDBRANCH  10  11
BRANCH   7  18
ATOM     18  C   UNL     1      -0.167   9.722  22.732  0.00  0.00    +0.000 C 
ATOM     19  F   UNL     1      -0.857  10.632  23.472  0.00  0.00    +0.000 F 
ATOM     20  F   UNL     1      -0.943   8.602  22.701  0.00  0.00    +0.000 F 
ATOM     21  F   UNL     1       0.930   9.389  23.464  0.00  0.00    +0.000 F 
ENDBRANCH   7  18
BRANCH   5  22
ATOM     22  C   UNL     1       0.059  13.406  19.183  0.00  0.00    +0.000 C 
BRANCH  22  23
ATOM     23  N   UNL     1       1.003  14.291  19.881  0.00  0.00    +0.000 NA
ATOM     24  C   UNL     1       0.787  15.712  19.537  0.00  0.00    +0.000 C 
ATOM     25  C   UNL     1       1.958  16.153  18.646  0.00  0.00    +0.000 C 
ATOM     26  C   UNL     1       3.070  15.223  19.009  0.00  0.00    +0.000 C 
ATOM     27  C   UNL     1       3.161  13.875  18.369  0.00  0.00    +0.000 C 
ATOM     28  C   UNL     1       2.453  14.028  19.687  0.00  0.00    +0.000 C 
ENDBRANCH  22  23
ENDBRANCH   5  22
TORSDOF 4
ENDMDL
