MODEL 1
REMARK VINA RESULT:      -8.5      0.000      0.000
REMARK  Name = 
REMARK  6 active torsions:
REMARK  status: ('A' for Active; 'I' for Inactive)
REMARK    1  A    between atoms: C_2  and  C_3
REMARK    2  A    between atoms: C_5  and  N_6
REMARK    3  A    between atoms: C_13  and  C_14
REMARK    4  A    between atoms: N_21  and  C_22
REMARK    5  A    between atoms: C_22  and  C_23
REMARK    6  A    between atoms: N_27  and  C_28
REMARK                            x       y       z     vdW  Elec       q    Type
REMARK                         _______ _______ _______ _____ _____    ______ ____
ROOT
ATOM      1  C   UNL     1       3.078   4.118  18.916  0.00  0.00    +0.000 A 
ATOM      2  C   UNL     1       2.089   5.013  19.285  0.00  0.00    +0.000 A 
ATOM      3  C   UNL     1       2.607   6.324  19.225  0.00  0.00    +0.000 A 
ATOM      4  C   UNL     1       3.930   6.202  18.857  0.00  0.00    +0.000 A 
ATOM      5  N   UNL     1       4.213   4.863  18.654  0.00  0.00    +0.000 N 
ENDROOT
BRANCH   3   6
ATOM      6  N   UNL     1       1.947   7.518  19.477  0.00  0.00    +0.000 N 
ATOM      7  C   UNL     1       1.273   7.848  20.721  0.00  0.00    +0.000 C 
ATOM      8  C   UNL     1       0.857   9.271  20.522  0.00  0.00    +0.000 A 
ATOM      9  C   UNL     1       1.230   9.686  19.243  0.00  0.00    +0.000 A 
ATOM     10  C   UNL     1       0.982  10.953  18.758  0.00  0.00    +0.000 A 
ATOM     11  C   UNL     1       0.329  11.845  19.601  0.00  0.00    +0.000 A 
ATOM     12  C   UNL     1      -0.044  11.453  20.899  0.00  0.00    +0.000 A 
ATOM     13  C   UNL     1       0.218  10.154  21.386  0.00  0.00    +0.000 A 
ATOM     14  C   UNL     1       1.924   8.583  18.575  0.00  0.00    +0.000 C 
ATOM     15  O   UNL     1       2.363   8.689  17.442  0.00  0.00    +0.000 OA
BRANCH  13  16
ATOM     16  C   UNL     1      -0.173   9.783  22.791  0.00  0.00    +0.000 C 
ATOM     17  F   UNL     1       0.887   9.468  23.588  0.00  0.00    +0.000 F 
ATOM     18  F   UNL     1      -0.827  10.791  23.431  0.00  0.00    +0.000 F 
ATOM     19  F   UNL     1      -1.002   8.706  22.835  0.00  0.00    +0.000 F 
ENDBRANCH  13  16
ENDBRANCH   3   6
BRANCH   1  21
ATOM     20  C   UNL     1       2.488   2.136  17.711  0.00  0.00    +0.000 C 
ATOM     21  C   UNL     1       3.052   2.705  18.784  0.00  0.00    +0.000 C 
ENDBRANCH   1  21
BRANCH   5  22
ATOM     22  C   UNL     1       5.569   4.369  18.411  0.00  0.00    +0.000 C 
BRANCH  22  23
ATOM     23  C   UNL     1       5.987   4.484  16.987  0.00  0.00    +0.000 A 
ATOM     24  N   UNL     1       5.735   3.600  16.039  0.00  0.00    +0.000 NA
ATOM     25  N   UNL     1       6.420   3.969  14.907  0.00  0.00    +0.000 NA
ATOM     26  C   UNL     1       7.076   5.069  15.181  0.00  0.00    +0.000 A 
ATOM     27  N   UNL     1       6.812   5.449  16.461  0.00  0.00    +0.000 N 
ATOM     28  C   UNL     1       7.339   6.624  17.100  0.00  0.00    +0.000 C 
ENDBRANCH  22  23
ENDBRANCH   5  22
TORSDOF 5
ENDMDL
MODEL 2
REMARK VINA RESULT:      -8.5      1.668      3.497
REMARK  Name = 
REMARK  6 active torsions:
REMARK  status: ('A' for Active; 'I' for Inactive)
REMARK    1  A    between atoms: C_2  and  C_3
REMARK    2  A    between atoms: C_5  and  N_6
REMARK    3  A    between atoms: C_13  and  C_14
REMARK    4  A    between atoms: N_21  and  C_22
REMARK    5  A    between atoms: C_22  and  C_23
REMARK    6  A    between atoms: N_27  and  C_28
REMARK                            x       y       z     vdW  Elec       q    Type
REMARK                         _______ _______ _______ _____ _____    ______ ____
ROOT
ATOM      1  C   UNL     1       4.253   6.082  17.560  0.00  0.00    +0.000 A 
ATOM      2  C   UNL     1       3.619   7.311  17.628  0.00  0.00    +0.000 A 
ATOM      3  C   UNL     1       2.708   7.301  18.705  0.00  0.00    +0.000 A 
ATOM      4  C   UNL     1       2.773   6.039  19.256  0.00  0.00    +0.000 A 
ATOM      5  N   UNL     1       3.722   5.303  18.571  0.00  0.00    +0.000 N 
ENDROOT
BRANCH   3   6
ATOM      6  N   UNL     1       1.897   8.335  19.150  0.00  0.00    +0.000 N 
ATOM      7  C   UNL     1       1.227   8.371  20.438  0.00  0.00    +0.000 C 
ATOM      8  C   UNL     1       0.610   9.733  20.470  0.00  0.00    +0.000 A 
ATOM      9  C   UNL     1       0.877  10.388  19.267  0.00  0.00    +0.000 A 
ATOM     10  C   UNL     1       0.438  11.666  18.989  0.00  0.00    +0.000 A 
ATOM     11  C   UNL     1      -0.303  12.316  19.970  0.00  0.00    +0.000 A 
ATOM     12  C   UNL     1      -0.573  11.680  21.195  0.00  0.00    +0.000 A 
ATOM     13  C   UNL     1      -0.116  10.372  21.470  0.00  0.00    +0.000 A 
ATOM     14  C   UNL     1       1.695   9.511  18.425  0.00  0.00    +0.000 C 
ATOM     15  O   UNL     1       2.074   9.851  17.318  0.00  0.00    +0.000 OA
BRANCH  13  16
ATOM     16  C   UNL     1      -0.402   9.739  22.804  0.00  0.00    +0.000 C 
ATOM     17  F   UNL     1      -1.228  10.481  23.595  0.00  0.00    +0.000 F 
ATOM     18  F   UNL     1      -1.003   8.523  22.683  0.00  0.00    +0.000 F 
ATOM     19  F   UNL     1       0.724   9.534  23.537  0.00  0.00    +0.000 F 
ENDBRANCH  13  16
ENDBRANCH   3   6
BRANCH   1  21
ATOM     20  C   UNL     1       5.334   6.046  15.424  0.00  0.00    +0.000 C 
ATOM     21  C   UNL     1       5.265   5.606  16.687  0.00  0.00    +0.000 C 
ENDBRANCH   1  21
BRANCH   5  22
ATOM     22  C   UNL     1       3.927   3.871  18.794  0.00  0.00    +0.000 C 
BRANCH  22  23
ATOM     23  C   UNL     1       2.654   3.105  18.883  0.00  0.00    +0.000 A 
ATOM     24  N   UNL     1       1.858   2.819  17.868  0.00  0.00    +0.000 NA
ATOM     25  N   UNL     1       0.708   2.254  18.364  0.00  0.00    +0.000 NA
ATOM     26  C   UNL     1       0.821   2.202  19.668  0.00  0.00    +0.000 A 
ATOM     27  N   UNL     1       2.035   2.693  20.038  0.00  0.00    +0.000 N 
ATOM     28  C   UNL     1       2.517   2.771  21.391  0.00  0.00    +0.000 C 
ENDBRANCH  22  23
ENDBRANCH   5  22
TORSDOF 5
ENDMDL
MODEL 3
REMARK VINA RESULT:      -8.4      1.323      1.627
REMARK  Name = 
REMARK  6 active torsions:
REMARK  status: ('A' for Active; 'I' for Inactive)
REMARK    1  A    between atoms: C_2  and  C_3
REMARK    2  A    between atoms: C_5  and  N_6
REMARK    3  A    between atoms: C_13  and  C_14
REMARK    4  A    between atoms: N_21  and  C_22
REMARK    5  A    between atoms: C_22  and  C_23
REMARK    6  A    between atoms: N_27  and  C_28
REMARK                            x       y       z     vdW  Elec       q    Type
REMARK                         _______ _______ _______ _____ _____    ______ ____
ROOT
ATOM      1  C   UNL     1       3.235   4.760  18.171  0.00  0.00    +0.000 A 
ATOM      2  C   UNL     1       2.288   5.533  18.821  0.00  0.00    +0.000 A 
ATOM      3  C   UNL     1       2.594   6.896  18.628  0.00  0.00    +0.000 A 
ATOM      4  C   UNL     1       3.758   6.932  17.891  0.00  0.00    +0.000 A 
ATOM      5  N   UNL     1       4.141   5.636  17.600  0.00  0.00    +0.000 N 
ENDROOT
BRANCH   3   6
ATOM      6  N   UNL     1       1.886   8.003  19.074  0.00  0.00    +0.000 N 
ATOM      7  C   UNL     1       1.252   8.115  20.377  0.00  0.00    +0.000 C 
ATOM      8  C   UNL     1       0.758   9.526  20.402  0.00  0.00    +0.000 A 
ATOM      9  C   UNL     1       1.053  10.139  19.183  0.00  0.00    +0.000 A 
ATOM     10  C   UNL     1       0.721  11.447  18.896  0.00  0.00    +0.000 A 
ATOM     11  C   UNL     1       0.063  12.172  19.882  0.00  0.00    +0.000 A 
ATOM     12  C   UNL     1      -0.234  11.578  21.123  0.00  0.00    +0.000 A 
ATOM     13  C   UNL     1       0.114  10.240  21.407  0.00  0.00    +0.000 A 
ATOM     14  C   UNL     1       1.771   9.183  18.337  0.00  0.00    +0.000 C 
ATOM     15  O   UNL     1       2.153   9.474  17.217  0.00  0.00    +0.000 OA
BRANCH  13  16
ATOM     16  C   UNL     1      -0.196   9.651  22.756  0.00  0.00    +0.000 C 
ATOM     17  F   UNL     1       0.914   9.303  23.468  0.00  0.00    +0.000 F 
ATOM     18  F   UNL     1      -0.888  10.512  23.552  0.00  0.00    +0.000 F 
ATOM     19  F   UNL     1      -0.950   8.523  22.673  0.00  0.00    +0.000 F 
ENDBRANCH  13  16
ENDBRANCH   3   6
BRANCH   1  21
ATOM     20  C   UNL     1       2.273   2.603  17.781  0.00  0.00    +0.000 C 
ATOM     21  C   UNL     1       3.353   3.352  18.036  0.00  0.00    +0.000 C 
ENDBRANCH   1  21
BRANCH   5  22
ATOM     22  C   UNL     1       5.420   5.310  16.969  0.00  0.00    +0.000 C 
BRANCH  22  23
ATOM     23  C   UNL     1       6.582   5.472  17.886  0.00  0.00    +0.000 A 
ATOM     24  N   UNL     1       6.957   4.607  18.811  0.00  0.00    +0.000 NA
ATOM     25  N   UNL     1       7.956   5.179  19.561  0.00  0.00    +0.000 NA
ATOM     26  C   UNL     1       8.175   6.378  19.083  0.00  0.00    +0.000 A 
ATOM     27  N   UNL     1       7.362   6.596  18.013  0.00  0.00    +0.000 N 
ATOM     28  C   UNL     1       7.342   7.797  17.222  0.00  0.00    +0.000 C 
ENDBRANCH  22  23
ENDBRANCH   5  22
TORSDOF 5
ENDMDL
MODEL 4
REMARK VINA RESULT:      -8.4      1.075      1.750
REMARK  Name = 
REMARK  6 active torsions:
REMARK  status: ('A' for Active; 'I' for Inactive)
REMARK    1  A    between atoms: C_2  and  C_3
REMARK    2  A    between atoms: C_5  and  N_6
REMARK    3  A    between atoms: C_13  and  C_14
REMARK    4  A    between atoms: N_21  and  C_22
REMARK    5  A    between atoms: C_22  and  C_23
REMARK    6  A    between atoms: N_27  and  C_28
REMARK                            x       y       z     vdW  Elec       q    Type
REMARK                         _______ _______ _______ _____ _____    ______ ____
ROOT
ATOM      1  C   UNL     1       2.815   4.395  18.047  0.00  0.00    +0.000 A 
ATOM      2  C   UNL     1       1.846   5.363  18.249  0.00  0.00    +0.000 A 
ATOM      3  C   UNL     1       2.429   6.470  18.901  0.00  0.00    +0.000 A 
ATOM      4  C   UNL     1       3.747   6.138  19.126  0.00  0.00    +0.000 A 
ATOM      5  N   UNL     1       3.987   4.884  18.594  0.00  0.00    +0.000 N 
ENDROOT
BRANCH   3   6
ATOM      6  N   UNL     1       1.826   7.667  19.258  0.00  0.00    +0.000 N 
ATOM      7  C   UNL     1       1.181   7.926  20.535  0.00  0.00    +0.000 C 
ATOM      8  C   UNL     1       0.829   9.377  20.457  0.00  0.00    +0.000 A 
ATOM      9  C   UNL     1       1.206   9.877  19.210  0.00  0.00    +0.000 A 
ATOM     10  C   UNL     1       1.010  11.189  18.831  0.00  0.00    +0.000 A 
ATOM     11  C   UNL     1       0.407  12.038  19.753  0.00  0.00    +0.000 A 
ATOM     12  C   UNL     1       0.031  11.559  21.021  0.00  0.00    +0.000 A 
ATOM     13  C   UNL     1       0.239  10.215  21.399  0.00  0.00    +0.000 A 
ATOM     14  C   UNL     1       1.841   8.802  18.445  0.00  0.00    +0.000 C 
ATOM     15  O   UNL     1       2.271   8.980  17.318  0.00  0.00    +0.000 OA
BRANCH  13  16
ATOM     16  C   UNL     1      -0.152   9.749  22.774  0.00  0.00    +0.000 C 
ATOM     17  F   UNL     1      -0.831  10.687  23.496  0.00  0.00    +0.000 F 
ATOM     18  F   UNL     1      -0.960   8.654  22.742  0.00  0.00    +0.000 F 
ATOM     19  F   UNL     1       0.921   9.405  23.535  0.00  0.00    +0.000 F 
ENDBRANCH  13  16
ENDBRANCH   3   6
BRANCH   1  21
ATOM     20  C   UNL     1       2.197   2.082  18.043  0.00  0.00    +0.000 C 
ATOM     21  C   UNL     1       2.745   3.128  17.412  0.00  0.00    +0.000 C 
ENDBRANCH   1  21
BRANCH   5  22
ATOM     22  C   UNL     1       5.244   4.164  18.800  0.00  0.00    +0.000 C 
BRANCH  22  23
ATOM     23  C   UNL     1       6.441   5.046  18.734  0.00  0.00    +0.000 A 
ATOM     24  N   UNL     1       7.230   5.347  19.749  0.00  0.00    +0.000 NA
ATOM     25  N   UNL     1       8.117   6.313  19.340  0.00  0.00    +0.000 NA
ATOM     26  C   UNL     1       7.857   6.584  18.085  0.00  0.00    +0.000 A 
ATOM     27  N   UNL     1       6.837   5.793  17.651  0.00  0.00    +0.000 N 
ATOM     28  C   UNL     1       6.298   5.798  16.318  0.00  0.00    +0.000 C 
ENDBRANCH  22  23
ENDBRANCH   5  22
TORSDOF 5
ENDMDL
MODEL 5
REMARK VINA RESULT:      -8.2      1.083      1.587
REMARK  Name = 
REMARK  6 active torsions:
REMARK  status: ('A' for Active; 'I' for Inactive)
REMARK    1  A    between atoms: C_2  and  C_3
REMARK    2  A    between atoms: C_5  and  N_6
REMARK    3  A    between atoms: C_13  and  C_14
REMARK    4  A    between atoms: N_21  and  C_22
REMARK    5  A    between atoms: C_22  and  C_23
REMARK    6  A    between atoms: N_27  and  C_28
REMARK                            x       y       z     vdW  Elec       q    Type
REMARK                         _______ _______ _______ _____ _____    ______ ____
ROOT
ATOM      1  C   UNL     1       2.730   4.060  19.335  0.00  0.00    +0.000 A 
ATOM      2  C   UNL     1       1.886   5.030  19.849  0.00  0.00    +0.000 A 
ATOM      3  C   UNL     1       2.317   6.298  19.405  0.00  0.00    +0.000 A 
ATOM      4  C   UNL     1       3.452   6.082  18.655  0.00  0.00    +0.000 A 
ATOM      5  N   UNL     1       3.696   4.721  18.599  0.00  0.00    +0.000 N 
ENDROOT
BRANCH   3   6
ATOM      6  N   UNL     1       1.737   7.533  19.654  0.00  0.00    +0.000 N 
ATOM      7  C   UNL     1       1.060   7.901  20.886  0.00  0.00    +0.000 C 
ATOM      8  C   UNL     1       0.751   9.352  20.692  0.00  0.00    +0.000 A 
ATOM      9  C   UNL     1       1.183   9.749  19.426  0.00  0.00    +0.000 A 
ATOM     10  C   UNL     1       1.037  11.035  18.947  0.00  0.00    +0.000 A 
ATOM     11  C   UNL     1       0.429  11.964  19.784  0.00  0.00    +0.000 A 
ATOM     12  C   UNL     1      -0.002  11.589  21.070  0.00  0.00    +0.000 A 
ATOM     13  C   UNL     1       0.156  10.271  21.550  0.00  0.00    +0.000 A 
ATOM     14  C   UNL     1       1.812   8.605  18.762  0.00  0.00    +0.000 C 
ATOM     15  O   UNL     1       2.283   8.689  17.641  0.00  0.00    +0.000 OA
BRANCH  13  16
ATOM     16  C   UNL     1      -0.293   9.917  22.942  0.00  0.00    +0.000 C 
ATOM     17  F   UNL     1       0.733   9.613  23.786  0.00  0.00    +0.000 F 
ATOM     18  F   UNL     1      -0.975  10.932  23.541  0.00  0.00    +0.000 F 
ATOM     19  F   UNL     1      -1.121   8.839  22.965  0.00  0.00    +0.000 F 
ENDBRANCH  13  16
ENDBRANCH   3   6
BRANCH   1  21
ATOM     20  C   UNL     1       1.695   1.939  18.934  0.00  0.00    +0.000 C 
ATOM     21  C   UNL     1       2.705   2.646  19.456  0.00  0.00    +0.000 C 
ENDBRANCH   1  21
BRANCH   5  22
ATOM     22  C   UNL     1       4.915   4.158  18.016  0.00  0.00    +0.000 C 
BRANCH  22  23
ATOM     23  C   UNL     1       6.157   4.801  18.526  0.00  0.00    +0.000 A 
ATOM     24  N   UNL     1       6.544   4.829  19.789  0.00  0.00    +0.000 NA
ATOM     25  N   UNL     1       7.640   5.651  19.890  0.00  0.00    +0.000 NA
ATOM     26  C   UNL     1       7.905   6.108  18.691  0.00  0.00    +0.000 A 
ATOM     27  N   UNL     1       7.024   5.578  17.798  0.00  0.00    +0.000 N 
ATOM     28  C   UNL     1       7.026   5.837  16.383  0.00  0.00    +0.000 C 
ENDBRANCH  22  23
ENDBRANCH   5  22
TORSDOF 5
ENDMDL
MODEL 6
REMARK VINA RESULT:      -8.2      0.678      1.213
REMARK  Name = 
REMARK  6 active torsions:
REMARK  status: ('A' for Active; 'I' for Inactive)
REMARK    1  A    between atoms: C_2  and  C_3
REMARK    2  A    between atoms: C_5  and  N_6
REMARK    3  A    between atoms: C_13  and  C_14
REMARK    4  A    between atoms: N_21  and  C_22
REMARK    5  A    between atoms: C_22  and  C_23
REMARK    6  A    between atoms: N_27  and  C_28
REMARK                            x       y       z     vdW  Elec       q    Type
REMARK                         _______ _______ _______ _____ _____    ______ ____
ROOT
ATOM      1  C   UNL     1       3.073   4.027  19.117  0.00  0.00    +0.000 A 
ATOM      2  C   UNL     1       2.058   4.926  19.398  0.00  0.00    +0.000 A 
ATOM      3  C   UNL     1       2.593   6.231  19.427  0.00  0.00    +0.000 A 
ATOM      4  C   UNL     1       3.947   6.101  19.203  0.00  0.00    +0.000 A 
ATOM      5  N   UNL     1       4.237   4.764  19.000  0.00  0.00    +0.000 N 
ENDROOT
BRANCH   3   6
ATOM      6  N   UNL     1       1.921   7.427  19.636  0.00  0.00    +0.000 N 
ATOM      7  C   UNL     1       1.229   7.789  20.861  0.00  0.00    +0.000 C 
ATOM      8  C   UNL     1       0.806   9.203  20.615  0.00  0.00    +0.000 A 
ATOM      9  C   UNL     1       1.192   9.582  19.329  0.00  0.00    +0.000 A 
ATOM     10  C   UNL     1       0.941  10.832  18.803  0.00  0.00    +0.000 A 
ATOM     11  C   UNL     1       0.271  11.744  19.611  0.00  0.00    +0.000 A 
ATOM     12  C   UNL     1      -0.116  11.388  20.915  0.00  0.00    +0.000 A 
ATOM     13  C   UNL     1       0.149  10.106  21.444  0.00  0.00    +0.000 A 
ATOM     14  C   UNL     1       1.902   8.464  18.702  0.00  0.00    +0.000 C 
ATOM     15  O   UNL     1       2.354   8.541  17.572  0.00  0.00    +0.000 OA
BRANCH  13  16
ATOM     16  C   UNL     1      -0.257   9.774  22.854  0.00  0.00    +0.000 C 
ATOM     17  F   UNL     1       0.795   9.494  23.674  0.00  0.00    +0.000 F 
ATOM     18  F   UNL     1      -0.931  10.793  23.454  0.00  0.00    +0.000 F 
ATOM     19  F   UNL     1      -1.075   8.689  22.920  0.00  0.00    +0.000 F 
ENDBRANCH  13  16
ENDBRANCH   3   6
BRANCH   1  21
ATOM     20  C   UNL     1       1.924   1.928  19.185  0.00  0.00    +0.000 C 
ATOM     21  C   UNL     1       3.046   2.619  18.947  0.00  0.00    +0.000 C 
ENDBRANCH   1  21
BRANCH   5  22
ATOM     22  C   UNL     1       5.606   4.258  18.894  0.00  0.00    +0.000 C 
BRANCH  22  23
ATOM     23  C   UNL     1       6.372   4.873  17.775  0.00  0.00    +0.000 A 
ATOM     24  N   UNL     1       7.211   5.887  17.885  0.00  0.00    +0.000 NA
ATOM     25  N   UNL     1       7.588   6.279  16.623  0.00  0.00    +0.000 NA
ATOM     26  C   UNL     1       6.977   5.499  15.766  0.00  0.00    +0.000 A 
ATOM     27  N   UNL     1       6.228   4.582  16.440  0.00  0.00    +0.000 N 
ATOM     28  C   UNL     1       5.438   3.549  15.826  0.00  0.00    +0.000 C 
ENDBRANCH  22  23
ENDBRANCH   5  22
TORSDOF 5
ENDMDL
MODEL 7
REMARK VINA RESULT:      -8.2      1.700      3.312
REMARK  Name = 
REMARK  6 active torsions:
REMARK  status: ('A' for Active; 'I' for Inactive)
REMARK    1  A    between atoms: C_2  and  C_3
REMARK    2  A    between atoms: C_5  and  N_6
REMARK    3  A    between atoms: C_13  and  C_14
REMARK    4  A    between atoms: N_21  and  C_22
REMARK    5  A    between atoms: C_22  and  C_23
REMARK    6  A    between atoms: N_27  and  C_28
REMARK                            x       y       z     vdW  Elec       q    Type
REMARK                         _______ _______ _______ _____ _____    ______ ____
ROOT
ATOM      1  C   UNL     1       4.232   6.137  17.454  0.00  0.00    +0.000 A 
ATOM      2  C   UNL     1       3.749   7.414  17.682  0.00  0.00    +0.000 A 
ATOM      3  C   UNL     1       2.622   7.338  18.528  0.00  0.00    +0.000 A 
ATOM      4  C   UNL     1       2.410   5.998  18.771  0.00  0.00    +0.000 A 
ATOM      5  N   UNL     1       3.396   5.268  18.132  0.00  0.00    +0.000 N 
ENDROOT
BRANCH   3   6
ATOM      6  N   UNL     1       1.860   8.380  19.035  0.00  0.00    +0.000 N 
ATOM      7  C   UNL     1       1.203   8.378  20.330  0.00  0.00    +0.000 C 
ATOM      8  C   UNL     1       0.646   9.762  20.440  0.00  0.00    +0.000 A 
ATOM      9  C   UNL     1       0.930  10.466  19.269  0.00  0.00    +0.000 A 
ATOM     10  C   UNL     1       0.544  11.774  19.063  0.00  0.00    +0.000 A 
ATOM     11  C   UNL     1      -0.160  12.403  20.083  0.00  0.00    +0.000 A 
ATOM     12  C   UNL     1      -0.447  11.716  21.278  0.00  0.00    +0.000 A 
ATOM     13  C   UNL     1      -0.043  10.378  21.479  0.00  0.00    +0.000 A 
ATOM     14  C   UNL     1       1.702   9.601  18.374  0.00  0.00    +0.000 C 
ATOM     15  O   UNL     1       2.086   9.982  17.282  0.00  0.00    +0.000 OA
BRANCH  13  16
ATOM     16  C   UNL     1      -0.345   9.688  22.781  0.00  0.00    +0.000 C 
ATOM     17  F   UNL     1       0.761   9.448  23.541  0.00  0.00    +0.000 F 
ATOM     18  F   UNL     1      -1.183  10.414  23.571  0.00  0.00    +0.000 F 
ATOM     19  F   UNL     1      -0.942   8.479  22.606  0.00  0.00    +0.000 F 
ENDBRANCH  13  16
ENDBRANCH   3   6
BRANCH   1  21
ATOM     20  C   UNL     1       5.345   5.746  15.371  0.00  0.00    +0.000 C 
ATOM     21  C   UNL     1       5.352   5.686  16.709  0.00  0.00    +0.000 C 
ENDBRANCH   1  21
BRANCH   5  22
ATOM     22  C   UNL     1       3.374   3.807  18.051  0.00  0.00    +0.000 C 
BRANCH  22  23
ATOM     23  C   UNL     1       3.719   3.146  19.339  0.00  0.00    +0.000 A 
ATOM     24  N   UNL     1       4.935   2.795  19.720  0.00  0.00    +0.000 NA
ATOM     25  N   UNL     1       4.833   2.065  20.879  0.00  0.00    +0.000 NA
ATOM     26  C   UNL     1       3.563   1.983  21.187  0.00  0.00    +0.000 A 
ATOM     27  N   UNL     1       2.828   2.671  20.271  0.00  0.00    +0.000 N 
ATOM     28  C   UNL     1       1.398   2.820  20.301  0.00  0.00    +0.000 C 
ENDBRANCH  22  23
ENDBRANCH   5  22
TORSDOF 5
ENDMDL
MODEL 8
REMARK VINA RESULT:      -8.2      1.716      3.716
REMARK  Name = 
REMARK  6 active torsions:
REMARK  status: ('A' for Active; 'I' for Inactive)
REMARK    1  A    between atoms: C_2  and  C_3
REMARK    2  A    between atoms: C_5  and  N_6
REMARK    3  A    between atoms: C_13  and  C_14
REMARK    4  A    between atoms: N_21  and  C_22
REMARK    5  A    between atoms: C_22  and  C_23
REMARK    6  A    between atoms: N_27  and  C_28
REMARK                            x       y       z     vdW  Elec       q    Type
REMARK                         _______ _______ _______ _____ _____    ______ ____
ROOT
ATOM      1  C   UNL     1       4.238   5.914  17.703  0.00  0.00    +0.000 A 
ATOM      2  C   UNL     1       3.619   7.152  17.724  0.00  0.00    +0.000 A 
ATOM      3  C   UNL     1       2.702   7.191  18.796  0.00  0.00    +0.000 A 
ATOM      4  C   UNL     1       2.747   5.949  19.391  0.00  0.00    +0.000 A 
ATOM      5  N   UNL     1       3.691   5.177  18.738  0.00  0.00    +0.000 N 
ENDROOT
BRANCH   3   6
ATOM      6  N   UNL     1       1.901   8.250  19.198  0.00  0.00    +0.000 N 
ATOM      7  C   UNL     1       1.232   8.345  20.485  0.00  0.00    +0.000 C 
ATOM      8  C   UNL     1       0.629   9.714  20.462  0.00  0.00    +0.000 A 
ATOM      9  C   UNL     1       0.902  10.316  19.234  0.00  0.00    +0.000 A 
ATOM     10  C   UNL     1       0.475  11.587  18.905  0.00  0.00    +0.000 A 
ATOM     11  C   UNL     1      -0.259  12.283  19.858  0.00  0.00    +0.000 A 
ATOM     12  C   UNL     1      -0.535  11.699  21.109  0.00  0.00    +0.000 A 
ATOM     13  C   UNL     1      -0.090  10.400  21.435  0.00  0.00    +0.000 A 
ATOM     14  C   UNL     1       1.710   9.399  18.428  0.00  0.00    +0.000 C 
ATOM     15  O   UNL     1       2.092   9.691  17.308  0.00  0.00    +0.000 OA
BRANCH  13  16
ATOM     16  C   UNL     1      -0.382   9.823  22.794  0.00  0.00    +0.000 C 
ATOM     17  F   UNL     1      -1.042   8.631  22.751  0.00  0.00    +0.000 F 
ATOM     18  F   UNL     1       0.750   9.591  23.514  0.00  0.00    +0.000 F 
ATOM     19  F   UNL     1      -1.153  10.644  23.555  0.00  0.00    +0.000 F 
ENDBRANCH  13  16
ENDBRANCH   3   6
BRANCH   1  21
ATOM     20  C   UNL     1       5.313   5.768  15.569  0.00  0.00    +0.000 C 
ATOM     21  C   UNL     1       5.249   5.395  16.854  0.00  0.00    +0.000 C 
ENDBRANCH   1  21
BRANCH   5  22
ATOM     22  C   UNL     1       3.877   3.752  19.013  0.00  0.00    +0.000 C 
BRANCH  22  23
ATOM     23  C   UNL     1       2.963   3.237  20.070  0.00  0.00    +0.000 A 
ATOM     24  N   UNL     1       3.284   3.049  21.337  0.00  0.00    +0.000 NA
ATOM     25  N   UNL     1       2.240   2.408  21.959  0.00  0.00    +0.000 NA
ATOM     26  C   UNL     1       1.302   2.218  21.065  0.00  0.00    +0.000 A 
ATOM     27  N   UNL     1       1.694   2.748  19.874  0.00  0.00    +0.000 N 
ATOM     28  C   UNL     1       0.909   2.747  18.670  0.00  0.00    +0.000 C 
ENDBRANCH  22  23
ENDBRANCH   5  22
TORSDOF 5
ENDMDL
MODEL 9
REMARK VINA RESULT:      -8.2      1.607      3.406
REMARK  Name = 
REMARK  6 active torsions:
REMARK  status: ('A' for Active; 'I' for Inactive)
REMARK    1  A    between atoms: C_2  and  C_3
REMARK    2  A    between atoms: C_5  and  N_6
REMARK    3  A    between atoms: C_13  and  C_14
REMARK    4  A    between atoms: N_21  and  C_22
REMARK    5  A    between atoms: C_22  and  C_23
REMARK    6  A    between atoms: N_27  and  C_28
REMARK                            x       y       z     vdW  Elec       q    Type
REMARK                         _______ _______ _______ _____ _____    ______ ____
ROOT
ATOM      1  C   UNL     1       4.501   6.244  17.316  0.00  0.00    +0.000 A 
ATOM      2  C   UNL     1       4.053   7.502  17.682  0.00  0.00    +0.000 A 
ATOM      3  C   UNL     1       2.793   7.380  18.304  0.00  0.00    +0.000 A 
ATOM      4  C   UNL     1       2.471   6.040  18.268  0.00  0.00    +0.000 A 
ATOM      5  N   UNL     1       3.514   5.347  17.682  0.00  0.00    +0.000 N 
ENDROOT
BRANCH   3   6
ATOM      6  N   UNL     1       2.008   8.384  18.853  0.00  0.00    +0.000 N 
ATOM      7  C   UNL     1       1.354   8.314  20.148  0.00  0.00    +0.000 C 
ATOM      8  C   UNL     1       0.767   9.679  20.314  0.00  0.00    +0.000 A 
ATOM      9  C   UNL     1       1.034  10.437  19.174  0.00  0.00    +0.000 A 
ATOM     10  C   UNL     1       0.619  11.744  19.021  0.00  0.00    +0.000 A 
ATOM     11  C   UNL     1      -0.097  12.315  20.067  0.00  0.00    +0.000 A 
ATOM     12  C   UNL     1      -0.367  11.573  21.233  0.00  0.00    +0.000 A 
ATOM     13  C   UNL     1       0.066  10.237  21.378  0.00  0.00    +0.000 A 
ATOM     14  C   UNL     1       1.823   9.626  18.243  0.00  0.00    +0.000 C 
ATOM     15  O   UNL     1       2.197  10.061  17.168  0.00  0.00    +0.000 OA
BRANCH  13  16
ATOM     16  C   UNL     1      -0.218   9.488  22.652  0.00  0.00    +0.000 C 
ATOM     17  F   UNL     1       0.904   9.152  23.350  0.00  0.00    +0.000 F 
ATOM     18  F   UNL     1      -0.988  10.206  23.515  0.00  0.00    +0.000 F 
ATOM     19  F   UNL     1      -0.881   8.321  22.434  0.00  0.00    +0.000 F 
ENDBRANCH  13  16
ENDBRANCH   3   6
BRANCH   1  21
ATOM     20  C   UNL     1       6.883   6.344  17.094  0.00  0.00    +0.000 C 
ATOM     21  C   UNL     1       5.710   5.832  16.698  0.00  0.00    +0.000 C 
ENDBRANCH   1  21
BRANCH   5  22
ATOM     22  C   UNL     1       3.430   3.927  17.342  0.00  0.00    +0.000 C 
BRANCH  22  23
ATOM     23  C   UNL     1       2.494   3.171  18.219  0.00  0.00    +0.000 A 
ATOM     24  N   UNL     1       1.200   3.016  18.006  0.00  0.00    +0.000 NA
ATOM     25  N   UNL     1       0.647   2.410  19.109  0.00  0.00    +0.000 NA
ATOM     26  C   UNL     1       1.610   2.204  19.972  0.00  0.00    +0.000 A 
ATOM     27  N   UNL     1       2.791   2.634  19.448  0.00  0.00    +0.000 N 
ATOM     28  C   UNL     1       4.067   2.547  20.105  0.00  0.00    +0.000 C 
ENDBRANCH  22  23
ENDBRANCH   5  22
TORSDOF 5
ENDMDL
