MODEL 1
REMARK VINA RESULT:      -8.4      0.000      0.000
REMARK  Name = 
REMARK  6 active torsions:
REMARK  status: ('A' for Active; 'I' for Inactive)
REMARK    1  A    between atoms: C_1  and  C_2
REMARK    2  A    between atoms: C_6  and  N_7
REMARK    3  A    between atoms: C_8  and  C_10
REMARK    4  A    between atoms: C_13  and  S_14
REMARK    5  A    between atoms: S_14  and  N_17
REMARK    6  A    between atoms: N_17  and  C_18
REMARK                            x       y       z     vdW  Elec       q    Type
REMARK                         _______ _______ _______ _____ _____    ______ ____
ROOT
ATOM      1  C   UNL     1       7.900   8.278  18.127  0.00  0.00    +0.000 A 
ATOM      2  C   UNL     1       8.293   7.126  18.821  0.00  0.00    +0.000 A 
ATOM      3  C   UNL     1       7.568   5.930  18.662  0.00  0.00    +0.000 A 
ATOM      4  C   UNL     1       6.445   5.897  17.822  0.00  0.00    +0.000 A 
ATOM      5  C   UNL     1       6.066   7.033  17.107  0.00  0.00    +0.000 A 
ATOM      6  C   UNL     1       6.788   8.214  17.267  0.00  0.00    +0.000 A 
ENDROOT
BRANCH   1   8
ATOM      7  N   UNL     1       9.406   9.796  19.356  0.00  0.00    +0.000 N 
ATOM      8  C   UNL     1       8.526   9.623  18.299  0.00  0.00    +0.000 C 
ATOM      9  O   UNL     1       8.211  10.471  17.470  0.00  0.00    +0.000 OA
ATOM     10  H   UNL     1       9.634   9.015  19.950  0.00  0.00    +0.000 HD
BRANCH   7  16
ATOM     11  C   UNL     1       9.622  13.905  21.832  0.00  0.00    +0.000 C 
ATOM     12  C   UNL     1      10.234  13.023  20.787  0.00  0.00    +0.000 A 
ATOM     13  C   UNL     1      11.379  13.391  20.100  0.00  0.00    +0.000 A 
ATOM     14  C   UNL     1      11.875  12.521  19.133  0.00  0.00    +0.000 A 
ATOM     15  C   UNL     1      11.212  11.317  18.881  0.00  0.00    +0.000 A 
ATOM     16  C   UNL     1      10.072  11.012  19.613  0.00  0.00    +0.000 A 
ATOM     17  N   UNL     1       9.600  11.855  20.550  0.00  0.00    +0.000 NA
ENDBRANCH   7  16
ENDBRANCH   1   8
BRANCH   4  18
ATOM     18  S   UNL     1       5.529   4.389  17.569  0.00  0.00    +0.000 S 
ATOM     19  O   UNL     1       5.922   3.830  16.295  0.00  0.00    +0.000 OA
ATOM     20  O   UNL     1       5.642   3.615  18.789  0.00  0.00    +0.000 OA
BRANCH  18  21
ATOM     21  N   UNL     1       3.936   4.883  17.485  0.00  0.00    +0.000 N 
ATOM     22  H   UNL     1       3.692   5.546  16.754  0.00  0.00    +0.000 HD
BRANCH  21  23
ATOM     23  C   UNL     1       2.925   4.318  18.292  0.00  0.00    +0.000 A 
ATOM     24  C   UNL     1       2.512   4.951  19.466  0.00  0.00    +0.000 A 
ATOM     25  C   UNL     1       1.447   4.423  20.200  0.00  0.00    +0.000 A 
ATOM     26  C   UNL     1       0.802   3.264  19.765  0.00  0.00    +0.000 A 
ATOM     27  C   UNL     1       1.220   2.632  18.594  0.00  0.00    +0.000 A 
ATOM     28  C   UNL     1       2.276   3.166  17.853  0.00  0.00    +0.000 A 
ENDBRANCH  21  23
ENDBRANCH  18  21
ENDBRANCH   4  18
TORSDOF 5
ENDMDL
MODEL 2
REMARK VINA RESULT:      -8.3      5.680      7.184
REMARK  Name = 
REMARK  6 active torsions:
REMARK  status: ('A' for Active; 'I' for Inactive)
REMARK    1  A    between atoms: C_1  and  C_2
REMARK    2  A    between atoms: C_6  and  N_7
REMARK    3  A    between atoms: C_8  and  C_10
REMARK    4  A    between atoms: C_13  and  S_14
REMARK    5  A    between atoms: S_14  and  N_17
REMARK    6  A    between atoms: N_17  and  C_18
REMARK                            x       y       z     vdW  Elec       q    Type
REMARK                         _______ _______ _______ _____ _____    ______ ____
ROOT
ATOM      1  C   UNL     1       2.573   7.922  18.459  0.00  0.00    +0.000 A 
ATOM      2  C   UNL     1       2.622   7.019  19.530  0.00  0.00    +0.000 A 
ATOM      3  C   UNL     1       3.444   5.880  19.449  0.00  0.00    +0.000 A 
ATOM      4  C   UNL     1       4.201   5.642  18.292  0.00  0.00    +0.000 A 
ATOM      5  C   UNL     1       4.177   6.551  17.235  0.00  0.00    +0.000 A 
ATOM      6  C   UNL     1       3.362   7.678  17.321  0.00  0.00    +0.000 A 
ENDROOT
BRANCH   1   8
ATOM      7  N   UNL     1       0.704   9.239  19.385  0.00  0.00    +0.000 N 
ATOM      8  C   UNL     1       1.660   9.103  18.391  0.00  0.00    +0.000 C 
ATOM      9  O   UNL     1       1.845   9.869  17.450  0.00  0.00    +0.000 OA
ATOM     10  H   UNL     1       0.671   8.576  20.142  0.00  0.00    +0.000 HD
BRANCH   7  16
ATOM     11  C   UNL     1      -3.260  11.346  17.681  0.00  0.00    +0.000 C 
ATOM     12  C   UNL     1      -2.124  11.388  18.657  0.00  0.00    +0.000 A 
ATOM     13  C   UNL     1      -1.965  12.437  19.547  0.00  0.00    +0.000 A 
ATOM     14  C   UNL     1      -0.873  12.407  20.411  0.00  0.00    +0.000 A 
ATOM     15  C   UNL     1       0.023  11.336  20.355  0.00  0.00    +0.000 A 
ATOM     16  C   UNL     1      -0.203  10.318  19.439  0.00  0.00    +0.000 A 
ATOM     17  N   UNL     1      -1.263  10.350  18.610  0.00  0.00    +0.000 NA
ENDBRANCH   7  16
ENDBRANCH   1   8
BRANCH   4  18
ATOM     18  S   UNL     1       5.281   4.229  18.173  0.00  0.00    +0.000 S 
ATOM     19  O   UNL     1       5.936   4.268  16.885  0.00  0.00    +0.000 OA
ATOM     20  O   UNL     1       6.053   4.182  19.399  0.00  0.00    +0.000 OA
BRANCH  18  21
ATOM     21  N   UNL     1       4.251   2.916  18.228  0.00  0.00    +0.000 N 
ATOM     22  H   UNL     1       4.463   2.132  17.618  0.00  0.00    +0.000 HD
BRANCH  21  23
ATOM     23  C   UNL     1       3.204   2.814  19.170  0.00  0.00    +0.000 A 
ATOM     24  C   UNL     1       3.481   2.663  20.530  0.00  0.00    +0.000 A 
ATOM     25  C   UNL     1       2.432   2.657  21.454  0.00  0.00    +0.000 A 
ATOM     26  C   UNL     1       1.113   2.796  21.018  0.00  0.00    +0.000 A 
ATOM     27  C   UNL     1       0.841   2.943  19.658  0.00  0.00    +0.000 A 
ATOM     28  C   UNL     1       1.888   2.962  18.736  0.00  0.00    +0.000 A 
ENDBRANCH  21  23
ENDBRANCH  18  21
ENDBRANCH   4  18
TORSDOF 5
ENDMDL
MODEL 3
REMARK VINA RESULT:      -8.2      5.658      6.858
REMARK  Name = 
REMARK  6 active torsions:
REMARK  status: ('A' for Active; 'I' for Inactive)
REMARK    1  A    between atoms: C_1  and  C_2
REMARK    2  A    between atoms: C_6  and  N_7
REMARK    3  A    between atoms: C_8  and  C_10
REMARK    4  A    between atoms: C_13  and  S_14
REMARK    5  A    between atoms: S_14  and  N_17
REMARK    6  A    between atoms: N_17  and  C_18
REMARK                            x       y       z     vdW  Elec       q    Type
REMARK                         _______ _______ _______ _____ _____    ______ ____
ROOT
ATOM      1  C   UNL     1       2.582   7.927  18.507  0.00  0.00    +0.000 A 
ATOM      2  C   UNL     1       2.619   7.001  19.558  0.00  0.00    +0.000 A 
ATOM      3  C   UNL     1       3.432   5.857  19.456  0.00  0.00    +0.000 A 
ATOM      4  C   UNL     1       4.190   5.636  18.296  0.00  0.00    +0.000 A 
ATOM      5  C   UNL     1       4.178   6.568  17.258  0.00  0.00    +0.000 A 
ATOM      6  C   UNL     1       3.373   7.700  17.366  0.00  0.00    +0.000 A 
ENDROOT
BRANCH   1   8
ATOM      7  N   UNL     1       0.830   9.325  19.536  0.00  0.00    +0.000 N 
ATOM      8  C   UNL     1       1.680   9.117  18.461  0.00  0.00    +0.000 C 
ATOM      9  O   UNL     1       1.779   9.826  17.463  0.00  0.00    +0.000 OA
ATOM     10  H   UNL     1       0.866   8.707  20.330  0.00  0.00    +0.000 HD
BRANCH   7  16
ATOM     11  C   UNL     1      -0.282  13.557  21.516  0.00  0.00    +0.000 C 
ATOM     12  C   UNL     1      -0.647  12.481  20.538  0.00  0.00    +0.000 A 
ATOM     13  C   UNL     1      -1.798  12.552  19.771  0.00  0.00    +0.000 A 
ATOM     14  C   UNL     1      -2.072  11.504  18.897  0.00  0.00    +0.000 A 
ATOM     15  C   UNL     1      -1.193  10.420  18.820  0.00  0.00    +0.000 A 
ATOM     16  C   UNL     1      -0.055  10.420  19.616  0.00  0.00    +0.000 A 
ATOM     17  N   UNL     1       0.207  11.439  20.456  0.00  0.00    +0.000 NA
ENDBRANCH   7  16
ENDBRANCH   1   8
BRANCH   4  18
ATOM     18  S   UNL     1       5.258   4.217  18.151  0.00  0.00    +0.000 S 
ATOM     19  O   UNL     1       5.892   4.260  16.852  0.00  0.00    +0.000 OA
ATOM     20  O   UNL     1       6.050   4.156  19.364  0.00  0.00    +0.000 OA
BRANCH  18  21
ATOM     21  N   UNL     1       4.220   2.911  18.214  0.00  0.00    +0.000 N 
ATOM     22  H   UNL     1       4.418   2.128  17.596  0.00  0.00    +0.000 HD
BRANCH  21  23
ATOM     23  C   UNL     1       3.186   2.811  19.170  0.00  0.00    +0.000 A 
ATOM     24  C   UNL     1       3.481   2.662  20.526  0.00  0.00    +0.000 A 
ATOM     25  C   UNL     1       2.445   2.658  21.464  0.00  0.00    +0.000 A 
ATOM     26  C   UNL     1       1.121   2.798  21.045  0.00  0.00    +0.000 A 
ATOM     27  C   UNL     1       0.830   2.943  19.690  0.00  0.00    +0.000 A 
ATOM     28  C   UNL     1       1.865   2.959  18.753  0.00  0.00    +0.000 A 
ENDBRANCH  21  23
ENDBRANCH  18  21
ENDBRANCH   4  18
TORSDOF 5
ENDMDL
MODEL 4
REMARK VINA RESULT:      -8.1      5.572      6.806
REMARK  Name = 
REMARK  6 active torsions:
REMARK  status: ('A' for Active; 'I' for Inactive)
REMARK    1  A    between atoms: C_1  and  C_2
REMARK    2  A    between atoms: C_6  and  N_7
REMARK    3  A    between atoms: C_8  and  C_10
REMARK    4  A    between atoms: C_13  and  S_14
REMARK    5  A    between atoms: S_14  and  N_17
REMARK    6  A    between atoms: N_17  and  C_18
REMARK                            x       y       z     vdW  Elec       q    Type
REMARK                         _______ _______ _______ _____ _____    ______ ____
ROOT
ATOM      1  C   UNL     1       2.408   7.742  19.075  0.00  0.00    +0.000 A 
ATOM      2  C   UNL     1       3.011   7.801  17.812  0.00  0.00    +0.000 A 
ATOM      3  C   UNL     1       3.959   6.829  17.440  0.00  0.00    +0.000 A 
ATOM      4  C   UNL     1       4.310   5.812  18.341  0.00  0.00    +0.000 A 
ATOM      5  C   UNL     1       3.694   5.732  19.589  0.00  0.00    +0.000 A 
ATOM      6  C   UNL     1       2.755   6.696  19.951  0.00  0.00    +0.000 A 
ENDROOT
BRANCH   1   8
ATOM      7  N   UNL     1       1.402   8.929  20.989  0.00  0.00    +0.000 N 
ATOM      8  C   UNL     1       1.473   8.774  19.614  0.00  0.00    +0.000 C 
ATOM      9  O   UNL     1       0.843   9.415  18.777  0.00  0.00    +0.000 OA
ATOM     10  H   UNL     1       2.003   8.383  21.585  0.00  0.00    +0.000 HD
BRANCH   7  16
ATOM     11  C   UNL     1       0.009  13.504  21.416  0.00  0.00    +0.000 C 
ATOM     12  C   UNL     1      -0.153  12.084  21.866  0.00  0.00    +0.000 A 
ATOM     13  C   UNL     1      -1.056  11.730  22.855  0.00  0.00    +0.000 A 
ATOM     14  C   UNL     1      -1.134  10.391  23.226  0.00  0.00    +0.000 A 
ATOM     15  C   UNL     1      -0.308   9.451  22.603  0.00  0.00    +0.000 A 
ATOM     16  C   UNL     1       0.570   9.879  21.616  0.00  0.00    +0.000 A 
ATOM     17  N   UNL     1       0.637  11.175  21.258  0.00  0.00    +0.000 NA
ENDBRANCH   7  16
ENDBRANCH   1   8
BRANCH   4  18
ATOM     18  S   UNL     1       5.478   4.545  17.888  0.00  0.00    +0.000 S 
ATOM     19  O   UNL     1       6.203   4.995  16.720  0.00  0.00    +0.000 OA
ATOM     20  O   UNL     1       6.180   4.163  19.098  0.00  0.00    +0.000 OA
BRANCH  18  21
ATOM     21  N   UNL     1       4.527   3.235  17.476  0.00  0.00    +0.000 N 
ATOM     22  H   UNL     1       4.924   2.557  16.831  0.00  0.00    +0.000 HD
BRANCH  21  23
ATOM     23  C   UNL     1       3.279   2.984  18.086  0.00  0.00    +0.000 A 
ATOM     24  C   UNL     1       3.203   2.296  19.298  0.00  0.00    +0.000 A 
ATOM     25  C   UNL     1       1.967   2.140  19.929  0.00  0.00    +0.000 A 
ATOM     26  C   UNL     1       0.812   2.665  19.348  0.00  0.00    +0.000 A 
ATOM     27  C   UNL     1       0.891   3.348  18.135  0.00  0.00    +0.000 A 
ATOM     28  C   UNL     1       2.127   3.516  17.509  0.00  0.00    +0.000 A 
ENDBRANCH  21  23
ENDBRANCH  18  21
ENDBRANCH   4  18
TORSDOF 5
ENDMDL
MODEL 5
REMARK VINA RESULT:      -8.1      4.719      7.251
REMARK  Name = 
REMARK  6 active torsions:
REMARK  status: ('A' for Active; 'I' for Inactive)
REMARK    1  A    between atoms: C_1  and  C_2
REMARK    2  A    between atoms: C_6  and  N_7
REMARK    3  A    between atoms: C_8  and  C_10
REMARK    4  A    between atoms: C_13  and  S_14
REMARK    5  A    between atoms: S_14  and  N_17
REMARK    6  A    between atoms: N_17  and  C_18
REMARK                            x       y       z     vdW  Elec       q    Type
REMARK                         _______ _______ _______ _____ _____    ______ ____
ROOT
ATOM      1  C   UNL     1       2.033   7.418  19.599  0.00  0.00    +0.000 A 
ATOM      2  C   UNL     1       2.002   6.437  20.599  0.00  0.00    +0.000 A 
ATOM      3  C   UNL     1       2.508   5.151  20.335  0.00  0.00    +0.000 A 
ATOM      4  C   UNL     1       3.028   4.848  19.067  0.00  0.00    +0.000 A 
ATOM      5  C   UNL     1       3.086   5.828  18.077  0.00  0.00    +0.000 A 
ATOM      6  C   UNL     1       2.586   7.101  18.345  0.00  0.00    +0.000 A 
ENDROOT
BRANCH   1   8
ATOM      7  N   UNL     1       1.289   9.539  18.582  0.00  0.00    +0.000 N 
ATOM      8  C   UNL     1       1.431   8.779  19.733  0.00  0.00    +0.000 C 
ATOM      9  O   UNL     1       1.099   9.108  20.868  0.00  0.00    +0.000 OA
ATOM     10  H   UNL     1       1.549   9.150  17.691  0.00  0.00    +0.000 HD
BRANCH   7  16
ATOM     11  C   UNL     1       1.924  14.295  18.776  0.00  0.00    +0.000 C 
ATOM     12  C   UNL     1       0.965  13.149  18.662  0.00  0.00    +0.000 A 
ATOM     13  C   UNL     1      -0.403  13.348  18.576  0.00  0.00    +0.000 A 
ATOM     14  C   UNL     1      -1.227  12.229  18.488  0.00  0.00    +0.000 A 
ATOM     15  C   UNL     1      -0.660  10.951  18.492  0.00  0.00    +0.000 A 
ATOM     16  C   UNL     1       0.721  10.830  18.578  0.00  0.00    +0.000 A 
ATOM     17  N   UNL     1       1.512  11.915  18.657  0.00  0.00    +0.000 NA
ENDBRANCH   7  16
ENDBRANCH   1   8
BRANCH   4  18
ATOM     18  S   UNL     1       3.711   3.240  18.712  0.00  0.00    +0.000 S 
ATOM     19  O   UNL     1       3.199   2.306  19.690  0.00  0.00    +0.000 OA
ATOM     20  O   UNL     1       3.529   3.007  17.293  0.00  0.00    +0.000 OA
BRANCH  18  21
ATOM     21  N   UNL     1       5.354   3.431  18.939  0.00  0.00    +0.000 N 
ATOM     22  H   UNL     1       5.834   2.721  19.487  0.00  0.00    +0.000 HD
BRANCH  21  23
ATOM     23  C   UNL     1       6.095   4.446  18.296  0.00  0.00    +0.000 A 
ATOM     24  C   UNL     1       6.168   4.502  16.903  0.00  0.00    +0.000 A 
ATOM     25  C   UNL     1       6.829   5.568  16.286  0.00  0.00    +0.000 A 
ATOM     26  C   UNL     1       7.418   6.569  17.060  0.00  0.00    +0.000 A 
ATOM     27  C   UNL     1       7.346   6.507  18.451  0.00  0.00    +0.000 A 
ATOM     28  C   UNL     1       6.675   5.450  19.068  0.00  0.00    +0.000 A 
ENDBRANCH  21  23
ENDBRANCH  18  21
ENDBRANCH   4  18
TORSDOF 5
ENDMDL
MODEL 6
REMARK VINA RESULT:      -8.1      4.767      7.166
REMARK  Name = 
REMARK  6 active torsions:
REMARK  status: ('A' for Active; 'I' for Inactive)
REMARK    1  A    between atoms: C_1  and  C_2
REMARK    2  A    between atoms: C_6  and  N_7
REMARK    3  A    between atoms: C_8  and  C_10
REMARK    4  A    between atoms: C_13  and  S_14
REMARK    5  A    between atoms: S_14  and  N_17
REMARK    6  A    between atoms: N_17  and  C_18
REMARK                            x       y       z     vdW  Elec       q    Type
REMARK                         _______ _______ _______ _____ _____    ______ ____
ROOT
ATOM      1  C   UNL     1       2.304   7.590  18.725  0.00  0.00    +0.000 A 
ATOM      2  C   UNL     1       2.282   6.971  19.982  0.00  0.00    +0.000 A 
ATOM      3  C   UNL     1       2.723   5.642  20.117  0.00  0.00    +0.000 A 
ATOM      4  C   UNL     1       3.170   4.933  18.992  0.00  0.00    +0.000 A 
ATOM      5  C   UNL     1       3.220   5.552  17.743  0.00  0.00    +0.000 A 
ATOM      6  C   UNL     1       2.784   6.869  17.616  0.00  0.00    +0.000 A 
ENDROOT
BRANCH   1   8
ATOM      7  N   UNL     1       0.972   9.547  19.416  0.00  0.00    +0.000 N 
ATOM      8  C   UNL     1       1.764   8.954  18.445  0.00  0.00    +0.000 C 
ATOM      9  O   UNL     1       2.081   9.445  17.366  0.00  0.00    +0.000 OA
ATOM     10  H   UNL     1       0.815   9.075  20.291  0.00  0.00    +0.000 HD
BRANCH   7  16
ATOM     11  C   UNL     1       1.486  14.299  19.879  0.00  0.00    +0.000 C 
ATOM     12  C   UNL     1       0.608  13.154  19.474  0.00  0.00    +0.000 A 
ATOM     13  C   UNL     1      -0.680  13.352  19.005  0.00  0.00    +0.000 A 
ATOM     14  C   UNL     1      -1.435  12.233  18.664  0.00  0.00    +0.000 A 
ATOM     15  C   UNL     1      -0.882  10.957  18.804  0.00  0.00    +0.000 A 
ATOM     16  C   UNL     1       0.418  10.837  19.276  0.00  0.00    +0.000 A 
ATOM     17  N   UNL     1       1.144  11.922  19.600  0.00  0.00    +0.000 NA
ENDBRANCH   7  16
ENDBRANCH   1   8
BRANCH   4  18
ATOM     18  S   UNL     1       3.771   3.261  19.135  0.00  0.00    +0.000 S 
ATOM     19  O   UNL     1       3.362   2.744  20.422  0.00  0.00    +0.000 OA
ATOM     20  O   UNL     1       3.414   2.576  17.909  0.00  0.00    +0.000 OA
BRANCH  18  21
ATOM     21  N   UNL     1       5.434   3.417  19.107  0.00  0.00    +0.000 N 
ATOM     22  H   UNL     1       5.978   2.666  19.523  0.00  0.00    +0.000 HD
BRANCH  21  23
ATOM     23  C   UNL     1       6.084   4.465  18.421  0.00  0.00    +0.000 A 
ATOM     24  C   UNL     1       6.691   5.508  19.123  0.00  0.00    +0.000 A 
ATOM     25  C   UNL     1       7.408   6.486  18.428  0.00  0.00    +0.000 A 
ATOM     26  C   UNL     1       7.513   6.422  17.038  0.00  0.00    +0.000 A 
ATOM     27  C   UNL     1       6.901   5.381  16.340  0.00  0.00    +0.000 A 
ATOM     28  C   UNL     1       6.196   4.397  17.034  0.00  0.00    +0.000 A 
ENDBRANCH  21  23
ENDBRANCH  18  21
ENDBRANCH   4  18
TORSDOF 5
ENDMDL
MODEL 7
REMARK VINA RESULT:      -8.1      5.553      7.071
REMARK  Name = 
REMARK  6 active torsions:
REMARK  status: ('A' for Active; 'I' for Inactive)
REMARK    1  A    between atoms: C_1  and  C_2
REMARK    2  A    between atoms: C_6  and  N_7
REMARK    3  A    between atoms: C_8  and  C_10
REMARK    4  A    between atoms: C_13  and  S_14
REMARK    5  A    between atoms: S_14  and  N_17
REMARK    6  A    between atoms: N_17  and  C_18
REMARK                            x       y       z     vdW  Elec       q    Type
REMARK                         _______ _______ _______ _____ _____    ______ ____
ROOT
ATOM      1  C   UNL     1       2.413   7.789  18.719  0.00  0.00    +0.000 A 
ATOM      2  C   UNL     1       3.160   7.820  17.533  0.00  0.00    +0.000 A 
ATOM      3  C   UNL     1       4.167   6.862  17.313  0.00  0.00    +0.000 A 
ATOM      4  C   UNL     1       4.432   5.887  18.287  0.00  0.00    +0.000 A 
ATOM      5  C   UNL     1       3.674   5.835  19.456  0.00  0.00    +0.000 A 
ATOM      6  C   UNL     1       2.677   6.785  19.668  0.00  0.00    +0.000 A 
ENDROOT
BRANCH   1   8
ATOM      7  N   UNL     1       0.869   9.610  18.100  0.00  0.00    +0.000 N 
ATOM      8  C   UNL     1       1.398   8.815  19.104  0.00  0.00    +0.000 C 
ATOM      9  O   UNL     1       1.107   8.859  20.296  0.00  0.00    +0.000 OA
ATOM     10  H   UNL     1       1.142   9.456  17.143  0.00  0.00    +0.000 HD
BRANCH   7  16
ATOM     11  C   UNL     1      -0.159  14.155  19.261  0.00  0.00    +0.000 C 
ATOM     12  C   UNL     1      -0.670  12.797  18.890  0.00  0.00    +0.000 A 
ATOM     13  C   UNL     1      -2.026  12.526  18.802  0.00  0.00    +0.000 A 
ATOM     14  C   UNL     1      -2.418  11.233  18.467  0.00  0.00    +0.000 A 
ATOM     15  C   UNL     1      -1.448  10.254  18.233  0.00  0.00    +0.000 A 
ATOM     16  C   UNL     1      -0.107  10.600  18.335  0.00  0.00    +0.000 A 
ATOM     17  N   UNL     1       0.266  11.853  18.656  0.00  0.00    +0.000 NA
ENDBRANCH   7  16
ENDBRANCH   1   8
BRANCH   4  18
ATOM     18  S   UNL     1       5.674   4.636  18.023  0.00  0.00    +0.000 S 
ATOM     19  O   UNL     1       6.534   5.075  16.947  0.00  0.00    +0.000 OA
ATOM     20  O   UNL     1       6.220   4.300  19.323  0.00  0.00    +0.000 OA
BRANCH  18  21
ATOM     21  N   UNL     1       4.810   3.296  17.527  0.00  0.00    +0.000 N 
ATOM     22  H   UNL     1       5.290   2.629  16.928  0.00  0.00    +0.000 HD
BRANCH  21  23
ATOM     23  C   UNL     1       3.517   3.005  18.014  0.00  0.00    +0.000 A 
ATOM     24  C   UNL     1       3.346   2.249  19.174  0.00  0.00    +0.000 A 
ATOM     25  C   UNL     1       2.061   2.051  19.688  0.00  0.00    +0.000 A 
ATOM     26  C   UNL     1       0.955   2.605  19.042  0.00  0.00    +0.000 A 
ATOM     27  C   UNL     1       1.130   3.356  17.881  0.00  0.00    +0.000 A 
ATOM     28  C   UNL     1       2.414   3.564  17.373  0.00  0.00    +0.000 A 
ENDBRANCH  21  23
ENDBRANCH  18  21
ENDBRANCH   4  18
TORSDOF 5
ENDMDL
MODEL 8
REMARK VINA RESULT:      -8.1      1.501      1.794
REMARK  Name = 
REMARK  6 active torsions:
REMARK  status: ('A' for Active; 'I' for Inactive)
REMARK    1  A    between atoms: C_1  and  C_2
REMARK    2  A    between atoms: C_6  and  N_7
REMARK    3  A    between atoms: C_8  and  C_10
REMARK    4  A    between atoms: C_13  and  S_14
REMARK    5  A    between atoms: S_14  and  N_17
REMARK    6  A    between atoms: N_17  and  C_18
REMARK                            x       y       z     vdW  Elec       q    Type
REMARK                         _______ _______ _______ _____ _____    ______ ____
ROOT
ATOM      1  C   UNL     1       8.256   8.379  18.433  0.00  0.00    +0.000 A 
ATOM      2  C   UNL     1       8.488   7.188  19.133  0.00  0.00    +0.000 A 
ATOM      3  C   UNL     1       7.702   6.052  18.865  0.00  0.00    +0.000 A 
ATOM      4  C   UNL     1       6.677   6.118  17.908  0.00  0.00    +0.000 A 
ATOM      5  C   UNL     1       6.459   7.293  17.189  0.00  0.00    +0.000 A 
ATOM      6  C   UNL     1       7.242   8.414  17.458  0.00  0.00    +0.000 A 
ENDROOT
BRANCH   1   8
ATOM      7  N   UNL     1       9.226  10.501  17.632  0.00  0.00    +0.000 N 
ATOM      8  C   UNL     1       8.954   9.671  18.708  0.00  0.00    +0.000 C 
ATOM      9  O   UNL     1       9.224   9.893  19.885  0.00  0.00    +0.000 OA
ATOM     10  H   UNL     1       8.915  10.243  16.710  0.00  0.00    +0.000 HD
BRANCH   7  16
ATOM     11  C   UNL     1       8.849  15.267  18.089  0.00  0.00    +0.000 C 
ATOM     12  C   UNL     1       9.747  14.071  17.994  0.00  0.00    +0.000 A 
ATOM     13  C   UNL     1      11.127  14.191  18.019  0.00  0.00    +0.000 A 
ATOM     14  C   UNL     1      11.890  13.031  17.912  0.00  0.00    +0.000 A 
ATOM     15  C   UNL     1      11.253  11.794  17.779  0.00  0.00    +0.000 A 
ATOM     16  C   UNL     1       9.865  11.751  17.766  0.00  0.00    +0.000 A 
ATOM     17  N   UNL     1       9.133  12.875  17.876  0.00  0.00    +0.000 NA
ENDBRANCH   7  16
ENDBRANCH   1   8
BRANCH   4  18
ATOM     18  S   UNL     1       5.689   4.687  17.518  0.00  0.00    +0.000 S 
ATOM     19  O   UNL     1       6.127   4.171  16.240  0.00  0.00    +0.000 OA
ATOM     20  O   UNL     1       5.678   3.845  18.697  0.00  0.00    +0.000 OA
BRANCH  18  21
ATOM     21  N   UNL     1       4.137   5.286  17.367  0.00  0.00    +0.000 N 
ATOM     22  H   UNL     1       3.973   5.977  16.640  0.00  0.00    +0.000 HD
BRANCH  21  23
ATOM     23  C   UNL     1       3.052   4.774  18.111  0.00  0.00    +0.000 A 
ATOM     24  C   UNL     1       2.362   3.641  17.677  0.00  0.00    +0.000 A 
ATOM     25  C   UNL     1       1.352   3.097  18.475  0.00  0.00    +0.000 A 
ATOM     26  C   UNL     1       1.032   3.687  19.699  0.00  0.00    +0.000 A 
ATOM     27  C   UNL     1       1.721   4.821  20.127  0.00  0.00    +0.000 A 
ATOM     28  C   UNL     1       2.738   5.358  19.337  0.00  0.00    +0.000 A 
ENDBRANCH  21  23
ENDBRANCH  18  21
ENDBRANCH   4  18
TORSDOF 5
ENDMDL
MODEL 9
REMARK VINA RESULT:      -8.1      5.623      7.052
REMARK  Name = 
REMARK  6 active torsions:
REMARK  status: ('A' for Active; 'I' for Inactive)
REMARK    1  A    between atoms: C_1  and  C_2
REMARK    2  A    between atoms: C_6  and  N_7
REMARK    3  A    between atoms: C_8  and  C_10
REMARK    4  A    between atoms: C_13  and  S_14
REMARK    5  A    between atoms: S_14  and  N_17
REMARK    6  A    between atoms: N_17  and  C_18
REMARK                            x       y       z     vdW  Elec       q    Type
REMARK                         _______ _______ _______ _____ _____    ______ ____
ROOT
ATOM      1  C   UNL     1       2.685   7.909  18.130  0.00  0.00    +0.000 A 
ATOM      2  C   UNL     1       3.464   7.620  17.001  0.00  0.00    +0.000 A 
ATOM      3  C   UNL     1       4.346   6.524  17.021  0.00  0.00    +0.000 A 
ATOM      4  C   UNL     1       4.457   5.733  18.175  0.00  0.00    +0.000 A 
ATOM      5  C   UNL     1       3.665   6.000  19.291  0.00  0.00    +0.000 A 
ATOM      6  C   UNL     1       2.791   7.085  19.265  0.00  0.00    +0.000 A 
ENDROOT
BRANCH   1   8
ATOM      7  N   UNL     1       0.883   9.120  19.301  0.00  0.00    +0.000 N 
ATOM      8  C   UNL     1       1.797   9.104  18.259  0.00  0.00    +0.000 C 
ATOM      9  O   UNL     1       1.963   9.987  17.424  0.00  0.00    +0.000 OA
ATOM     10  H   UNL     1       0.864   8.361  19.962  0.00  0.00    +0.000 HD
BRANCH   7  16
ATOM     11  C   UNL     1      -3.137  11.462  18.109  0.00  0.00    +0.000 C 
ATOM     12  C   UNL     1      -1.941  11.375  19.008  0.00  0.00    +0.000 A 
ATOM     13  C   UNL     1      -1.705  12.311  20.001  0.00  0.00    +0.000 A 
ATOM     14  C   UNL     1      -0.563  12.167  20.784  0.00  0.00    +0.000 A 
ATOM     15  C   UNL     1       0.307  11.099  20.548  0.00  0.00    +0.000 A 
ATOM     16  C   UNL     1       0.003  10.197  19.536  0.00  0.00    +0.000 A 
ATOM     17  N   UNL     1      -1.106  10.339  18.787  0.00  0.00    +0.000 NA
ENDBRANCH   7  16
ENDBRANCH   1   8
BRANCH   4  18
ATOM     18  S   UNL     1       5.537   4.316  18.219  0.00  0.00    +0.000 S 
ATOM     19  O   UNL     1       6.466   4.421  17.116  0.00  0.00    +0.000 OA
ATOM     20  O   UNL     1       6.012   4.187  19.582  0.00  0.00    +0.000 OA
BRANCH  18  21
ATOM     21  N   UNL     1       4.521   3.015  17.962  0.00  0.00    +0.000 N 
ATOM     22  H   UNL     1       4.864   2.268  17.363  0.00  0.00    +0.000 HD
BRANCH  21  23
ATOM     23  C   UNL     1       3.293   2.867  18.642  0.00  0.00    +0.000 A 
ATOM     24  C   UNL     1       3.263   2.658  20.021  0.00  0.00    +0.000 A 
ATOM     25  C   UNL     1       2.036   2.607  20.688  0.00  0.00    +0.000 A 
ATOM     26  C   UNL     1       0.845   2.760  19.975  0.00  0.00    +0.000 A 
ATOM     27  C   UNL     1       0.879   2.964  18.597  0.00  0.00    +0.000 A 
ATOM     28  C   UNL     1       2.105   3.028  17.932  0.00  0.00    +0.000 A 
ENDBRANCH  21  23
ENDBRANCH  18  21
ENDBRANCH   4  18
TORSDOF 5
ENDMDL
