MODEL 1
REMARK VINA RESULT:      -7.3      0.000      0.000
REMARK  Name = 
REMARK  4 active torsions:
REMARK  status: ('A' for Active; 'I' for Inactive)
REMARK    1  A    between atoms: C_1  and  C_2
REMARK    2  A    between atoms: C_4  and  C_5
REMARK    3  A    between atoms: C_11  and  C_12
REMARK    4  A    between atoms: C_19  and  C_20
REMARK                            x       y       z     vdW  Elec       q    Type
REMARK                         _______ _______ _______ _____ _____    ______ ____
ROOT
ATOM      1  C   UNL     1       1.139  11.470  18.991  0.00  0.00    +0.000 C 
ATOM      2  O   UNL     1       2.135  12.147  18.742  0.00  0.00    +0.000 OA
ATOM      3  N   UNL     1      -0.131  12.071  19.098  0.00  0.00    +0.000 N 
ATOM      4  C   UNL     1      -0.206  13.532  18.893  0.00  0.00    +0.000 C 
ATOM      5  C   UNL     1      -0.481  14.296  20.184  0.00  0.00    +0.000 C 
ATOM      6  C   UNL     1      -1.679  13.721  20.930  0.00  0.00    +0.000 C 
ATOM      7  C   UNL     1      -1.514  12.211  21.121  0.00  0.00    +0.000 C 
ATOM      8  C   UNL     1      -1.297  11.478  19.774  0.00  0.00    +0.000 C 
ENDROOT
BRANCH   8   9
ATOM      9  C   UNL     1      -2.563  11.513  18.942  0.00  0.00    +0.000 A 
ATOM     10  N   UNL     1      -3.673  12.104  19.357  0.00  0.00    +0.000 NA
ATOM     11  N   UNL     1      -4.599  12.085  18.353  0.00  0.00    +0.000 NA
ATOM     12  C   UNL     1      -4.068  11.448  17.339  0.00  0.00    +0.000 A 
ATOM     13  N   UNL     1      -2.815  11.000  17.691  0.00  0.00    +0.000 N 
ATOM     14  C   UNL     1      -2.052  10.108  16.842  0.00  0.00    +0.000 C 
ATOM     15  C   UNL     1      -2.454  10.219  15.368  0.00  0.00    +0.000 C 
ATOM     16  C   UNL     1      -3.972  10.133  15.219  0.00  0.00    +0.000 C 
ATOM     17  C   UNL     1      -4.652  11.267  15.983  0.00  0.00    +0.000 C 
ENDBRANCH   8   9
BRANCH   1  24
ATOM     18  C   UNL     1       1.056   9.974  21.619  0.00  0.00    +0.000 C 
ATOM     19  C   UNL     1       1.359   9.313  20.304  0.00  0.00    +0.000 A 
ATOM     20  N   UNL     1       1.696   7.993  20.421  0.00  0.00    +0.000 NA
ATOM     21  C   UNL     1       2.051   7.290  19.314  0.00  0.00    +0.000 A 
ATOM     22  C   UNL     1       2.035   7.884  18.056  0.00  0.00    +0.000 A 
ATOM     23  C   UNL     1       1.701   9.236  17.944  0.00  0.00    +0.000 A 
ATOM     24  C   UNL     1       1.343   9.986  19.070  0.00  0.00    +0.000 A 
BRANCH  21  25
ATOM     25  C   UNL     1       2.520   5.846  19.454  0.00  0.00    +0.000 C 
ATOM     26  F   UNL     1       2.408   5.101  18.319  0.00  0.00    +0.000 F 
ATOM     27  F   UNL     1       3.827   5.756  19.834  0.00  0.00    +0.000 F 
ATOM     28  F   UNL     1       1.817   5.168  20.410  0.00  0.00    +0.000 F 
ENDBRANCH  21  25
ENDBRANCH   1  24
TORSDOF 3
ENDMDL
MODEL 2
REMARK VINA RESULT:      -7.3      4.625      9.140
REMARK  Name = 
REMARK  4 active torsions:
REMARK  status: ('A' for Active; 'I' for Inactive)
REMARK    1  A    between atoms: C_1  and  C_2
REMARK    2  A    between atoms: C_4  and  C_5
REMARK    3  A    between atoms: C_11  and  C_12
REMARK    4  A    between atoms: C_19  and  C_20
REMARK                            x       y       z     vdW  Elec       q    Type
REMARK                         _______ _______ _______ _____ _____    ______ ____
ROOT
ATOM      1  C   UNL     1       2.014   5.025  18.060  0.00  0.00    +0.000 C 
ATOM      2  O   UNL     1       0.979   4.536  17.607  0.00  0.00    +0.000 OA
ATOM      3  N   UNL     1       3.219   4.295  18.050  0.00  0.00    +0.000 N 
ATOM      4  C   UNL     1       3.181   2.936  17.472  0.00  0.00    +0.000 C 
ATOM      5  C   UNL     1       3.312   1.842  18.525  0.00  0.00    +0.000 C 
ATOM      6  C   UNL     1       4.509   2.085  19.437  0.00  0.00    +0.000 C 
ATOM      7  C   UNL     1       4.462   3.503  20.012  0.00  0.00    +0.000 C 
ATOM      8  C   UNL     1       4.390   4.577  18.898  0.00  0.00    +0.000 C 
ENDROOT
BRANCH   8   9
ATOM      9  C   UNL     1       5.694   4.633  18.131  0.00  0.00    +0.000 A 
ATOM     10  N   UNL     1       6.873   4.479  18.715  0.00  0.00    +0.000 NA
ATOM     11  N   UNL     1       7.851   4.454  17.762  0.00  0.00    +0.000 NA
ATOM     12  C   UNL     1       7.274   4.631  16.599  0.00  0.00    +0.000 A 
ATOM     13  N   UNL     1       5.924   4.829  16.789  0.00  0.00    +0.000 N 
ATOM     14  C   UNL     1       5.049   5.230  15.707  0.00  0.00    +0.000 C 
ATOM     15  C   UNL     1       5.591   4.821  14.334  0.00  0.00    +0.000 C 
ATOM     16  C   UNL     1       7.053   5.243  14.190  0.00  0.00    +0.000 C 
ATOM     17  C   UNL     1       7.913   4.573  15.258  0.00  0.00    +0.000 C 
ENDBRANCH   8   9
BRANCH   1  24
ATOM     18  C   UNL     1       1.599   5.757  20.966  0.00  0.00    +0.000 C 
ATOM     19  C   UNL     1       1.682   6.774  19.863  0.00  0.00    +0.000 A 
ATOM     20  N   UNL     1       1.448   8.055  20.283  0.00  0.00    +0.000 NA
ATOM     21  C   UNL     1       1.435   9.067  19.376  0.00  0.00    +0.000 A 
ATOM     22  C   UNL     1       1.699   8.825  18.032  0.00  0.00    +0.000 A 
ATOM     23  C   UNL     1       1.925   7.513  17.607  0.00  0.00    +0.000 A 
ATOM     24  C   UNL     1       1.932   6.450  18.518  0.00  0.00    +0.000 A 
BRANCH  21  25
ATOM     25  C   UNL     1       1.080  10.480  19.826  0.00  0.00    +0.000 C 
ATOM     26  F   UNL     1       1.761  11.468  19.182  0.00  0.00    +0.000 F 
ATOM     27  F   UNL     1      -0.243  10.765  19.657  0.00  0.00    +0.000 F 
ATOM     28  F   UNL     1       1.324  10.672  21.158  0.00  0.00    +0.000 F 
ENDBRANCH  21  25
ENDBRANCH   1  24
TORSDOF 3
ENDMDL
MODEL 3
REMARK VINA RESULT:      -7.3      5.090      7.978
REMARK  Name = 
REMARK  4 active torsions:
REMARK  status: ('A' for Active; 'I' for Inactive)
REMARK    1  A    between atoms: C_1  and  C_2
REMARK    2  A    between atoms: C_4  and  C_5
REMARK    3  A    between atoms: C_11  and  C_12
REMARK    4  A    between atoms: C_19  and  C_20
REMARK                            x       y       z     vdW  Elec       q    Type
REMARK                         _______ _______ _______ _____ _____    ______ ____
ROOT
ATOM      1  C   UNL     1       5.344   4.427  18.447  0.00  0.00    +0.000 C 
ATOM      2  O   UNL     1       5.927   3.776  19.314  0.00  0.00    +0.000 OA
ATOM      3  N   UNL     1       4.145   5.105  18.742  0.00  0.00    +0.000 N 
ATOM      4  C   UNL     1       3.632   5.003  20.123  0.00  0.00    +0.000 C 
ATOM      5  C   UNL     1       2.380   4.139  20.224  0.00  0.00    +0.000 C 
ATOM      6  C   UNL     1       1.323   4.563  19.210  0.00  0.00    +0.000 C 
ATOM      7  C   UNL     1       1.928   4.623  17.805  0.00  0.00    +0.000 C 
ATOM      8  C   UNL     1       3.160   5.560  17.745  0.00  0.00    +0.000 C 
ENDROOT
BRANCH   8   9
ATOM      9  C   UNL     1       2.738   7.003  17.925  0.00  0.00    +0.000 A 
ATOM     10  N   UNL     1       2.869   7.910  16.968  0.00  0.00    +0.000 NA
ATOM     11  N   UNL     1       2.292   9.080  17.371  0.00  0.00    +0.000 NA
ATOM     12  C   UNL     1       1.843   8.901  18.589  0.00  0.00    +0.000 A 
ATOM     13  N   UNL     1       2.171   7.631  19.010  0.00  0.00    +0.000 N 
ATOM     14  C   UNL     1       1.968   7.200  20.378  0.00  0.00    +0.000 C 
ATOM     15  C   UNL     1       0.863   7.993  21.082  0.00  0.00    +0.000 C 
ATOM     16  C   UNL     1       1.075   9.494  20.888  0.00  0.00    +0.000 C 
ATOM     17  C   UNL     1       1.046   9.853  19.405  0.00  0.00    +0.000 C 
ENDBRANCH   8   9
BRANCH   1  24
ATOM     18  C   UNL     1       7.385   6.581  17.862  0.00  0.00    +0.000 C 
ATOM     19  C   UNL     1       6.936   5.574  16.843  0.00  0.00    +0.000 A 
ATOM     20  N   UNL     1       7.458   5.786  15.597  0.00  0.00    +0.000 NA
ATOM     21  C   UNL     1       7.087   4.982  14.566  0.00  0.00    +0.000 A 
ATOM     22  C   UNL     1       6.216   3.917  14.770  0.00  0.00    +0.000 A 
ATOM     23  C   UNL     1       5.676   3.711  16.043  0.00  0.00    +0.000 A 
ATOM     24  C   UNL     1       6.032   4.533  17.119  0.00  0.00    +0.000 A 
BRANCH  21  25
ATOM     25  C   UNL     1       7.592   5.277  13.159  0.00  0.00    +0.000 C 
ATOM     26  F   UNL     1       8.936   5.484  13.070  0.00  0.00    +0.000 F 
ATOM     27  F   UNL     1       7.310   4.271  12.281  0.00  0.00    +0.000 F 
ATOM     28  F   UNL     1       7.012   6.395  12.627  0.00  0.00    +0.000 F 
ENDBRANCH  21  25
ENDBRANCH   1  24
TORSDOF 3
ENDMDL
MODEL 4
REMARK VINA RESULT:      -7.2      3.164      4.625
REMARK  Name = 
REMARK  4 active torsions:
REMARK  status: ('A' for Active; 'I' for Inactive)
REMARK    1  A    between atoms: C_1  and  C_2
REMARK    2  A    between atoms: C_4  and  C_5
REMARK    3  A    between atoms: C_11  and  C_12
REMARK    4  A    between atoms: C_19  and  C_20
REMARK                            x       y       z     vdW  Elec       q    Type
REMARK                         _______ _______ _______ _____ _____    ______ ____
ROOT
ATOM      1  C   UNL     1      -3.373  13.887  21.499  0.00  0.00    +0.000 C 
ATOM      2  O   UNL     1      -3.251  15.005  21.998  0.00  0.00    +0.000 OA
ATOM      3  N   UNL     1      -4.384  13.628  20.553  0.00  0.00    +0.000 N 
ATOM      4  C   UNL     1      -5.274  14.749  20.190  0.00  0.00    +0.000 C 
ATOM      5  C   UNL     1      -6.685  14.586  20.743  0.00  0.00    +0.000 C 
ATOM      6  C   UNL     1      -7.262  13.216  20.408  0.00  0.00    +0.000 C 
ATOM      7  C   UNL     1      -6.293  12.111  20.835  0.00  0.00    +0.000 C 
ATOM      8  C   UNL     1      -4.892  12.292  20.198  0.00  0.00    +0.000 C 
ENDROOT
BRANCH   8   9
ATOM      9  C   UNL     1      -4.953  12.043  18.705  0.00  0.00    +0.000 A 
ATOM     10  N   UNL     1      -5.893  12.566  17.933  0.00  0.00    +0.000 NA
ATOM     11  N   UNL     1      -5.621  12.274  16.627  0.00  0.00    +0.000 NA
ATOM     12  C   UNL     1      -4.536  11.540  16.604  0.00  0.00    +0.000 A 
ATOM     13  N   UNL     1      -4.124  11.302  17.896  0.00  0.00    +0.000 N 
ATOM     14  C   UNL     1      -3.056  10.372  18.201  0.00  0.00    +0.000 C 
ATOM     15  C   UNL     1      -2.089  10.188  17.028  0.00  0.00    +0.000 C 
ATOM     16  C   UNL     1      -2.859   9.907  15.739  0.00  0.00    +0.000 C 
ATOM     17  C   UNL     1      -3.792  11.068  15.407  0.00  0.00    +0.000 C 
ENDBRANCH   8   9
BRANCH   1  24
ATOM     18  C   UNL     1      -1.067  13.187  19.672  0.00  0.00    +0.000 C 
ATOM     19  C   UNL     1      -1.303  12.515  20.995  0.00  0.00    +0.000 A 
ATOM     20  N   UNL     1      -0.438  11.487  21.247  0.00  0.00    +0.000 NA
ATOM     21  C   UNL     1      -0.577  10.755  22.384  0.00  0.00    +0.000 A 
ATOM     22  C   UNL     1      -1.562  11.066  23.316  0.00  0.00    +0.000 A 
ATOM     23  C   UNL     1      -2.451  12.111  23.047  0.00  0.00    +0.000 A 
ATOM     24  C   UNL     1      -2.336  12.872  21.878  0.00  0.00    +0.000 A 
BRANCH  21  25
ATOM     25  C   UNL     1       0.324   9.549  22.621  0.00  0.00    +0.000 C 
ATOM     26  F   UNL     1      -0.134   8.384  22.082  0.00  0.00    +0.000 F 
ATOM     27  F   UNL     1       1.579   9.727  22.118  0.00  0.00    +0.000 F 
ATOM     28  F   UNL     1       0.501   9.294  23.953  0.00  0.00    +0.000 F 
ENDBRANCH  21  25
ENDBRANCH   1  24
TORSDOF 3
ENDMDL
MODEL 5
REMARK VINA RESULT:      -7.2      1.167      1.934
REMARK  Name = 
REMARK  4 active torsions:
REMARK  status: ('A' for Active; 'I' for Inactive)
REMARK    1  A    between atoms: C_1  and  C_2
REMARK    2  A    between atoms: C_4  and  C_5
REMARK    3  A    between atoms: C_11  and  C_12
REMARK    4  A    between atoms: C_19  and  C_20
REMARK                            x       y       z     vdW  Elec       q    Type
REMARK                         _______ _______ _______ _____ _____    ______ ____
ROOT
ATOM      1  C   UNL     1       1.013  11.584  18.890  0.00  0.00    +0.000 C 
ATOM      2  O   UNL     1       2.029  12.252  18.699  0.00  0.00    +0.000 OA
ATOM      3  N   UNL     1      -0.259  12.189  18.869  0.00  0.00    +0.000 N 
ATOM      4  C   UNL     1      -0.313  13.641  18.606  0.00  0.00    +0.000 C 
ATOM      5  C   UNL     1      -0.690  14.452  19.840  0.00  0.00    +0.000 C 
ATOM      6  C   UNL     1      -1.948  13.905  20.505  0.00  0.00    +0.000 C 
ATOM      7  C   UNL     1      -1.803  12.403  20.765  0.00  0.00    +0.000 C 
ATOM      8  C   UNL     1      -1.479  11.620  19.468  0.00  0.00    +0.000 C 
ENDROOT
BRANCH   8   9
ATOM      9  C   UNL     1      -2.671  11.625  18.534  0.00  0.00    +0.000 A 
ATOM     10  N   UNL     1      -2.556  11.430  17.229  0.00  0.00    +0.000 NA
ATOM     11  N   UNL     1      -3.799  11.364  16.669  0.00  0.00    +0.000 NA
ATOM     12  C   UNL     1      -4.674  11.557  17.626  0.00  0.00    +0.000 A 
ATOM     13  N   UNL     1      -4.008  11.805  18.805  0.00  0.00    +0.000 N 
ATOM     14  C   UNL     1      -4.701  12.233  20.003  0.00  0.00    +0.000 C 
ATOM     15  C   UNL     1      -6.170  11.798  20.014  0.00  0.00    +0.000 C 
ATOM     16  C   UNL     1      -6.846  12.164  18.694  0.00  0.00    +0.000 C 
ATOM     17  C   UNL     1      -6.154  11.469  17.525  0.00  0.00    +0.000 C 
ENDBRANCH   8   9
BRANCH   1  24
ATOM     18  C   UNL     1       0.893  10.213  21.583  0.00  0.00    +0.000 C 
ATOM     19  C   UNL     1       1.205   9.490  20.304  0.00  0.00    +0.000 A 
ATOM     20  N   UNL     1       1.532   8.175  20.485  0.00  0.00    +0.000 NA
ATOM     21  C   UNL     1       1.893   7.418  19.416  0.00  0.00    +0.000 A 
ATOM     22  C   UNL     1       1.894   7.953  18.132  0.00  0.00    +0.000 A 
ATOM     23  C   UNL     1       1.571   9.301  17.953  0.00  0.00    +0.000 A 
ATOM     24  C   UNL     1       1.207  10.105  19.039  0.00  0.00    +0.000 A 
BRANCH  21  25
ATOM     25  C   UNL     1       2.350   5.979  19.628  0.00  0.00    +0.000 C 
ATOM     26  F   UNL     1       2.041   5.130  18.608  0.00  0.00    +0.000 F 
ATOM     27  F   UNL     1       3.699   5.880  19.802  0.00  0.00    +0.000 F 
ATOM     28  F   UNL     1       1.798   5.425  20.749  0.00  0.00    +0.000 F 
ENDBRANCH  21  25
ENDBRANCH   1  24
TORSDOF 3
ENDMDL
MODEL 6
REMARK VINA RESULT:      -7.1      3.113      5.528
REMARK  Name = 
REMARK  4 active torsions:
REMARK  status: ('A' for Active; 'I' for Inactive)
REMARK    1  A    between atoms: C_1  and  C_2
REMARK    2  A    between atoms: C_4  and  C_5
REMARK    3  A    between atoms: C_11  and  C_12
REMARK    4  A    between atoms: C_19  and  C_20
REMARK                            x       y       z     vdW  Elec       q    Type
REMARK                         _______ _______ _______ _____ _____    ______ ____
ROOT
ATOM      1  C   UNL     1      -0.181  11.088  20.244  0.00  0.00    +0.000 C 
ATOM      2  O   UNL     1      -1.283  10.864  20.744  0.00  0.00    +0.000 OA
ATOM      3  N   UNL     1       0.383  12.377  20.296  0.00  0.00    +0.000 N 
ATOM      4  C   UNL     1      -0.398  13.431  20.975  0.00  0.00    +0.000 C 
ATOM      5  C   UNL     1      -0.976  14.456  20.005  0.00  0.00    +0.000 C 
ATOM      6  C   UNL     1       0.093  14.999  19.064  0.00  0.00    +0.000 C 
ATOM      7  C   UNL     1       0.840  13.848  18.385  0.00  0.00    +0.000 C 
ATOM      8  C   UNL     1       1.457  12.870  19.415  0.00  0.00    +0.000 C 
ENDROOT
BRANCH   8   9
ATOM      9  C   UNL     1       2.595  13.535  20.161  0.00  0.00    +0.000 A 
ATOM     10  N   UNL     1       2.693  13.510  21.482  0.00  0.00    +0.000 NA
ATOM     11  N   UNL     1       3.877  14.078  21.859  0.00  0.00    +0.000 NA
ATOM     12  C   UNL     1       4.484  14.484  20.771  0.00  0.00    +0.000 A 
ATOM     13  N   UNL     1       3.678  14.235  19.683  0.00  0.00    +0.000 N 
ATOM     14  C   UNL     1       3.998  14.735  18.361  0.00  0.00    +0.000 C 
ATOM     15  C   UNL     1       5.498  14.987  18.179  0.00  0.00    +0.000 C 
ATOM     16  C   UNL     1       6.048  15.807  19.345  0.00  0.00    +0.000 C 
ATOM     17  C   UNL     1       5.848  15.066  20.665  0.00  0.00    +0.000 C 
ENDBRANCH   8   9
BRANCH   1  24
ATOM     18  C   UNL     1       1.015   8.946  22.014  0.00  0.00    +0.000 C 
ATOM     19  C   UNL     1       1.148   8.947  20.517  0.00  0.00    +0.000 A 
ATOM     20  N   UNL     1       1.948   7.947  20.039  0.00  0.00    +0.000 NA
ATOM     21  C   UNL     1       2.201   7.868  18.707  0.00  0.00    +0.000 A 
ATOM     22  C   UNL     1       1.622   8.765  17.816  0.00  0.00    +0.000 A 
ATOM     23  C   UNL     1       0.815   9.793  18.311  0.00  0.00    +0.000 A 
ATOM     24  C   UNL     1       0.548   9.904  19.681  0.00  0.00    +0.000 A 
BRANCH  21  25
ATOM     25  C   UNL     1       3.169   6.813  18.183  0.00  0.00    +0.000 C 
ATOM     26  F   UNL     1       4.010   7.250  17.204  0.00  0.00    +0.000 F 
ATOM     27  F   UNL     1       3.969   6.304  19.164  0.00  0.00    +0.000 F 
ATOM     28  F   UNL     1       2.516   5.734  17.653  0.00  0.00    +0.000 F 
ENDBRANCH  21  25
ENDBRANCH   1  24
TORSDOF 3
ENDMDL
MODEL 7
REMARK VINA RESULT:      -6.9      4.314      6.088
REMARK  Name = 
REMARK  4 active torsions:
REMARK  status: ('A' for Active; 'I' for Inactive)
REMARK    1  A    between atoms: C_1  and  C_2
REMARK    2  A    between atoms: C_4  and  C_5
REMARK    3  A    between atoms: C_11  and  C_12
REMARK    4  A    between atoms: C_19  and  C_20
REMARK                            x       y       z     vdW  Elec       q    Type
REMARK                         _______ _______ _______ _____ _____    ______ ____
ROOT
ATOM      1  C   UNL     1       0.284  13.324  21.572  0.00  0.00    +0.000 C 
ATOM      2  O   UNL     1       0.106  13.727  22.721  0.00  0.00    +0.000 OA
ATOM      3  N   UNL     1      -0.324  12.134  21.126  0.00  0.00    +0.000 N 
ATOM      4  C   UNL     1      -1.178  11.409  22.088  0.00  0.00    +0.000 C 
ATOM      5  C   UNL     1      -0.547  10.109  22.575  0.00  0.00    +0.000 C 
ATOM      6  C   UNL     1      -0.072   9.248  21.410  0.00  0.00    +0.000 C 
ATOM      7  C   UNL     1       0.823  10.064  20.475  0.00  0.00    +0.000 C 
ATOM      8  C   UNL     1       0.113  11.342  19.963  0.00  0.00    +0.000 C 
ENDROOT
BRANCH   8   9
ATOM      9  C   UNL     1      -1.015  10.979  19.019  0.00  0.00    +0.000 A 
ATOM     10  N   UNL     1      -0.878  10.079  18.057  0.00  0.00    +0.000 NA
ATOM     11  N   UNL     1      -2.086   9.873  17.455  0.00  0.00    +0.000 NA
ATOM     12  C   UNL     1      -2.953  10.676  18.022  0.00  0.00    +0.000 A 
ATOM     13  N   UNL     1      -2.306  11.450  18.960  0.00  0.00    +0.000 N 
ATOM     14  C   UNL     1      -2.962  12.557  19.625  0.00  0.00    +0.000 C 
ATOM     15  C   UNL     1      -4.484  12.395  19.664  0.00  0.00    +0.000 C 
ATOM     16  C   UNL     1      -5.021  12.049  18.276  0.00  0.00    +0.000 C 
ATOM     17  C   UNL     1      -4.418  10.738  17.779  0.00  0.00    +0.000 C 
ENDBRANCH   8   9
BRANCH   1  24
ATOM     18  C   UNL     1      -0.977  15.580  20.001  0.00  0.00    +0.000 C 
ATOM     19  C   UNL     1       0.479  15.221  19.903  0.00  0.00    +0.000 A 
ATOM     20  N   UNL     1       1.157  15.941  18.960  0.00  0.00    +0.000 NA
ATOM     21  C   UNL     1       2.469  15.676  18.726  0.00  0.00    +0.000 A 
ATOM     22  C   UNL     1       3.144  14.710  19.465  0.00  0.00    +0.000 A 
ATOM     23  C   UNL     1       2.443  13.968  20.420  0.00  0.00    +0.000 A 
ATOM     24  C   UNL     1       1.088  14.213  20.671  0.00  0.00    +0.000 A 
BRANCH  21  25
ATOM     25  C   UNL     1       3.202  16.412  17.610  0.00  0.00    +0.000 C 
ATOM     26  F   UNL     1       2.476  17.394  17.006  0.00  0.00    +0.000 F 
ATOM     27  F   UNL     1       4.350  17.006  18.042  0.00  0.00    +0.000 F 
ATOM     28  F   UNL     1       3.586  15.568  16.605  0.00  0.00    +0.000 F 
ENDBRANCH  21  25
ENDBRANCH   1  24
TORSDOF 3
ENDMDL
MODEL 8
REMARK VINA RESULT:      -6.9      3.116      4.486
REMARK  Name = 
REMARK  4 active torsions:
REMARK  status: ('A' for Active; 'I' for Inactive)
REMARK    1  A    between atoms: C_1  and  C_2
REMARK    2  A    between atoms: C_4  and  C_5
REMARK    3  A    between atoms: C_11  and  C_12
REMARK    4  A    between atoms: C_19  and  C_20
REMARK                            x       y       z     vdW  Elec       q    Type
REMARK                         _______ _______ _______ _____ _____    ______ ____
ROOT
ATOM      1  C   UNL     1      -2.003  14.008  21.620  0.00  0.00    +0.000 C 
ATOM      2  O   UNL     1      -1.373  15.035  21.366  0.00  0.00    +0.000 OA
ATOM      3  N   UNL     1      -3.395  14.053  21.831  0.00  0.00    +0.000 N 
ATOM      4  C   UNL     1      -4.053  15.371  21.729  0.00  0.00    +0.000 C 
ATOM      5  C   UNL     1      -4.509  15.910  23.081  0.00  0.00    +0.000 C 
ATOM      6  C   UNL     1      -5.327  14.877  23.847  0.00  0.00    +0.000 C 
ATOM      7  C   UNL     1      -4.569  13.550  23.927  0.00  0.00    +0.000 C 
ATOM      8  C   UNL     1      -4.181  13.018  22.525  0.00  0.00    +0.000 C 
ENDROOT
BRANCH   8   9
ATOM      9  C   UNL     1      -5.417  12.584  21.763  0.00  0.00    +0.000 A 
ATOM     10  N   UNL     1      -6.593  12.417  22.348  0.00  0.00    +0.000 NA
ATOM     11  N   UNL     1      -7.537  12.149  21.398  0.00  0.00    +0.000 NA
ATOM     12  C   UNL     1      -6.930  12.113  20.237  0.00  0.00    +0.000 A 
ATOM     13  N   UNL     1      -5.579  12.303  20.426  0.00  0.00    +0.000 N 
ATOM     14  C   UNL     1      -4.623  12.138  19.351  0.00  0.00    +0.000 C 
ATOM     15  C   UNL     1      -5.254  12.349  17.971  0.00  0.00    +0.000 C 
ATOM     16  C   UNL     1      -6.540  11.534  17.841  0.00  0.00    +0.000 C 
ATOM     17  C   UNL     1      -7.556  11.962  18.897  0.00  0.00    +0.000 C 
ENDBRANCH   8   9
BRANCH   1  24
ATOM     18  C   UNL     1      -1.019  12.790  19.032  0.00  0.00    +0.000 C 
ATOM     19  C   UNL     1      -0.826  12.142  20.374  0.00  0.00    +0.000 A 
ATOM     20  N   UNL     1      -0.256  10.901  20.304  0.00  0.00    +0.000 NA
ATOM     21  C   UNL     1      -0.078  10.178  21.441  0.00  0.00    +0.000 A 
ATOM     22  C   UNL     1      -0.429  10.701  22.681  0.00  0.00    +0.000 A 
ATOM     23  C   UNL     1      -1.022  11.966  22.745  0.00  0.00    +0.000 A 
ATOM     24  C   UNL     1      -1.227  12.726  21.588  0.00  0.00    +0.000 A 
BRANCH  21  25
ATOM     25  C   UNL     1       0.467   8.757  21.356  0.00  0.00    +0.000 C 
ATOM     26  F   UNL     1       1.062   8.448  20.169  0.00  0.00    +0.000 F 
ATOM     27  F   UNL     1       1.396   8.496  22.320  0.00  0.00    +0.000 F 
ATOM     28  F   UNL     1      -0.512   7.819  21.532  0.00  0.00    +0.000 F 
ENDBRANCH  21  25
ENDBRANCH   1  24
TORSDOF 3
ENDMDL
MODEL 9
REMARK VINA RESULT:      -6.8      4.887      7.110
REMARK  Name = 
REMARK  4 active torsions:
REMARK  status: ('A' for Active; 'I' for Inactive)
REMARK    1  A    between atoms: C_1  and  C_2
REMARK    2  A    between atoms: C_4  and  C_5
REMARK    3  A    between atoms: C_11  and  C_12
REMARK    4  A    between atoms: C_19  and  C_20
REMARK                            x       y       z     vdW  Elec       q    Type
REMARK                         _______ _______ _______ _____ _____    ______ ____
ROOT
ATOM      1  C   UNL     1       0.438  13.713  21.762  0.00  0.00    +0.000 C 
ATOM      2  O   UNL     1       1.041  14.466  22.526  0.00  0.00    +0.000 OA
ATOM      3  N   UNL     1       1.109  13.089  20.691  0.00  0.00    +0.000 N 
ATOM      4  C   UNL     1       2.550  13.373  20.537  0.00  0.00    +0.000 C 
ATOM      5  C   UNL     1       2.852  14.254  19.330  0.00  0.00    +0.000 C 
ATOM      6  C   UNL     1       2.199  13.711  18.064  0.00  0.00    +0.000 C 
ATOM      7  C   UNL     1       0.706  13.465  18.299  0.00  0.00    +0.000 C 
ATOM      8  C   UNL     1       0.458  12.518  19.499  0.00  0.00    +0.000 C 
ENDROOT
BRANCH   8   9
ATOM      9  C   UNL     1       0.921  11.113  19.171  0.00  0.00    +0.000 A 
ATOM     10  N   UNL     1       1.395  10.779  17.980  0.00  0.00    +0.000 NA
ATOM     11  N   UNL     1       1.846   9.491  18.018  0.00  0.00    +0.000 NA
ATOM     12  C   UNL     1       1.611   9.025  19.220  0.00  0.00    +0.000 A 
ATOM     13  N   UNL     1       0.957   9.986  19.958  0.00  0.00    +0.000 N 
ATOM     14  C   UNL     1       0.404   9.703  21.267  0.00  0.00    +0.000 C 
ATOM     15  C   UNL     1       1.114   8.537  21.961  0.00  0.00    +0.000 C 
ATOM     16  C   UNL     1       1.221   7.339  21.018  0.00  0.00    +0.000 C 
ATOM     17  C   UNL     1       2.021   7.707  19.771  0.00  0.00    +0.000 C 
ENDBRANCH   8   9
BRANCH   1  24
ATOM     18  C   UNL     1      -1.823  15.431  20.722  0.00  0.00    +0.000 C 
ATOM     19  C   UNL     1      -2.031  14.271  21.653  0.00  0.00    +0.000 A 
ATOM     20  N   UNL     1      -3.326  14.130  22.069  0.00  0.00    +0.000 NA
ATOM     21  C   UNL     1      -3.643  13.155  22.961  0.00  0.00    +0.000 A 
ATOM     22  C   UNL     1      -2.675  12.270  23.425  0.00  0.00    +0.000 A 
ATOM     23  C   UNL     1      -1.350  12.427  23.006  0.00  0.00    +0.000 A 
ATOM     24  C   UNL     1      -0.995  13.430  22.097  0.00  0.00    +0.000 A 
BRANCH  21  25
ATOM     25  C   UNL     1      -5.065  13.056  23.499  0.00  0.00    +0.000 C 
ATOM     26  F   UNL     1      -5.208  12.237  24.579  0.00  0.00    +0.000 F 
ATOM     27  F   UNL     1      -5.565  14.267  23.879  0.00  0.00    +0.000 F 
ATOM     28  F   UNL     1      -5.939  12.583  22.560  0.00  0.00    +0.000 F 
ENDBRANCH  21  25
ENDBRANCH   1  24
TORSDOF 3
ENDMDL
