MODEL 1
REMARK VINA RESULT:      -8.0      0.000      0.000
REMARK  Name = 
REMARK  5 active torsions:
REMARK  status: ('A' for Active; 'I' for Inactive)
REMARK    1  A    between atoms: C_1  and  C_2
REMARK    2  A    between atoms: C_5  and  C_6
REMARK    3  A    between atoms: C_7  and  N_8
REMARK    4  A    between atoms: C_11  and  N_12
REMARK    5  A    between atoms: C_25  and  C_26
REMARK                            x       y       z     vdW  Elec       q    Type
REMARK                         _______ _______ _______ _____ _____    ______ ____
ROOT
ATOM      1  N   UNL     1      -0.466  11.553  21.540  0.00  0.00    +0.000 N 
ATOM      2  N   UNL     1      -0.316  11.865  20.228  0.00  0.00    +0.000 NA
ATOM      3  C   UNL     1       0.362  10.852  19.701  0.00  0.00    +0.000 A 
ATOM      4  C   UNL     1       0.639   9.841  20.632  0.00  0.00    +0.000 A 
ATOM      5  C   UNL     1       0.097  10.300  21.822  0.00  0.00    +0.000 A 
ATOM      6  C   UNL     1      -0.006   9.601  23.131  0.00  0.00    +0.000 C 
ENDROOT
BRANCH   4   7
ATOM      7  N   UNL     1       1.273   8.616  20.470  0.00  0.00    +0.000 N 
ATOM      8  C   UNL     1       1.812   8.181  19.284  0.00  0.00    +0.000 C 
ATOM      9  O   UNL     1       1.828   8.840  18.246  0.00  0.00    +0.000 OA
ATOM     10  N   UNL     1       2.394   6.923  19.341  0.00  0.00    +0.000 N 
ATOM     11  C   UNL     1       3.008   6.407  18.139  0.00  0.00    +0.000 C 
ATOM     12  C   UNL     1       3.685   5.110  18.552  0.00  0.00    +0.000 C 
ATOM     13  C   UNL     1       3.340   3.979  17.580  0.00  0.00    +0.000 C 
ATOM     14  C   UNL     1       3.933   2.676  18.019  0.00  0.00    +0.000 C 
ATOM     15  C   UNL     1       3.238   2.298  19.101  0.00  0.00    +0.000 C 
ATOM     16  C   UNL     1       2.233   3.385  19.357  0.00  0.00    +0.000 C 
ATOM     17  O   UNL     1       1.955   3.742  17.977  0.00  0.00    +0.000 OA
ATOM     18  C   UNL     1       2.948   4.659  19.851  0.00  0.00    +0.000 C 
ATOM     19  C   UNL     1       2.031   5.826  20.226  0.00  0.00    +0.000 C 
ATOM     20  H   UNL     1       1.471   8.086  21.298  0.00  0.00    +0.000 HD
ENDBRANCH   4   7
BRANCH   1  27
ATOM     21  C   UNL     1      -4.313  12.459  24.537  0.00  0.00    +0.000 C 
ATOM     22  C   UNL     1      -3.041  12.928  23.897  0.00  0.00    +0.000 A 
ATOM     23  C   UNL     1      -2.555  14.214  24.118  0.00  0.00    +0.000 A 
ATOM     24  C   UNL     1      -1.361  14.620  23.522  0.00  0.00    +0.000 A 
ATOM     25  C   UNL     1      -0.634  13.769  22.669  0.00  0.00    +0.000 A 
ATOM     26  C   UNL     1       0.615  14.326  22.038  0.00  0.00    +0.000 C 
ATOM     27  C   UNL     1      -1.138  12.468  22.419  0.00  0.00    +0.000 A 
ATOM     28  C   UNL     1      -2.316  12.061  23.066  0.00  0.00    +0.000 A 
ENDBRANCH   1  27
TORSDOF 2
ENDMDL
MODEL 2
REMARK VINA RESULT:      -8.0      2.173      9.668
REMARK  Name = 
REMARK  5 active torsions:
REMARK  status: ('A' for Active; 'I' for Inactive)
REMARK    1  A    between atoms: C_1  and  C_2
REMARK    2  A    between atoms: C_5  and  C_6
REMARK    3  A    between atoms: C_7  and  N_8
REMARK    4  A    between atoms: C_11  and  N_12
REMARK    5  A    between atoms: C_25  and  C_26
REMARK                            x       y       z     vdW  Elec       q    Type
REMARK                         _______ _______ _______ _____ _____    ______ ____
ROOT
ATOM      1  N   UNL     1       2.781   7.332  18.219  0.00  0.00    +0.000 N 
ATOM      2  N   UNL     1       2.738   8.321  17.290  0.00  0.00    +0.000 NA
ATOM      3  C   UNL     1       1.964   9.263  17.816  0.00  0.00    +0.000 A 
ATOM      4  C   UNL     1       1.516   8.941  19.105  0.00  0.00    +0.000 A 
ATOM      5  C   UNL     1       2.051   7.690  19.361  0.00  0.00    +0.000 A 
ATOM      6  C   UNL     1       2.000   6.892  20.616  0.00  0.00    +0.000 C 
ENDROOT
BRANCH   4   7
ATOM      7  N   UNL     1       0.740   9.670  19.998  0.00  0.00    +0.000 N 
ATOM      8  C   UNL     1      -0.248  10.546  19.620  0.00  0.00    +0.000 C 
ATOM      9  O   UNL     1      -0.582  10.753  18.455  0.00  0.00    +0.000 OA
ATOM     10  N   UNL     1      -0.897  11.174  20.673  0.00  0.00    +0.000 N 
ATOM     11  C   UNL     1      -1.968  12.090  20.356  0.00  0.00    +0.000 C 
ATOM     12  C   UNL     1      -2.575  12.485  21.693  0.00  0.00    +0.000 C 
ATOM     13  C   UNL     1      -2.743  14.003  21.790  0.00  0.00    +0.000 C 
ATOM     14  C   UNL     1      -3.263  14.414  23.133  0.00  0.00    +0.000 C 
ATOM     15  C   UNL     1      -2.258  14.217  23.997  0.00  0.00    +0.000 C 
ATOM     16  C   UNL     1      -1.120  13.649  23.196  0.00  0.00    +0.000 C 
ATOM     17  O   UNL     1      -1.344  14.384  21.964  0.00  0.00    +0.000 OA
ATOM     18  C   UNL     1      -1.457  12.213  22.746  0.00  0.00    +0.000 C 
ATOM     19  C   UNL     1      -0.347  11.484  21.983  0.00  0.00    +0.000 C 
ATOM     20  H   UNL     1       0.812   9.435  20.970  0.00  0.00    +0.000 HD
ENDBRANCH   4   7
BRANCH   1  27
ATOM     21  C   UNL     1       7.188   5.149  17.580  0.00  0.00    +0.000 C 
ATOM     22  C   UNL     1       5.694   5.044  17.623  0.00  0.00    +0.000 A 
ATOM     23  C   UNL     1       5.049   3.836  17.371  0.00  0.00    +0.000 A 
ATOM     24  C   UNL     1       3.657   3.762  17.432  0.00  0.00    +0.000 A 
ATOM     25  C   UNL     1       2.870   4.893  17.717  0.00  0.00    +0.000 A 
ATOM     26  C   UNL     1       1.375   4.713  17.708  0.00  0.00    +0.000 C 
ATOM     27  C   UNL     1       3.519   6.131  17.948  0.00  0.00    +0.000 A 
ATOM     28  C   UNL     1       4.923   6.174  17.929  0.00  0.00    +0.000 A 
ENDBRANCH   1  27
TORSDOF 2
ENDMDL
MODEL 3
REMARK VINA RESULT:      -8.0      1.603      2.378
REMARK  Name = 
REMARK  5 active torsions:
REMARK  status: ('A' for Active; 'I' for Inactive)
REMARK    1  A    between atoms: C_1  and  C_2
REMARK    2  A    between atoms: C_5  and  C_6
REMARK    3  A    between atoms: C_7  and  N_8
REMARK    4  A    between atoms: C_11  and  N_12
REMARK    5  A    between atoms: C_25  and  C_26
REMARK                            x       y       z     vdW  Elec       q    Type
REMARK                         _______ _______ _______ _____ _____    ______ ____
ROOT
ATOM      1  N   UNL     1      -0.313  10.977  22.329  0.00  0.00    +0.000 N 
ATOM      2  N   UNL     1       0.342  10.247  23.267  0.00  0.00    +0.000 NA
ATOM      3  C   UNL     1       1.041   9.346  22.586  0.00  0.00    +0.000 A 
ATOM      4  C   UNL     1       0.899   9.484  21.198  0.00  0.00    +0.000 A 
ATOM      5  C   UNL     1       0.022  10.544  21.037  0.00  0.00    +0.000 A 
ATOM      6  C   UNL     1      -0.416  11.211  19.782  0.00  0.00    +0.000 C 
ENDROOT
BRANCH   4   7
ATOM      7  N   UNL     1       1.493   8.781  20.157  0.00  0.00    +0.000 N 
ATOM      8  C   UNL     1       1.769   7.437  20.196  0.00  0.00    +0.000 C 
ATOM      9  O   UNL     1       1.486   6.698  21.138  0.00  0.00    +0.000 OA
ATOM     10  N   UNL     1       2.370   6.936  19.051  0.00  0.00    +0.000 N 
ATOM     11  C   UNL     1       2.666   5.523  19.006  0.00  0.00    +0.000 C 
ATOM     12  C   UNL     1       3.161   5.256  17.593  0.00  0.00    +0.000 C 
ATOM     13  C   UNL     1       4.453   4.436  17.611  0.00  0.00    +0.000 C 
ATOM     14  C   UNL     1       4.997   4.236  16.230  0.00  0.00    +0.000 C 
ATOM     15  C   UNL     1       5.462   5.429  15.837  0.00  0.00    +0.000 C 
ATOM     16  C   UNL     1       5.175   6.385  16.961  0.00  0.00    +0.000 C 
ATOM     17  O   UNL     1       5.379   5.469  18.070  0.00  0.00    +0.000 OA
ATOM     18  C   UNL     1       3.657   6.637  17.065  0.00  0.00    +0.000 C 
ATOM     19  C   UNL     1       3.231   7.656  18.125  0.00  0.00    +0.000 C 
ATOM     20  H   UNL     1       1.594   9.256  19.279  0.00  0.00    +0.000 HD
ENDBRANCH   4   7
BRANCH   1  27
ATOM     21  C   UNL     1      -4.634  12.295  24.375  0.00  0.00    +0.000 C 
ATOM     22  C   UNL     1      -3.336  12.693  23.739  0.00  0.00    +0.000 A 
ATOM     23  C   UNL     1      -3.024  14.031  23.516  0.00  0.00    +0.000 A 
ATOM     24  C   UNL     1      -1.803  14.375  22.935  0.00  0.00    +0.000 A 
ATOM     25  C   UNL     1      -0.874  13.396  22.535  0.00  0.00    +0.000 A 
ATOM     26  C   UNL     1       0.390  13.875  21.872  0.00  0.00    +0.000 C 
ATOM     27  C   UNL     1      -1.199  12.031  22.735  0.00  0.00    +0.000 A 
ATOM     28  C   UNL     1      -2.412  11.708  23.365  0.00  0.00    +0.000 A 
ENDBRANCH   1  27
TORSDOF 2
ENDMDL
MODEL 4
REMARK VINA RESULT:      -8.0      2.368      9.757
REMARK  Name = 
REMARK  5 active torsions:
REMARK  status: ('A' for Active; 'I' for Inactive)
REMARK    1  A    between atoms: C_1  and  C_2
REMARK    2  A    between atoms: C_5  and  C_6
REMARK    3  A    between atoms: C_7  and  N_8
REMARK    4  A    between atoms: C_11  and  N_12
REMARK    5  A    between atoms: C_25  and  C_26
REMARK                            x       y       z     vdW  Elec       q    Type
REMARK                         _______ _______ _______ _____ _____    ______ ____
ROOT
ATOM      1  N   UNL     1       2.663   6.560  19.307  0.00  0.00    +0.000 N 
ATOM      2  N   UNL     1       2.220   6.166  20.528  0.00  0.00    +0.000 NA
ATOM      3  C   UNL     1       1.479   7.173  20.975  0.00  0.00    +0.000 A 
ATOM      4  C   UNL     1       1.384   8.227  20.056  0.00  0.00    +0.000 A 
ATOM      5  C   UNL     1       2.151   7.823  18.976  0.00  0.00    +0.000 A 
ATOM      6  C   UNL     1       2.333   8.491  17.659  0.00  0.00    +0.000 C 
ENDROOT
BRANCH   4   7
ATOM      7  N   UNL     1       0.675   9.420  20.123  0.00  0.00    +0.000 N 
ATOM      8  C   UNL     1       0.486  10.137  21.279  0.00  0.00    +0.000 C 
ATOM      9  O   UNL     1       0.955   9.826  22.373  0.00  0.00    +0.000 OA
ATOM     10  N   UNL     1      -0.258  11.298  21.124  0.00  0.00    +0.000 N 
ATOM     11  C   UNL     1      -0.476  12.121  22.291  0.00  0.00    +0.000 C 
ATOM     12  C   UNL     1      -1.170  13.375  21.781  0.00  0.00    +0.000 C 
ATOM     13  C   UNL     1      -2.394  13.709  22.636  0.00  0.00    +0.000 C 
ATOM     14  C   UNL     1      -3.136  14.893  22.096  0.00  0.00    +0.000 C 
ATOM     15  C   UNL     1      -3.724  14.479  20.966  0.00  0.00    +0.000 C 
ATOM     16  C   UNL     1      -3.320  13.043  20.781  0.00  0.00    +0.000 C 
ATOM     17  O   UNL     1      -3.294  12.653  22.180  0.00  0.00    +0.000 OA
ATOM     18  C   UNL     1      -1.821  12.958  20.426  0.00  0.00    +0.000 C 
ATOM     19  C   UNL     1      -1.293  11.552  20.134  0.00  0.00    +0.000 C 
ATOM     20  H   UNL     1       0.410   9.849  19.257  0.00  0.00    +0.000 HD
ENDBRANCH   4   7
BRANCH   1  27
ATOM     21  C   UNL     1       7.286   5.402  17.933  0.00  0.00    +0.000 C 
ATOM     22  C   UNL     1       5.814   5.127  17.860  0.00  0.00    +0.000 A 
ATOM     23  C   UNL     1       5.311   4.106  17.059  0.00  0.00    +0.000 A 
ATOM     24  C   UNL     1       3.938   3.862  17.021  0.00  0.00    +0.000 A 
ATOM     25  C   UNL     1       3.028   4.645  17.755  0.00  0.00    +0.000 A 
ATOM     26  C   UNL     1       1.563   4.328  17.602  0.00  0.00    +0.000 C 
ATOM     27  C   UNL     1       3.532   5.703  18.551  0.00  0.00    +0.000 A 
ATOM     28  C   UNL     1       4.921   5.902  18.614  0.00  0.00    +0.000 A 
ENDBRANCH   1  27
TORSDOF 2
ENDMDL
MODEL 5
REMARK VINA RESULT:      -7.8      2.077      9.526
REMARK  Name = 
REMARK  5 active torsions:
REMARK  status: ('A' for Active; 'I' for Inactive)
REMARK    1  A    between atoms: C_1  and  C_2
REMARK    2  A    between atoms: C_5  and  C_6
REMARK    3  A    between atoms: C_7  and  N_8
REMARK    4  A    between atoms: C_11  and  N_12
REMARK    5  A    between atoms: C_25  and  C_26
REMARK                            x       y       z     vdW  Elec       q    Type
REMARK                         _______ _______ _______ _____ _____    ______ ____
ROOT
ATOM      1  N   UNL     1       2.615   7.290  18.168  0.00  0.00    +0.000 N 
ATOM      2  N   UNL     1       2.648   8.302  17.265  0.00  0.00    +0.000 NA
ATOM      3  C   UNL     1       1.972   9.298  17.826  0.00  0.00    +0.000 A 
ATOM      4  C   UNL     1       1.515   8.985  19.114  0.00  0.00    +0.000 A 
ATOM      5  C   UNL     1       1.937   7.683  19.332  0.00  0.00    +0.000 A 
ATOM      6  C   UNL     1       1.832   6.862  20.568  0.00  0.00    +0.000 C 
ENDROOT
BRANCH   4   7
ATOM      7  N   UNL     1       0.823   9.759  20.038  0.00  0.00    +0.000 N 
ATOM      8  C   UNL     1      -0.290  10.504  19.734  0.00  0.00    +0.000 C 
ATOM      9  O   UNL     1      -0.820  10.539  18.626  0.00  0.00    +0.000 OA
ATOM     10  N   UNL     1      -0.823  11.207  20.805  0.00  0.00    +0.000 N 
ATOM     11  C   UNL     1      -2.013  11.993  20.571  0.00  0.00    +0.000 C 
ATOM     12  C   UNL     1      -2.438  12.505  21.938  0.00  0.00    +0.000 C 
ATOM     13  C   UNL     1      -2.732  14.006  21.894  0.00  0.00    +0.000 C 
ATOM     14  C   UNL     1      -3.072  14.540  23.251  0.00  0.00    +0.000 C 
ATOM     15  C   UNL     1      -1.931  14.528  23.952  0.00  0.00    +0.000 C 
ATOM     16  C   UNL     1      -0.883  13.952  23.042  0.00  0.00    +0.000 C 
ATOM     17  O   UNL     1      -1.365  14.510  21.791  0.00  0.00    +0.000 OA
ATOM     18  C   UNL     1      -1.149  12.450  22.815  0.00  0.00    +0.000 C 
ATOM     19  C   UNL     1      -0.108  11.718  21.964  0.00  0.00    +0.000 C 
ATOM     20  H   UNL     1       1.067   9.652  21.004  0.00  0.00    +0.000 HD
ENDBRANCH   4   7
BRANCH   1  27
ATOM     21  C   UNL     1       2.200   2.361  17.811  0.00  0.00    +0.000 C 
ATOM     22  C   UNL     1       3.042   3.595  17.684  0.00  0.00    +0.000 A 
ATOM     23  C   UNL     1       4.382   3.517  17.317  0.00  0.00    +0.000 A 
ATOM     24  C   UNL     1       5.140   4.682  17.192  0.00  0.00    +0.000 A 
ATOM     25  C   UNL     1       4.592   5.951  17.456  0.00  0.00    +0.000 A 
ATOM     26  C   UNL     1       5.512   7.137  17.340  0.00  0.00    +0.000 C 
ATOM     27  C   UNL     1       3.235   6.034  17.857  0.00  0.00    +0.000 A 
ATOM     28  C   UNL     1       2.476   4.854  17.930  0.00  0.00    +0.000 A 
ENDBRANCH   1  27
TORSDOF 2
ENDMDL
MODEL 6
REMARK VINA RESULT:      -7.7      2.063      3.126
REMARK  Name = 
REMARK  5 active torsions:
REMARK  status: ('A' for Active; 'I' for Inactive)
REMARK    1  A    between atoms: C_1  and  C_2
REMARK    2  A    between atoms: C_5  and  C_6
REMARK    3  A    between atoms: C_7  and  N_8
REMARK    4  A    between atoms: C_11  and  N_12
REMARK    5  A    between atoms: C_25  and  C_26
REMARK                            x       y       z     vdW  Elec       q    Type
REMARK                         _______ _______ _______ _____ _____    ______ ____
ROOT
ATOM      1  N   UNL     1      -0.590  12.369  19.169  0.00  0.00    +0.000 N 
ATOM      2  N   UNL     1      -1.349  11.711  18.256  0.00  0.00    +0.000 NA
ATOM      3  C   UNL     1      -0.823  10.495  18.173  0.00  0.00    +0.000 A 
ATOM      4  C   UNL     1       0.258  10.309  19.046  0.00  0.00    +0.000 A 
ATOM      5  C   UNL     1       0.403  11.526  19.691  0.00  0.00    +0.000 A 
ATOM      6  C   UNL     1       1.322  11.889  20.803  0.00  0.00    +0.000 C 
ENDROOT
BRANCH   4   7
ATOM      7  N   UNL     1       1.035   9.184  19.292  0.00  0.00    +0.000 N 
ATOM      8  C   UNL     1       1.882   8.619  18.371  0.00  0.00    +0.000 C 
ATOM      9  O   UNL     1       2.077   9.066  17.242  0.00  0.00    +0.000 OA
ATOM     10  N   UNL     1       2.560   7.495  18.822  0.00  0.00    +0.000 N 
ATOM     11  C   UNL     1       3.491   6.860  17.918  0.00  0.00    +0.000 C 
ATOM     12  C   UNL     1       4.180   5.780  18.737  0.00  0.00    +0.000 C 
ATOM     13  C   UNL     1       4.194   4.448  17.983  0.00  0.00    +0.000 C 
ATOM     14  C   UNL     1       4.796   3.354  18.810  0.00  0.00    +0.000 C 
ATOM     15  C   UNL     1       3.906   3.087  19.776  0.00  0.00    +0.000 C 
ATOM     16  C   UNL     1       2.763   4.040  19.572  0.00  0.00    +0.000 C 
ATOM     17  O   UNL     1       2.786   4.086  18.121  0.00  0.00    +0.000 OA
ATOM     18  C   UNL     1       3.206   5.477  19.917  0.00  0.00    +0.000 C 
ATOM     19  C   UNL     1       2.111   6.543  19.826  0.00  0.00    +0.000 C 
ATOM     20  H   UNL     1       1.084   8.855  20.238  0.00  0.00    +0.000 HD
ENDBRANCH   4   7
BRANCH   1  27
ATOM     21  C   UNL     1       0.277  17.161  18.230  0.00  0.00    +0.000 C 
ATOM     22  C   UNL     1      -0.445  16.115  19.024  0.00  0.00    +0.000 A 
ATOM     23  C   UNL     1      -1.323  16.465  20.046  0.00  0.00    +0.000 A 
ATOM     24  C   UNL     1      -1.994  15.472  20.760  0.00  0.00    +0.000 A 
ATOM     25  C   UNL     1      -1.787  14.105  20.497  0.00  0.00    +0.000 A 
ATOM     26  C   UNL     1      -2.523  13.116  21.362  0.00  0.00    +0.000 C 
ATOM     27  C   UNL     1      -0.873  13.742  19.477  0.00  0.00    +0.000 A 
ATOM     28  C   UNL     1      -0.244  14.757  18.737  0.00  0.00    +0.000 A 
ENDBRANCH   1  27
TORSDOF 2
ENDMDL
MODEL 7
REMARK VINA RESULT:      -7.6      2.685      3.898
REMARK  Name = 
REMARK  5 active torsions:
REMARK  status: ('A' for Active; 'I' for Inactive)
REMARK    1  A    between atoms: C_1  and  C_2
REMARK    2  A    between atoms: C_5  and  C_6
REMARK    3  A    between atoms: C_7  and  N_8
REMARK    4  A    between atoms: C_11  and  N_12
REMARK    5  A    between atoms: C_25  and  C_26
REMARK                            x       y       z     vdW  Elec       q    Type
REMARK                         _______ _______ _______ _____ _____    ______ ____
ROOT
ATOM      1  N   UNL     1       0.687  13.201  19.768  0.00  0.00    +0.000 N 
ATOM      2  N   UNL     1      -0.241  12.666  20.601  0.00  0.00    +0.000 NA
ATOM      3  C   UNL     1      -0.164  11.353  20.415  0.00  0.00    +0.000 A 
ATOM      4  C   UNL     1       0.832  10.992  19.497  0.00  0.00    +0.000 A 
ATOM      5  C   UNL     1       1.382  12.194  19.082  0.00  0.00    +0.000 A 
ATOM      6  C   UNL     1       2.550  12.429  18.192  0.00  0.00    +0.000 C 
ENDROOT
BRANCH   4   7
ATOM      7  N   UNL     1       1.256   9.739  19.072  0.00  0.00    +0.000 N 
ATOM      8  C   UNL     1       1.528   8.693  19.919  0.00  0.00    +0.000 C 
ATOM      9  O   UNL     1       1.391   8.735  21.140  0.00  0.00    +0.000 OA
ATOM     10  N   UNL     1       1.944   7.530  19.286  0.00  0.00    +0.000 N 
ATOM     11  C   UNL     1       2.224   6.376  20.108  0.00  0.00    +0.000 C 
ATOM     12  C   UNL     1       2.494   5.239  19.136  0.00  0.00    +0.000 C 
ATOM     13  C   UNL     1       3.770   4.485  19.517  0.00  0.00    +0.000 C 
ATOM     14  C   UNL     1       4.095   3.415  18.521  0.00  0.00    +0.000 C 
ATOM     15  C   UNL     1       4.499   4.048  17.412  0.00  0.00    +0.000 C 
ATOM     16  C   UNL     1       4.393   5.519  17.705  0.00  0.00    +0.000 C 
ATOM     17  O   UNL     1       4.760   5.478  19.109  0.00  0.00    +0.000 OA
ATOM     18  C   UNL     1       2.910   5.932  17.802  0.00  0.00    +0.000 C 
ATOM     19  C   UNL     1       2.655   7.426  18.021  0.00  0.00    +0.000 C 
ATOM     20  H   UNL     1       1.223   9.550  18.088  0.00  0.00    +0.000 HD
ENDBRANCH   4   7
BRANCH   1  27
ATOM     21  C   UNL     1      -0.643  17.483  17.648  0.00  0.00    +0.000 C 
ATOM     22  C   UNL     1       0.197  16.748  18.648  0.00  0.00    +0.000 A 
ATOM     23  C   UNL     1       1.120  17.420  19.446  0.00  0.00    +0.000 A 
ATOM     24  C   UNL     1       1.879  16.714  20.379  0.00  0.00    +0.000 A 
ATOM     25  C   UNL     1       1.761  15.319  20.524  0.00  0.00    +0.000 A 
ATOM     26  C   UNL     1       2.665  14.650  21.526  0.00  0.00    +0.000 C 
ATOM     27  C   UNL     1       0.843  14.627  19.696  0.00  0.00    +0.000 A 
ATOM     28  C   UNL     1       0.054  15.361  18.796  0.00  0.00    +0.000 A 
ENDBRANCH   1  27
TORSDOF 2
ENDMDL
MODEL 8
REMARK VINA RESULT:      -7.5      1.266      1.823
REMARK  Name = 
REMARK  5 active torsions:
REMARK  status: ('A' for Active; 'I' for Inactive)
REMARK    1  A    between atoms: C_1  and  C_2
REMARK    2  A    between atoms: C_5  and  C_6
REMARK    3  A    between atoms: C_7  and  N_8
REMARK    4  A    between atoms: C_11  and  N_12
REMARK    5  A    between atoms: C_25  and  C_26
REMARK                            x       y       z     vdW  Elec       q    Type
REMARK                         _______ _______ _______ _____ _____    ______ ____
ROOT
ATOM      1  N   UNL     1      -0.152  11.440  20.403  0.00  0.00    +0.000 N 
ATOM      2  N   UNL     1       0.635  11.852  19.376  0.00  0.00    +0.000 NA
ATOM      3  C   UNL     1       1.382  10.799  19.062  0.00  0.00    +0.000 A 
ATOM      4  C   UNL     1       1.083   9.670  19.837  0.00  0.00    +0.000 A 
ATOM      5  C   UNL     1       0.086  10.091  20.702  0.00  0.00    +0.000 A 
ATOM      6  C   UNL     1      -0.695   9.292  21.685  0.00  0.00    +0.000 C 
ENDROOT
BRANCH   4   7
ATOM      7  N   UNL     1       1.597   8.380  19.787  0.00  0.00    +0.000 N 
ATOM      8  C   UNL     1       2.134   7.811  18.658  0.00  0.00    +0.000 C 
ATOM      9  O   UNL     1       2.256   8.390  17.580  0.00  0.00    +0.000 OA
ATOM     10  N   UNL     1       2.585   6.510  18.826  0.00  0.00    +0.000 N 
ATOM     11  C   UNL     1       3.189   5.852  17.690  0.00  0.00    +0.000 C 
ATOM     12  C   UNL     1       3.716   4.528  18.219  0.00  0.00    +0.000 C 
ATOM     13  C   UNL     1       3.297   3.370  17.311  0.00  0.00    +0.000 C 
ATOM     14  C   UNL     1       3.738   2.050  17.863  0.00  0.00    +0.000 C 
ATOM     15  C   UNL     1       2.969   1.819  18.935  0.00  0.00    +0.000 C 
ATOM     16  C   UNL     1       2.069   3.015  19.073  0.00  0.00    +0.000 C 
ATOM     17  O   UNL     1       1.881   3.298  17.661  0.00  0.00    +0.000 OA
ATOM     18  C   UNL     1       2.889   4.246  19.511  0.00  0.00    +0.000 C 
ATOM     19  C   UNL     1       2.080   5.520  19.765  0.00  0.00    +0.000 C 
ATOM     20  H   UNL     1       1.709   7.894  20.656  0.00  0.00    +0.000 HD
ENDBRANCH   4   7
BRANCH   1  27
ATOM     21  C   UNL     1      -1.117  14.604  24.098  0.00  0.00    +0.000 C 
ATOM     22  C   UNL     1      -1.560  13.921  22.839  0.00  0.00    +0.000 A 
ATOM     23  C   UNL     1      -2.827  14.142  22.307  0.00  0.00    +0.000 A 
ATOM     24  C   UNL     1      -3.209  13.505  21.126  0.00  0.00    +0.000 A 
ATOM     25  C   UNL     1      -2.351  12.610  20.460  0.00  0.00    +0.000 A 
ATOM     26  C   UNL     1      -2.883  11.938  19.221  0.00  0.00    +0.000 C 
ATOM     27  C   UNL     1      -1.070  12.360  21.012  0.00  0.00    +0.000 A 
ATOM     28  C   UNL     1      -0.687  13.048  22.175  0.00  0.00    +0.000 A 
ENDBRANCH   1  27
TORSDOF 2
ENDMDL
MODEL 9
REMARK VINA RESULT:      -7.5      1.213      1.273
REMARK  Name = 
REMARK  5 active torsions:
REMARK  status: ('A' for Active; 'I' for Inactive)
REMARK    1  A    between atoms: C_1  and  C_2
REMARK    2  A    between atoms: C_5  and  C_6
REMARK    3  A    between atoms: C_7  and  N_8
REMARK    4  A    between atoms: C_11  and  N_12
REMARK    5  A    between atoms: C_25  and  C_26
REMARK                            x       y       z     vdW  Elec       q    Type
REMARK                         _______ _______ _______ _____ _____    ______ ____
ROOT
ATOM      1  N   UNL     1      -1.138  11.923  20.674  0.00  0.00    +0.000 N 
ATOM      2  N   UNL     1      -1.148  12.086  19.327  0.00  0.00    +0.000 NA
ATOM      3  C   UNL     1      -0.321  11.159  18.855  0.00  0.00    +0.000 A 
ATOM      4  C   UNL     1       0.217  10.348  19.863  0.00  0.00    +0.000 A 
ATOM      5  C   UNL     1      -0.318  10.846  21.040  0.00  0.00    +0.000 A 
ATOM      6  C   UNL     1      -0.185  10.316  22.424  0.00  0.00    +0.000 C 
ENDROOT
BRANCH   4   7
ATOM      7  N   UNL     1       1.070   9.254  19.781  0.00  0.00    +0.000 N 
ATOM      8  C   UNL     1       1.750   8.894  18.643  0.00  0.00    +0.000 C 
ATOM      9  O   UNL     1       1.710   9.519  17.585  0.00  0.00    +0.000 OA
ATOM     10  N   UNL     1       2.543   7.764  18.778  0.00  0.00    +0.000 N 
ATOM     11  C   UNL     1       3.311   7.338  17.631  0.00  0.00    +0.000 C 
ATOM     12  C   UNL     1       4.184   6.196  18.127  0.00  0.00    +0.000 C 
ATOM     13  C   UNL     1       4.108   4.998  17.178  0.00  0.00    +0.000 C 
ATOM     14  C   UNL     1       4.896   3.834  17.696  0.00  0.00    +0.000 C 
ATOM     15  C   UNL     1       4.216   3.364  18.750  0.00  0.00    +0.000 C 
ATOM     16  C   UNL     1       3.018   4.258  18.912  0.00  0.00    +0.000 C 
ATOM     17  O   UNL     1       2.766   4.523  17.506  0.00  0.00    +0.000 OA
ATOM     18  C   UNL     1       3.462   5.652  19.398  0.00  0.00    +0.000 C 
ATOM     19  C   UNL     1       2.329   6.643  19.679  0.00  0.00    +0.000 C 
ATOM     20  H   UNL     1       1.309   8.790  20.637  0.00  0.00    +0.000 HD
ENDBRANCH   4   7
BRANCH   1  27
ATOM     21  C   UNL     1      -5.558  13.083  22.603  0.00  0.00    +0.000 C 
ATOM     22  C   UNL     1      -4.097  13.386  22.457  0.00  0.00    +0.000 A 
ATOM     23  C   UNL     1      -3.528  14.498  23.072  0.00  0.00    +0.000 A 
ATOM     24  C   UNL     1      -2.163  14.749  22.932  0.00  0.00    +0.000 A 
ATOM     25  C   UNL     1      -1.334  13.918  22.155  0.00  0.00    +0.000 A 
ATOM     26  C   UNL     1       0.114  14.310  22.030  0.00  0.00    +0.000 C 
ATOM     27  C   UNL     1      -1.914  12.801  21.505  0.00  0.00    +0.000 A 
ATOM     28  C   UNL     1      -3.280  12.537  21.696  0.00  0.00    +0.000 A 
ENDBRANCH   1  27
TORSDOF 2
ENDMDL
