MODEL 1
REMARK VINA RESULT:      -8.5      0.000      0.000
REMARK  Name = 
REMARK  7 active torsions:
REMARK  status: ('A' for Active; 'I' for Inactive)
REMARK    1  A    between atoms: C_1  and  C_2
REMARK    2  A    between atoms: C_5  and  N_6
REMARK    3  A    between atoms: C_10  and  S_11
REMARK    4  A    between atoms: S_11  and  C_12
REMARK    5  A    between atoms: C_12  and  C_13
REMARK    6  A    between atoms: N_15  and  C_16
REMARK    7  A    between atoms: C_26  and  C_27
REMARK                            x       y       z     vdW  Elec       q    Type
REMARK                         _______ _______ _______ _____ _____    ______ ____
ROOT
ATOM      1  C   UNL     1       1.384   9.137  18.576  0.00  0.00    +0.000 C 
ENDROOT
BRANCH   1   2
ATOM      2  C   UNL     1       2.095   7.996  19.291  0.00  0.00    +0.000 C 
ATOM      3  O   UNL     1       2.092   7.887  20.514  0.00  0.00    +0.000 OA
ATOM      4  N   UNL     1       2.710   7.085  18.458  0.00  0.00    +0.000 N 
ATOM      5  H   UNL     1       2.754   7.274  17.466  0.00  0.00    +0.000 HD
BRANCH   4   6
ATOM      6  C   UNL     1       3.506   5.971  18.965  0.00  0.00    +0.000 C 
ATOM      7  C   UNL     1       4.840   5.852  18.210  0.00  0.00    +0.000 C 
ATOM      8  C   UNL     1       4.653   5.219  16.834  0.00  0.00    +0.000 C 
ATOM      9  C   UNL     1       4.092   3.806  16.963  0.00  0.00    +0.000 C 
ATOM     10  C   UNL     1       2.919   3.716  17.907  0.00  0.00    +0.000 A 
ATOM     11  C   UNL     1       2.093   2.582  17.853  0.00  0.00    +0.000 A 
ATOM     12  C   UNL     1       1.032   2.430  18.746  0.00  0.00    +0.000 A 
ATOM     13  C   UNL     1       0.796   3.402  19.714  0.00  0.00    +0.000 A 
ATOM     14  C   UNL     1       1.612   4.527  19.784  0.00  0.00    +0.000 A 
ATOM     15  C   UNL     1       2.679   4.701  18.884  0.00  0.00    +0.000 A 
ENDBRANCH   4   6
ENDBRANCH   1   2
BRANCH   1  16
ATOM     16  S   UNL     1       0.152   9.866  19.698  0.00  0.00    +0.000 S 
BRANCH  16  21
ATOM     17  N   UNL     1      -1.032  12.128  18.586  0.00  0.00    +0.000 N 
ATOM     18  N   UNL     1      -0.617  13.336  18.120  0.00  0.00    +0.000 NA
ATOM     19  N   UNL     1       0.667  13.444  18.432  0.00  0.00    +0.000 NA
ATOM     20  N   UNL     1       1.116  12.317  19.066  0.00  0.00    +0.000 NA
ATOM     21  C   UNL     1       0.084  11.511  19.146  0.00  0.00    +0.000 A 
BRANCH  17  26
ATOM     22  C   UNL     1      -6.679  11.042  18.397  0.00  0.00    +0.000 C 
ATOM     23  C   UNL     1      -5.201  11.285  18.474  0.00  0.00    +0.000 A 
ATOM     24  C   UNL     1      -4.665  12.148  19.426  0.00  0.00    +0.000 A 
ATOM     25  C   UNL     1      -3.288  12.393  19.462  0.00  0.00    +0.000 A 
ATOM     26  C   UNL     1      -2.411  11.765  18.560  0.00  0.00    +0.000 A 
ATOM     27  C   UNL     1      -2.937  10.858  17.613  0.00  0.00    +0.000 A 
ATOM     28  C   UNL     1      -2.134  10.008  16.660  0.00  0.00    +0.000 C 
ATOM     29  C   UNL     1      -4.334  10.649  17.578  0.00  0.00    +0.000 A 
ENDBRANCH  17  26
ENDBRANCH  16  21
ENDBRANCH   1  16
TORSDOF 5
ENDMDL
MODEL 2
REMARK VINA RESULT:      -8.2      2.561      9.235
REMARK  Name = 
REMARK  7 active torsions:
REMARK  status: ('A' for Active; 'I' for Inactive)
REMARK    1  A    between atoms: C_1  and  C_2
REMARK    2  A    between atoms: C_5  and  N_6
REMARK    3  A    between atoms: C_10  and  S_11
REMARK    4  A    between atoms: S_11  and  C_12
REMARK    5  A    between atoms: C_12  and  C_13
REMARK    6  A    between atoms: N_15  and  C_16
REMARK    7  A    between atoms: C_26  and  C_27
REMARK                            x       y       z     vdW  Elec       q    Type
REMARK                         _______ _______ _______ _____ _____    ______ ____
ROOT
ATOM      1  C   UNL     1       1.607   6.826  20.842  0.00  0.00    +0.000 C 
ENDROOT
BRANCH   1   2
ATOM      2  C   UNL     1       1.663   8.078  19.977  0.00  0.00    +0.000 C 
ATOM      3  O   UNL     1       2.343   8.139  18.957  0.00  0.00    +0.000 OA
ATOM      4  N   UNL     1       0.867   9.118  20.411  0.00  0.00    +0.000 N 
ATOM      5  H   UNL     1       0.398   9.041  21.304  0.00  0.00    +0.000 HD
BRANCH   4   6
ATOM      6  C   UNL     1       0.853  10.422  19.755  0.00  0.00    +0.000 C 
ATOM      7  C   UNL     1       1.077  11.557  20.767  0.00  0.00    +0.000 C 
ATOM      8  C   UNL     1      -0.183  11.843  21.580  0.00  0.00    +0.000 C 
ATOM      9  C   UNL     1      -1.323  12.285  20.668  0.00  0.00    +0.000 C 
ATOM     10  C   UNL     1      -1.493  11.401  19.457  0.00  0.00    +0.000 A 
ATOM     11  C   UNL     1      -2.696  11.468  18.736  0.00  0.00    +0.000 A 
ATOM     12  C   UNL     1      -2.873  10.711  17.577  0.00  0.00    +0.000 A 
ATOM     13  C   UNL     1      -1.845   9.894  17.117  0.00  0.00    +0.000 A 
ATOM     14  C   UNL     1      -0.644   9.825  17.819  0.00  0.00    +0.000 A 
ATOM     15  C   UNL     1      -0.452  10.573  18.995  0.00  0.00    +0.000 A 
ENDBRANCH   4   6
ENDBRANCH   1   2
BRANCH   1  16
ATOM     16  S   UNL     1       1.300   5.382  19.780  0.00  0.00    +0.000 S 
BRANCH  16  21
ATOM     17  N   UNL     1       3.388   3.553  19.997  0.00  0.00    +0.000 N 
ATOM     18  N   UNL     1       3.725   2.527  20.823  0.00  0.00    +0.000 NA
ATOM     19  N   UNL     1       2.865   2.553  21.831  0.00  0.00    +0.000 NA
ATOM     20  N   UNL     1       1.948   3.555  21.671  0.00  0.00    +0.000 NA
ATOM     21  C   UNL     1       2.258   4.155  20.547  0.00  0.00    +0.000 A 
BRANCH  17  26
ATOM     22  C   UNL     1       7.016   4.758  15.697  0.00  0.00    +0.000 C 
ATOM     23  C   UNL     1       6.047   4.485  16.808  0.00  0.00    +0.000 A 
ATOM     24  C   UNL     1       6.339   4.846  18.120  0.00  0.00    +0.000 A 
ATOM     25  C   UNL     1       5.441   4.553  19.151  0.00  0.00    +0.000 A 
ATOM     26  C   UNL     1       4.218   3.910  18.892  0.00  0.00    +0.000 A 
ATOM     27  C   UNL     1       3.891   3.570  17.560  0.00  0.00    +0.000 A 
ATOM     28  C   UNL     1       2.578   2.994  17.090  0.00  0.00    +0.000 C 
ATOM     29  C   UNL     1       4.827   3.853  16.541  0.00  0.00    +0.000 A 
ENDBRANCH  17  26
ENDBRANCH  16  21
ENDBRANCH   1  16
TORSDOF 5
ENDMDL
MODEL 3
REMARK VINA RESULT:      -8.2      2.496      9.507
REMARK  Name = 
REMARK  7 active torsions:
REMARK  status: ('A' for Active; 'I' for Inactive)
REMARK    1  A    between atoms: C_1  and  C_2
REMARK    2  A    between atoms: C_5  and  N_6
REMARK    3  A    between atoms: C_10  and  S_11
REMARK    4  A    between atoms: S_11  and  C_12
REMARK    5  A    between atoms: C_12  and  C_13
REMARK    6  A    between atoms: N_15  and  C_16
REMARK    7  A    between atoms: C_26  and  C_27
REMARK                            x       y       z     vdW  Elec       q    Type
REMARK                         _______ _______ _______ _____ _____    ______ ____
ROOT
ATOM      1  C   UNL     1       2.290   7.208  19.324  0.00  0.00    +0.000 C 
ENDROOT
BRANCH   1   2
ATOM      2  C   UNL     1       1.969   8.479  18.548  0.00  0.00    +0.000 C 
ATOM      3  O   UNL     1       2.385   8.673  17.409  0.00  0.00    +0.000 OA
ATOM      4  N   UNL     1       1.151   9.371  19.210  0.00  0.00    +0.000 N 
ATOM      5  H   UNL     1       0.912   9.196  20.177  0.00  0.00    +0.000 HD
BRANCH   4   6
ATOM      6  C   UNL     1       0.802  10.675  18.656  0.00  0.00    +0.000 C 
ATOM      7  C   UNL     1       1.251  11.814  19.587  0.00  0.00    +0.000 C 
ATOM      8  C   UNL     1       0.315  11.962  20.785  0.00  0.00    +0.000 C 
ATOM      9  C   UNL     1      -1.099  12.301  20.324  0.00  0.00    +0.000 C 
ATOM     10  C   UNL     1      -1.585  11.422  19.199  0.00  0.00    +0.000 A 
ATOM     11  C   UNL     1      -2.960  11.379  18.921  0.00  0.00    +0.000 A 
ATOM     12  C   UNL     1      -3.448  10.624  17.853  0.00  0.00    +0.000 A 
ATOM     13  C   UNL     1      -2.564   9.919  17.042  0.00  0.00    +0.000 A 
ATOM     14  C   UNL     1      -1.197   9.960  17.301  0.00  0.00    +0.000 A 
ATOM     15  C   UNL     1      -0.690  10.707  18.380  0.00  0.00    +0.000 A 
ENDBRANCH   4   6
ENDBRANCH   1   2
BRANCH   1  16
ATOM     16  S   UNL     1       2.363   5.807  18.167  0.00  0.00    +0.000 S 
BRANCH  16  21
ATOM     17  N   UNL     1       4.438   3.996  18.579  0.00  0.00    +0.000 N 
ATOM     18  N   UNL     1       4.757   3.047  19.498  0.00  0.00    +0.000 NA
ATOM     19  N   UNL     1       3.882   3.166  20.486  0.00  0.00    +0.000 NA
ATOM     20  N   UNL     1       2.973   4.154  20.223  0.00  0.00    +0.000 NA
ATOM     21  C   UNL     1       3.303   4.649  19.055  0.00  0.00    +0.000 A 
BRANCH  17  26
ATOM     22  C   UNL     1       7.549   5.203  13.891  0.00  0.00    +0.000 C 
ATOM     23  C   UNL     1       6.769   4.853  15.123  0.00  0.00    +0.000 A 
ATOM     24  C   UNL     1       5.654   4.021  15.053  0.00  0.00    +0.000 A 
ATOM     25  C   UNL     1       4.916   3.732  16.205  0.00  0.00    +0.000 A 
ATOM     26  C   UNL     1       5.286   4.250  17.459  0.00  0.00    +0.000 A 
ATOM     27  C   UNL     1       6.436   5.065  17.551  0.00  0.00    +0.000 A 
ATOM     28  C   UNL     1       7.044   5.599  18.824  0.00  0.00    +0.000 C 
ATOM     29  C   UNL     1       7.149   5.365  16.369  0.00  0.00    +0.000 A 
ENDBRANCH  17  26
ENDBRANCH  16  21
ENDBRANCH   1  16
TORSDOF 5
ENDMDL
MODEL 4
REMARK VINA RESULT:      -8.1      2.209      3.203
REMARK  Name = 
REMARK  7 active torsions:
REMARK  status: ('A' for Active; 'I' for Inactive)
REMARK    1  A    between atoms: C_1  and  C_2
REMARK    2  A    between atoms: C_5  and  N_6
REMARK    3  A    between atoms: C_10  and  S_11
REMARK    4  A    between atoms: S_11  and  C_12
REMARK    5  A    between atoms: C_12  and  C_13
REMARK    6  A    between atoms: N_15  and  C_16
REMARK    7  A    between atoms: C_26  and  C_27
REMARK                            x       y       z     vdW  Elec       q    Type
REMARK                         _______ _______ _______ _____ _____    ______ ____
ROOT
ATOM      1  C   UNL     1       1.595   8.965  17.844  0.00  0.00    +0.000 C 
ENDROOT
BRANCH   1   2
ATOM      2  C   UNL     1       2.228   7.911  18.742  0.00  0.00    +0.000 C 
ATOM      3  O   UNL     1       2.126   7.947  19.965  0.00  0.00    +0.000 OA
ATOM      4  N   UNL     1       2.891   6.903  18.075  0.00  0.00    +0.000 N 
ATOM      5  H   UNL     1       3.016   6.974  17.074  0.00  0.00    +0.000 HD
BRANCH   4   6
ATOM      6  C   UNL     1       3.625   5.851  18.771  0.00  0.00    +0.000 C 
ATOM      7  C   UNL     1       5.018   5.642  18.153  0.00  0.00    +0.000 C 
ATOM      8  C   UNL     1       4.941   4.858  16.846  0.00  0.00    +0.000 C 
ATOM      9  C   UNL     1       4.351   3.471  17.084  0.00  0.00    +0.000 C 
ATOM     10  C   UNL     1       3.100   3.493  17.927  0.00  0.00    +0.000 A 
ATOM     11  C   UNL     1       2.267   2.363  17.929  0.00  0.00    +0.000 A 
ATOM     12  C   UNL     1       1.131   2.318  18.738  0.00  0.00    +0.000 A 
ATOM     13  C   UNL     1       0.826   3.393  19.566  0.00  0.00    +0.000 A 
ATOM     14  C   UNL     1       1.648   4.516  19.580  0.00  0.00    +0.000 A 
ATOM     15  C   UNL     1       2.791   4.583  18.762  0.00  0.00    +0.000 A 
ENDBRANCH   4   6
ENDBRANCH   1   2
BRANCH   1  16
ATOM     16  S   UNL     1       1.150  10.414  18.849  0.00  0.00    +0.000 S 
BRANCH  16  21
ATOM     17  N   UNL     1      -1.481  11.169  19.361  0.00  0.00    +0.000 N 
ATOM     18  N   UNL     1      -2.703  10.935  18.814  0.00  0.00    +0.000 NA
ATOM     19  N   UNL     1      -2.493  10.289  17.676  0.00  0.00    +0.000 NA
ATOM     20  N   UNL     1      -1.159  10.062  17.477  0.00  0.00    +0.000 NA
ATOM     21  C   UNL     1      -0.544  10.586  18.511  0.00  0.00    +0.000 A 
BRANCH  17  26
ATOM     22  C   UNL     1      -1.290  14.596  23.979  0.00  0.00    +0.000 C 
ATOM     23  C   UNL     1      -1.292  13.707  22.771  0.00  0.00    +0.000 A 
ATOM     24  C   UNL     1      -1.552  14.220  21.504  0.00  0.00    +0.000 A 
ATOM     25  C   UNL     1      -1.586  13.373  20.392  0.00  0.00    +0.000 A 
ATOM     26  C   UNL     1      -1.339  11.994  20.516  0.00  0.00    +0.000 A 
ATOM     27  C   UNL     1      -1.036  11.465  21.791  0.00  0.00    +0.000 A 
ATOM     28  C   UNL     1      -0.626  10.044  22.086  0.00  0.00    +0.000 C 
ATOM     29  C   UNL     1      -1.035  12.337  22.903  0.00  0.00    +0.000 A 
ENDBRANCH  17  26
ENDBRANCH  16  21
ENDBRANCH   1  16
TORSDOF 5
ENDMDL
MODEL 5
REMARK VINA RESULT:      -8.0      0.700      1.505
REMARK  Name = 
REMARK  7 active torsions:
REMARK  status: ('A' for Active; 'I' for Inactive)
REMARK    1  A    between atoms: C_1  and  C_2
REMARK    2  A    between atoms: C_5  and  N_6
REMARK    3  A    between atoms: C_10  and  S_11
REMARK    4  A    between atoms: S_11  and  C_12
REMARK    5  A    between atoms: C_12  and  C_13
REMARK    6  A    between atoms: N_15  and  C_16
REMARK    7  A    between atoms: C_26  and  C_27
REMARK                            x       y       z     vdW  Elec       q    Type
REMARK                         _______ _______ _______ _____ _____    ______ ____
ROOT
ATOM      1  C   UNL     1       1.115   9.117  19.020  0.00  0.00    +0.000 C 
ENDROOT
BRANCH   1   2
ATOM      2  C   UNL     1       1.908   7.976  19.643  0.00  0.00    +0.000 C 
ATOM      3  O   UNL     1       1.980   7.816  20.858  0.00  0.00    +0.000 OA
ATOM      4  N   UNL     1       2.508   7.125  18.738  0.00  0.00    +0.000 N 
ATOM      5  H   UNL     1       2.487   7.358  17.754  0.00  0.00    +0.000 HD
BRANCH   4   6
ATOM      6  C   UNL     1       3.372   6.024  19.150  0.00  0.00    +0.000 C 
ATOM      7  C   UNL     1       4.656   5.978  18.304  0.00  0.00    +0.000 C 
ATOM      8  C   UNL     1       4.397   5.387  16.921  0.00  0.00    +0.000 C 
ATOM      9  C   UNL     1       3.892   3.951  17.034  0.00  0.00    +0.000 C 
ATOM     10  C   UNL     1       2.789   3.788  18.050  0.00  0.00    +0.000 A 
ATOM     11  C   UNL     1       1.999   2.627  18.009  0.00  0.00    +0.000 A 
ATOM     12  C   UNL     1       1.006   2.408  18.964  0.00  0.00    +0.000 A 
ATOM     13  C   UNL     1       0.804   3.336  19.981  0.00  0.00    +0.000 A 
ATOM     14  C   UNL     1       1.585   4.486  20.038  0.00  0.00    +0.000 A 
ATOM     15  C   UNL     1       2.584   4.729  19.077  0.00  0.00    +0.000 A 
ENDBRANCH   4   6
ENDBRANCH   1   2
BRANCH   1  16
ATOM     16  S   UNL     1       0.490  10.198  20.342  0.00  0.00    +0.000 S 
BRANCH  16  21
ATOM     17  N   UNL     1      -0.280  12.434  18.870  0.00  0.00    +0.000 N 
ATOM     18  N   UNL     1       0.322  13.543  18.365  0.00  0.00    +0.000 NA
ATOM     19  N   UNL     1       1.555  13.561  18.851  0.00  0.00    +0.000 NA
ATOM     20  N   UNL     1       1.789  12.470  19.642  0.00  0.00    +0.000 NA
ATOM     21  C   UNL     1       0.676  11.776  19.641  0.00  0.00    +0.000 A 
BRANCH  17  26
ATOM     22  C   UNL     1      -5.819  11.101  18.067  0.00  0.00    +0.000 C 
ATOM     23  C   UNL     1      -4.385  11.493  18.259  0.00  0.00    +0.000 A 
ATOM     24  C   UNL     1      -3.428  11.211  17.288  0.00  0.00    +0.000 A 
ATOM     25  C   UNL     1      -2.087  11.551  17.498  0.00  0.00    +0.000 A 
ATOM     26  C   UNL     1      -1.674  12.200  18.674  0.00  0.00    +0.000 A 
ATOM     27  C   UNL     1      -2.640  12.526  19.652  0.00  0.00    +0.000 A 
ATOM     28  C   UNL     1      -2.395  13.326  20.908  0.00  0.00    +0.000 C 
ATOM     29  C   UNL     1      -3.983  12.148  19.429  0.00  0.00    +0.000 A 
ENDBRANCH  17  26
ENDBRANCH  16  21
ENDBRANCH   1  16
TORSDOF 5
ENDMDL
MODEL 6
REMARK VINA RESULT:      -8.0      1.760      2.524
REMARK  Name = 
REMARK  7 active torsions:
REMARK  status: ('A' for Active; 'I' for Inactive)
REMARK    1  A    between atoms: C_1  and  C_2
REMARK    2  A    between atoms: C_5  and  N_6
REMARK    3  A    between atoms: C_10  and  S_11
REMARK    4  A    between atoms: S_11  and  C_12
REMARK    5  A    between atoms: C_12  and  C_13
REMARK    6  A    between atoms: N_15  and  C_16
REMARK    7  A    between atoms: C_26  and  C_27
REMARK                            x       y       z     vdW  Elec       q    Type
REMARK                         _______ _______ _______ _____ _____    ______ ____
ROOT
ATOM      1  C   UNL     1       1.417   9.081  18.348  0.00  0.00    +0.000 C 
ENDROOT
BRANCH   1   2
ATOM      2  C   UNL     1       2.110   7.964  19.118  0.00  0.00    +0.000 C 
ATOM      3  O   UNL     1       2.073   7.892  20.343  0.00  0.00    +0.000 OA
ATOM      4  N   UNL     1       2.750   7.029  18.331  0.00  0.00    +0.000 N 
ATOM      5  H   UNL     1       2.821   7.188  17.335  0.00  0.00    +0.000 HD
BRANCH   4   6
ATOM      6  C   UNL     1       3.534   5.934  18.894  0.00  0.00    +0.000 C 
ATOM      7  C   UNL     1       4.877   5.778  18.162  0.00  0.00    +0.000 C 
ATOM      8  C   UNL     1       4.704   5.089  16.810  0.00  0.00    +0.000 C 
ATOM      9  C   UNL     1       4.134   3.686  16.990  0.00  0.00    +0.000 C 
ATOM     10  C   UNL     1       2.949   3.640  17.922  0.00  0.00    +0.000 A 
ATOM     11  C   UNL     1       2.118   2.508  17.903  0.00  0.00    +0.000 A 
ATOM     12  C   UNL     1       1.045   2.398  18.788  0.00  0.00    +0.000 A 
ATOM     13  C   UNL     1       0.801   3.410  19.712  0.00  0.00    +0.000 A 
ATOM     14  C   UNL     1       1.622   4.533  19.747  0.00  0.00    +0.000 A 
ATOM     15  C   UNL     1       2.702   4.665  18.855  0.00  0.00    +0.000 A 
ENDBRANCH   4   6
ENDBRANCH   1   2
BRANCH   1  16
ATOM     16  S   UNL     1       0.151   9.838  19.412  0.00  0.00    +0.000 S 
BRANCH  16  21
ATOM     17  N   UNL     1      -0.123  12.554  19.963  0.00  0.00    +0.000 N 
ATOM     18  N   UNL     1       0.410  13.717  19.503  0.00  0.00    +0.000 NA
ATOM     19  N   UNL     1       1.398  13.385  18.685  0.00  0.00    +0.000 NA
ATOM     20  N   UNL     1       1.507  12.026  18.570  0.00  0.00    +0.000 NA
ATOM     21  C   UNL     1       0.571  11.521  19.337  0.00  0.00    +0.000 A 
BRANCH  17  26
ATOM     22  C   UNL     1      -3.967  12.922  24.228  0.00  0.00    +0.000 C 
ATOM     23  C   UNL     1      -2.968  12.778  23.119  0.00  0.00    +0.000 A 
ATOM     24  C   UNL     1      -1.601  12.808  23.377  0.00  0.00    +0.000 A 
ATOM     25  C   UNL     1      -0.681  12.708  22.328  0.00  0.00    +0.000 A 
ATOM     26  C   UNL     1      -1.107  12.554  20.997  0.00  0.00    +0.000 A 
ATOM     27  C   UNL     1      -2.491  12.485  20.724  0.00  0.00    +0.000 A 
ATOM     28  C   UNL     1      -3.116  12.199  19.381  0.00  0.00    +0.000 C 
ATOM     29  C   UNL     1      -3.400  12.616  21.797  0.00  0.00    +0.000 A 
ENDBRANCH  17  26
ENDBRANCH  16  21
ENDBRANCH   1  16
TORSDOF 5
ENDMDL
MODEL 7
REMARK VINA RESULT:      -7.9      1.176      2.616
REMARK  Name = 
REMARK  7 active torsions:
REMARK  status: ('A' for Active; 'I' for Inactive)
REMARK    1  A    between atoms: C_1  and  C_2
REMARK    2  A    between atoms: C_5  and  N_6
REMARK    3  A    between atoms: C_10  and  S_11
REMARK    4  A    between atoms: S_11  and  C_12
REMARK    5  A    between atoms: C_12  and  C_13
REMARK    6  A    between atoms: N_15  and  C_16
REMARK    7  A    between atoms: C_26  and  C_27
REMARK                            x       y       z     vdW  Elec       q    Type
REMARK                         _______ _______ _______ _____ _____    ______ ____
ROOT
ATOM      1  C   UNL     1       1.631   9.057  20.286  0.00  0.00    +0.000 C 
ENDROOT
BRANCH   1   2
ATOM      2  C   UNL     1       1.861   8.234  19.025  0.00  0.00    +0.000 C 
ATOM      3  O   UNL     1       1.560   8.648  17.909  0.00  0.00    +0.000 OA
ATOM      4  N   UNL     1       2.460   7.009  19.233  0.00  0.00    +0.000 N 
ATOM      5  H   UNL     1       2.605   6.686  20.181  0.00  0.00    +0.000 HD
BRANCH   4   6
ATOM      6  C   UNL     1       2.686   6.053  18.155  0.00  0.00    +0.000 C 
ATOM      7  C   UNL     1       2.002   4.708  18.452  0.00  0.00    +0.000 C 
ATOM      8  C   UNL     1       2.788   3.890  19.474  0.00  0.00    +0.000 C 
ATOM      9  C   UNL     1       4.183   3.568  18.947  0.00  0.00    +0.000 C 
ATOM     10  C   UNL     1       4.888   4.766  18.360  0.00  0.00    +0.000 A 
ATOM     11  C   UNL     1       6.278   4.704  18.170  0.00  0.00    +0.000 A 
ATOM     12  C   UNL     1       6.963   5.766  17.578  0.00  0.00    +0.000 A 
ATOM     13  C   UNL     1       6.264   6.892  17.154  0.00  0.00    +0.000 A 
ATOM     14  C   UNL     1       4.885   6.962  17.330  0.00  0.00    +0.000 A 
ATOM     15  C   UNL     1       4.180   5.906  17.935  0.00  0.00    +0.000 A 
ENDBRANCH   4   6
ENDBRANCH   1   2
BRANCH   1  16
ATOM     16  S   UNL     1      -0.087   9.651  20.303  0.00  0.00    +0.000 S 
BRANCH  16  21
ATOM     17  N   UNL     1      -0.921  11.884  18.862  0.00  0.00    +0.000 N 
ATOM     18  N   UNL     1      -0.343  12.996  18.336  0.00  0.00    +0.000 NA
ATOM     19  N   UNL     1       0.906  13.020  18.778  0.00  0.00    +0.000 NA
ATOM     20  N   UNL     1       1.174  11.929  19.559  0.00  0.00    +0.000 NA
ATOM     21  C   UNL     1       0.065  11.230  19.598  0.00  0.00    +0.000 A 
BRANCH  17  26
ATOM     22  C   UNL     1      -6.605  11.300  18.186  0.00  0.00    +0.000 C 
ATOM     23  C   UNL     1      -5.124  11.412  18.390  0.00  0.00    +0.000 A 
ATOM     24  C   UNL     1      -4.597  12.219  19.394  0.00  0.00    +0.000 A 
ATOM     25  C   UNL     1      -3.212  12.341  19.548  0.00  0.00    +0.000 A 
ATOM     26  C   UNL     1      -2.320  11.643  18.716  0.00  0.00    +0.000 A 
ATOM     27  C   UNL     1      -2.841  10.791  17.717  0.00  0.00    +0.000 A 
ATOM     28  C   UNL     1      -2.037   9.878  16.824  0.00  0.00    +0.000 C 
ATOM     29  C   UNL     1      -4.243  10.706  17.563  0.00  0.00    +0.000 A 
ENDBRANCH  17  26
ENDBRANCH  16  21
ENDBRANCH   1  16
TORSDOF 5
ENDMDL
MODEL 8
REMARK VINA RESULT:      -7.9      2.546      2.899
REMARK  Name = 
REMARK  7 active torsions:
REMARK  status: ('A' for Active; 'I' for Inactive)
REMARK    1  A    between atoms: C_1  and  C_2
REMARK    2  A    between atoms: C_5  and  N_6
REMARK    3  A    between atoms: C_10  and  S_11
REMARK    4  A    between atoms: S_11  and  C_12
REMARK    5  A    between atoms: C_12  and  C_13
REMARK    6  A    between atoms: N_15  and  C_16
REMARK    7  A    between atoms: C_26  and  C_27
REMARK                            x       y       z     vdW  Elec       q    Type
REMARK                         _______ _______ _______ _____ _____    ______ ____
ROOT
ATOM      1  C   UNL     1       1.217   9.134  17.831  0.00  0.00    +0.000 C 
ENDROOT
BRANCH   1   2
ATOM      2  C   UNL     1       1.968   8.126  18.691  0.00  0.00    +0.000 C 
ATOM      3  O   UNL     1       1.961   8.179  19.917  0.00  0.00    +0.000 OA
ATOM      4  N   UNL     1       2.625   7.138  17.986  0.00  0.00    +0.000 N 
ATOM      5  H   UNL     1       2.667   7.198  16.977  0.00  0.00    +0.000 HD
BRANCH   4   6
ATOM      6  C   UNL     1       3.460   6.134  18.637  0.00  0.00    +0.000 C 
ATOM      7  C   UNL     1       4.835   6.029  17.956  0.00  0.00    +0.000 C 
ATOM      8  C   UNL     1       4.755   5.254  16.643  0.00  0.00    +0.000 C 
ATOM      9  C   UNL     1       4.274   3.827  16.889  0.00  0.00    +0.000 C 
ATOM     10  C   UNL     1       3.064   3.753  17.786  0.00  0.00    +0.000 A 
ATOM     11  C   UNL     1       2.312   2.568  17.811  0.00  0.00    +0.000 A 
ATOM     12  C   UNL     1       1.219   2.435  18.668  0.00  0.00    +0.000 A 
ATOM     13  C   UNL     1       0.877   3.479  19.522  0.00  0.00    +0.000 A 
ATOM     14  C   UNL     1       1.619   4.657  19.514  0.00  0.00    +0.000 A 
ATOM     15  C   UNL     1       2.717   4.811  18.648  0.00  0.00    +0.000 A 
ENDBRANCH   4   6
ENDBRANCH   1   2
BRANCH   1  16
ATOM     16  S   UNL     1       0.038  10.044  18.874  0.00  0.00    +0.000 S 
BRANCH  16  21
ATOM     17  N   UNL     1       0.586  12.366  20.310  0.00  0.00    +0.000 N 
ATOM     18  N   UNL     1       1.492  13.378  20.250  0.00  0.00    +0.000 NA
ATOM     19  N   UNL     1       2.388  13.032  19.337  0.00  0.00    +0.000 NA
ATOM     20  N   UNL     1       2.074  11.827  18.770  0.00  0.00    +0.000 NA
ATOM     21  C   UNL     1       0.969  11.429  19.353  0.00  0.00    +0.000 A 
BRANCH  17  26
ATOM     22  C   UNL     1      -3.769  12.261  24.070  0.00  0.00    +0.000 C 
ATOM     23  C   UNL     1      -2.606  12.309  23.124  0.00  0.00    +0.000 A 
ATOM     24  C   UNL     1      -2.454  13.363  22.227  0.00  0.00    +0.000 A 
ATOM     25  C   UNL     1      -1.383  13.375  21.327  0.00  0.00    +0.000 A 
ATOM     26  C   UNL     1      -0.427  12.345  21.315  0.00  0.00    +0.000 A 
ATOM     27  C   UNL     1      -0.548  11.288  22.245  0.00  0.00    +0.000 A 
ATOM     28  C   UNL     1       0.448  10.174  22.454  0.00  0.00    +0.000 C 
ATOM     29  C   UNL     1      -1.653  11.284  23.125  0.00  0.00    +0.000 A 
ENDBRANCH  17  26
ENDBRANCH  16  21
ENDBRANCH   1  16
TORSDOF 5
ENDMDL
MODEL 9
REMARK VINA RESULT:      -7.9      1.987      3.235
REMARK  Name = 
REMARK  7 active torsions:
REMARK  status: ('A' for Active; 'I' for Inactive)
REMARK    1  A    between atoms: C_1  and  C_2
REMARK    2  A    between atoms: C_5  and  N_6
REMARK    3  A    between atoms: C_10  and  S_11
REMARK    4  A    between atoms: S_11  and  C_12
REMARK    5  A    between atoms: C_12  and  C_13
REMARK    6  A    between atoms: N_15  and  C_16
REMARK    7  A    between atoms: C_26  and  C_27
REMARK                            x       y       z     vdW  Elec       q    Type
REMARK                         _______ _______ _______ _____ _____    ______ ____
ROOT
ATOM      1  C   UNL     1       1.454   8.978  18.135  0.00  0.00    +0.000 C 
ENDROOT
BRANCH   1   2
ATOM      2  C   UNL     1       2.151   7.900  18.954  0.00  0.00    +0.000 C 
ATOM      3  O   UNL     1       2.119   7.888  20.181  0.00  0.00    +0.000 OA
ATOM      4  N   UNL     1       2.789   6.929  18.211  0.00  0.00    +0.000 N 
ATOM      5  H   UNL     1       2.855   7.040  17.208  0.00  0.00    +0.000 HD
BRANCH   4   6
ATOM      6  C   UNL     1       3.575   5.863  18.823  0.00  0.00    +0.000 C 
ATOM      7  C   UNL     1       4.939   5.708  18.129  0.00  0.00    +0.000 C 
ATOM      8  C   UNL     1       4.810   4.981  16.793  0.00  0.00    +0.000 C 
ATOM      9  C   UNL     1       4.258   3.573  16.997  0.00  0.00    +0.000 C 
ATOM     10  C   UNL     1       3.051   3.534  17.901  0.00  0.00    +0.000 A 
ATOM     11  C   UNL     1       2.239   2.388  17.893  0.00  0.00    +0.000 A 
ATOM     12  C   UNL     1       1.145   2.285  18.754  0.00  0.00    +0.000 A 
ATOM     13  C   UNL     1       0.863   3.317  19.643  0.00  0.00    +0.000 A 
ATOM     14  C   UNL     1       1.665   4.454  19.667  0.00  0.00    +0.000 A 
ATOM     15  C   UNL     1       2.764   4.580  18.798  0.00  0.00    +0.000 A 
ENDBRANCH   4   6
ENDBRANCH   1   2
BRANCH   1  16
ATOM     16  S   UNL     1       0.526  10.070  19.255  0.00  0.00    +0.000 S 
BRANCH  16  21
ATOM     17  N   UNL     1      -1.482  11.779  18.359  0.00  0.00    +0.000 N 
ATOM     18  N   UNL     1      -2.565  11.693  17.542  0.00  0.00    +0.000 NA
ATOM     19  N   UNL     1      -2.507  10.504  16.958  0.00  0.00    +0.000 NA
ATOM     20  N   UNL     1      -1.424   9.792  17.397  0.00  0.00    +0.000 NA
ATOM     21  C   UNL     1      -0.808  10.563  18.261  0.00  0.00    +0.000 A 
BRANCH  17  26
ATOM     22  C   UNL     1      -0.294  16.903  20.692  0.00  0.00    +0.000 C 
ATOM     23  C   UNL     1      -0.571  15.547  20.113  0.00  0.00    +0.000 A 
ATOM     24  C   UNL     1       0.061  15.123  18.947  0.00  0.00    +0.000 A 
ATOM     25  C   UNL     1      -0.234  13.870  18.400  0.00  0.00    +0.000 A 
ATOM     26  C   UNL     1      -1.152  13.002  19.017  0.00  0.00    +0.000 A 
ATOM     27  C   UNL     1      -1.773  13.404  20.220  0.00  0.00    +0.000 A 
ATOM     28  C   UNL     1      -2.682  12.556  21.075  0.00  0.00    +0.000 C 
ATOM     29  C   UNL     1      -1.479  14.685  20.738  0.00  0.00    +0.000 A 
ENDBRANCH  17  26
ENDBRANCH  16  21
ENDBRANCH   1  16
TORSDOF 5
ENDMDL
