MODEL 1
REMARK VINA RESULT:      -8.6      0.000      0.000
REMARK  Name = 
REMARK  8 active torsions:
REMARK  status: ('A' for Active; 'I' for Inactive)
REMARK    1  A    between atoms: C_2  and  O_3
REMARK    2  A    between atoms: C_2  and  C_4
REMARK    3  A    between atoms: N_8  and  C_9
REMARK    4  A    between atoms: C_12  and  S_13
REMARK    5  A    between atoms: S_13  and  N_16
REMARK    6  A    between atoms: N_16  and  C_17
REMARK    7  A    between atoms: C_21  and  O_22
REMARK    8  A    between atoms: O_22  and  C_23
REMARK                            x       y       z     vdW  Elec       q    Type
REMARK                         _______ _______ _______ _____ _____    ______ ____
ROOT
ATOM      1  C   UNL     1       2.578   7.083  18.596  0.00  0.00    +0.000 A 
ATOM      2  C   UNL     1       2.217   7.086  19.951  0.00  0.00    +0.000 A 
ATOM      3  C   UNL     1       1.577   8.192  20.528  0.00  0.00    +0.000 A 
ATOM      4  C   UNL     1       1.278   9.307  19.744  0.00  0.00    +0.000 A 
ATOM      5  C   UNL     1       1.603   9.314  18.388  0.00  0.00    +0.000 A 
ATOM      6  C   UNL     1       2.260   8.213  17.825  0.00  0.00    +0.000 A 
ENDROOT
BRANCH   1  11
ATOM      7  C   UNL     1       3.698   3.751  17.493  0.00  0.00    +0.000 C 
ATOM      8  C   UNL     1       4.727   4.613  16.783  0.00  0.00    +0.000 C 
ATOM      9  C   UNL     1       4.458   6.000  17.322  0.00  0.00    +0.000 C 
ATOM     10  O   UNL     1       5.241   6.927  17.209  0.00  0.00    +0.000 OA
ATOM     11  N   UNL     1       3.230   5.971  18.002  0.00  0.00    +0.000 N 
ATOM     12  C   UNL     1       2.569   4.696  17.821  0.00  0.00    +0.000 C 
BRANCH   7  14
ATOM     13  O   UNL     1       5.220   3.525  19.335  0.00  0.00    +0.000 OA
ATOM     14  C   UNL     1       4.246   3.090  18.737  0.00  0.00    +0.000 C 
BRANCH  14  15
ATOM     15  O   UNL     1       3.603   1.978  19.147  0.00  0.00    +0.000 OA
ATOM     16  H   UNL     1       3.619   1.201  18.553  0.00  0.00    +0.000 HD
ENDBRANCH  14  15
ENDBRANCH   7  14
ENDBRANCH   1  11
BRANCH   4  17
ATOM     17  S   UNL     1       0.385  10.686  20.436  0.00  0.00    +0.000 S 
ATOM     18  O   UNL     1      -0.786  10.145  21.093  0.00  0.00    +0.000 OA
ATOM     19  O   UNL     1       1.332  11.515  21.149  0.00  0.00    +0.000 OA
BRANCH  17  20
ATOM     20  N   UNL     1      -0.176  11.511  19.089  0.00  0.00    +0.000 N 
ATOM     21  H   UNL     1       0.326  12.362  18.853  0.00  0.00    +0.000 HD
BRANCH  20  22
ATOM     22  C   UNL     1      -1.518  11.348  18.662  0.00  0.00    +0.000 A 
ATOM     23  C   UNL     1      -2.523  12.072  19.293  0.00  0.00    +0.000 A 
ATOM     24  C   UNL     1      -3.853  11.898  18.896  0.00  0.00    +0.000 A 
ATOM     25  C   UNL     1      -4.162  11.032  17.843  0.00  0.00    +0.000 A 
ATOM     26  C   UNL     1      -3.145  10.360  17.167  0.00  0.00    +0.000 A 
ATOM     27  C   UNL     1      -1.824  10.479  17.616  0.00  0.00    +0.000 A 
BRANCH  26  28
ATOM     28  O   UNL     1      -3.313   9.523  16.106  0.00  0.00    +0.000 OA
BRANCH  28  29
ATOM     29  C   UNL     1      -3.287  10.065  14.790  0.00  0.00    +0.000 C 
ATOM     30  F   UNL     1      -2.265   9.629  14.026  0.00  0.00    +0.000 F 
ATOM     31  F   UNL     1      -4.440   9.731  14.169  0.00  0.00    +0.000 F 
ATOM     32  F   UNL     1      -3.227  11.413  14.871  0.00  0.00    +0.000 F 
ENDBRANCH  28  29
ENDBRANCH  26  28
ENDBRANCH  20  22
ENDBRANCH  17  20
ENDBRANCH   4  17
TORSDOF 8
ENDMDL
MODEL 2
REMARK VINA RESULT:      -8.5      4.649      8.824
REMARK  Name = 
REMARK  8 active torsions:
REMARK  status: ('A' for Active; 'I' for Inactive)
REMARK    1  A    between atoms: C_2  and  O_3
REMARK    2  A    between atoms: C_2  and  C_4
REMARK    3  A    between atoms: N_8  and  C_9
REMARK    4  A    between atoms: C_12  and  S_13
REMARK    5  A    between atoms: S_13  and  N_16
REMARK    6  A    between atoms: N_16  and  C_17
REMARK    7  A    between atoms: C_21  and  O_22
REMARK    8  A    between atoms: O_22  and  C_23
REMARK                            x       y       z     vdW  Elec       q    Type
REMARK                         _______ _______ _______ _____ _____    ______ ____
ROOT
ATOM      1  C   UNL     1       1.697   7.333  20.105  0.00  0.00    +0.000 A 
ATOM      2  C   UNL     1       1.572   6.145  20.838  0.00  0.00    +0.000 A 
ATOM      3  C   UNL     1       1.960   4.912  20.293  0.00  0.00    +0.000 A 
ATOM      4  C   UNL     1       2.495   4.862  19.005  0.00  0.00    +0.000 A 
ATOM      5  C   UNL     1       2.654   6.037  18.269  0.00  0.00    +0.000 A 
ATOM      6  C   UNL     1       2.244   7.259  18.815  0.00  0.00    +0.000 A 
ENDROOT
BRANCH   1  11
ATOM      7  C   UNL     1       0.729  10.171  22.246  0.00  0.00    +0.000 C 
ATOM      8  C   UNL     1       0.596  10.825  20.882  0.00  0.00    +0.000 C 
ATOM      9  C   UNL     1       0.802   9.678  19.919  0.00  0.00    +0.000 C 
ATOM     10  O   UNL     1       0.503   9.731  18.738  0.00  0.00    +0.000 OA
ATOM     11  N   UNL     1       1.303   8.585  20.645  0.00  0.00    +0.000 N 
ATOM     12  C   UNL     1       1.605   8.967  22.008  0.00  0.00    +0.000 C 
BRANCH   7  14
ATOM     13  O   UNL     1      -1.391  10.602  23.285  0.00  0.00    +0.000 OA
ATOM     14  C   UNL     1      -0.604   9.778  22.839  0.00  0.00    +0.000 C 
BRANCH  14  15
ATOM     15  O   UNL     1      -0.877   8.458  22.859  0.00  0.00    +0.000 OA
ATOM     16  H   UNL     1      -0.128   7.844  23.006  0.00  0.00    +0.000 HD
ENDBRANCH  14  15
ENDBRANCH   7  14
ENDBRANCH   1  11
BRANCH   4  17
ATOM     17  S   UNL     1       3.078   3.320  18.328  0.00  0.00    +0.000 S 
ATOM     18  O   UNL     1       2.371   2.261  19.015  0.00  0.00    +0.000 OA
ATOM     19  O   UNL     1       3.052   3.430  16.885  0.00  0.00    +0.000 OA
BRANCH  17  20
ATOM     20  N   UNL     1       4.669   3.234  18.851  0.00  0.00    +0.000 N 
ATOM     21  H   UNL     1       4.815   2.762  19.739  0.00  0.00    +0.000 HD
BRANCH  20  22
ATOM     22  C   UNL     1       5.621   4.181  18.395  0.00  0.00    +0.000 A 
ATOM     23  C   UNL     1       6.009   5.214  19.241  0.00  0.00    +0.000 A 
ATOM     24  C   UNL     1       6.927   6.167  18.790  0.00  0.00    +0.000 A 
ATOM     25  C   UNL     1       7.482   6.055  17.513  0.00  0.00    +0.000 A 
ATOM     26  C   UNL     1       7.144   4.980  16.693  0.00  0.00    +0.000 A 
ATOM     27  C   UNL     1       6.168   4.070  17.118  0.00  0.00    +0.000 A 
BRANCH  26  28
ATOM     28  O   UNL     1       7.643   4.740  15.449  0.00  0.00    +0.000 OA
BRANCH  28  29
ATOM     29  C   UNL     1       6.762   4.787  14.331  0.00  0.00    +0.000 C 
ATOM     30  F   UNL     1       6.202   3.603  14.011  0.00  0.00    +0.000 F 
ATOM     31  F   UNL     1       5.764   5.654  14.611  0.00  0.00    +0.000 F 
ATOM     32  F   UNL     1       7.438   5.254  13.259  0.00  0.00    +0.000 F 
ENDBRANCH  28  29
ENDBRANCH  26  28
ENDBRANCH  20  22
ENDBRANCH  17  20
ENDBRANCH   4  17
TORSDOF 8
ENDMDL
MODEL 3
REMARK VINA RESULT:      -8.4      1.118      2.012
REMARK  Name = 
REMARK  8 active torsions:
REMARK  status: ('A' for Active; 'I' for Inactive)
REMARK    1  A    between atoms: C_2  and  O_3
REMARK    2  A    between atoms: C_2  and  C_4
REMARK    3  A    between atoms: N_8  and  C_9
REMARK    4  A    between atoms: C_12  and  S_13
REMARK    5  A    between atoms: S_13  and  N_16
REMARK    6  A    between atoms: N_16  and  C_17
REMARK    7  A    between atoms: C_21  and  O_22
REMARK    8  A    between atoms: O_22  and  C_23
REMARK                            x       y       z     vdW  Elec       q    Type
REMARK                         _______ _______ _______ _____ _____    ______ ____
ROOT
ATOM      1  C   UNL     1       2.460   6.606  19.000  0.00  0.00    +0.000 A 
ATOM      2  C   UNL     1       2.327   7.732  18.176  0.00  0.00    +0.000 A 
ATOM      3  C   UNL     1       1.709   8.902  18.640  0.00  0.00    +0.000 A 
ATOM      4  C   UNL     1       1.228   8.959  19.949  0.00  0.00    +0.000 A 
ATOM      5  C   UNL     1       1.376   7.860  20.795  0.00  0.00    +0.000 A 
ATOM      6  C   UNL     1       1.976   6.689  20.315  0.00  0.00    +0.000 A 
ENDROOT
BRANCH   1  11
ATOM      7  C   UNL     1       4.783   3.926  18.004  0.00  0.00    +0.000 C 
ATOM      8  C   UNL     1       3.465   3.277  17.616  0.00  0.00    +0.000 C 
ATOM      9  C   UNL     1       2.454   4.382  17.823  0.00  0.00    +0.000 C 
ATOM     10  O   UNL     1       1.324   4.351  17.366  0.00  0.00    +0.000 OA
ATOM     11  N   UNL     1       3.080   5.415  18.539  0.00  0.00    +0.000 N 
ATOM     12  C   UNL     1       4.401   5.015  18.974  0.00  0.00    +0.000 C 
BRANCH   7  14
ATOM     13  O   UNL     1       5.052   5.317  16.067  0.00  0.00    +0.000 OA
ATOM     14  C   UNL     1       5.535   4.479  16.815  0.00  0.00    +0.000 C 
BRANCH  14  15
ATOM     15  O   UNL     1       6.775   3.987  16.619  0.00  0.00    +0.000 OA
ATOM     16  H   UNL     1       7.356   4.464  15.992  0.00  0.00    +0.000 HD
ENDBRANCH  14  15
ENDBRANCH   7  14
ENDBRANCH   1  11
BRANCH   4  17
ATOM     17  S   UNL     1       0.522  10.466  20.587  0.00  0.00    +0.000 S 
ATOM     18  O   UNL     1      -0.697  10.102  21.278  0.00  0.00    +0.000 OA
ATOM     19  O   UNL     1       1.574  11.202  21.254  0.00  0.00    +0.000 OA
BRANCH  17  20
ATOM     20  N   UNL     1       0.046  11.295  19.210  0.00  0.00    +0.000 N 
ATOM     21  H   UNL     1       0.606  12.109  18.971  0.00  0.00    +0.000 HD
BRANCH  20  22
ATOM     22  C   UNL     1      -1.292  11.205  18.751  0.00  0.00    +0.000 A 
ATOM     23  C   UNL     1      -2.276  11.963  19.375  0.00  0.00    +0.000 A 
ATOM     24  C   UNL     1      -3.603  11.861  18.947  0.00  0.00    +0.000 A 
ATOM     25  C   UNL     1      -3.928  11.033  17.869  0.00  0.00    +0.000 A 
ATOM     26  C   UNL     1      -2.929  10.327  17.200  0.00  0.00    +0.000 A 
ATOM     27  C   UNL     1      -1.614  10.373  17.680  0.00  0.00    +0.000 A 
BRANCH  26  28
ATOM     28  O   UNL     1      -3.113   9.522  16.118  0.00  0.00    +0.000 OA
BRANCH  28  29
ATOM     29  C   UNL     1      -3.301  10.118  14.838  0.00  0.00    +0.000 C 
ATOM     30  F   UNL     1      -3.255  11.465  14.838  0.00  0.00    +0.000 F 
ATOM     31  F   UNL     1      -2.329   9.670  14.013  0.00  0.00    +0.000 F 
ATOM     32  F   UNL     1      -4.493   9.722  14.340  0.00  0.00    +0.000 F 
ENDBRANCH  28  29
ENDBRANCH  26  28
ENDBRANCH  20  22
ENDBRANCH  17  20
ENDBRANCH   4  17
TORSDOF 8
ENDMDL
MODEL 4
REMARK VINA RESULT:      -8.4      1.717      2.658
REMARK  Name = 
REMARK  8 active torsions:
REMARK  status: ('A' for Active; 'I' for Inactive)
REMARK    1  A    between atoms: C_2  and  O_3
REMARK    2  A    between atoms: C_2  and  C_4
REMARK    3  A    between atoms: N_8  and  C_9
REMARK    4  A    between atoms: C_12  and  S_13
REMARK    5  A    between atoms: S_13  and  N_16
REMARK    6  A    between atoms: N_16  and  C_17
REMARK    7  A    between atoms: C_21  and  O_22
REMARK    8  A    between atoms: O_22  and  C_23
REMARK                            x       y       z     vdW  Elec       q    Type
REMARK                         _______ _______ _______ _____ _____    ______ ____
ROOT
ATOM      1  C   UNL     1       2.889   6.210  18.779  0.00  0.00    +0.000 A 
ATOM      2  C   UNL     1       2.650   7.520  18.343  0.00  0.00    +0.000 A 
ATOM      3  C   UNL     1       1.963   8.439  19.150  0.00  0.00    +0.000 A 
ATOM      4  C   UNL     1       1.520   8.053  20.416  0.00  0.00    +0.000 A 
ATOM      5  C   UNL     1       1.773   6.762  20.880  0.00  0.00    +0.000 A 
ATOM      6  C   UNL     1       2.441   5.846  20.058  0.00  0.00    +0.000 A 
ENDROOT
BRANCH   1  11
ATOM      7  C   UNL     1       5.296   4.354  16.696  0.00  0.00    +0.000 C 
ATOM      8  C   UNL     1       4.126   3.385  16.657  0.00  0.00    +0.000 C 
ATOM      9  C   UNL     1       3.014   4.148  17.342  0.00  0.00    +0.000 C 
ATOM     10  O   UNL     1       1.840   3.828  17.272  0.00  0.00    +0.000 OA
ATOM     11  N   UNL     1       3.579   5.270  17.968  0.00  0.00    +0.000 N 
ATOM     12  C   UNL     1       5.024   5.232  17.891  0.00  0.00    +0.000 C 
BRANCH   7  14
ATOM     13  O   UNL     1       5.467   6.388  15.434  0.00  0.00    +0.000 OA
ATOM     14  C   UNL     1       5.426   5.166  15.428  0.00  0.00    +0.000 C 
BRANCH  14  15
ATOM     15  O   UNL     1       5.485   4.462  14.279  0.00  0.00    +0.000 OA
ATOM     16  H   UNL     1       5.962   3.608  14.297  0.00  0.00    +0.000 HD
ENDBRANCH  14  15
ENDBRANCH   7  14
ENDBRANCH   1  11
BRANCH   4  17
ATOM     17  S   UNL     1       0.727   9.231  21.493  0.00  0.00    +0.000 S 
ATOM     18  O   UNL     1      -0.659   8.830  21.611  0.00  0.00    +0.000 OA
ATOM     19  O   UNL     1       1.564   9.398  22.661  0.00  0.00    +0.000 OA
BRANCH  17  20
ATOM     20  N   UNL     1       0.726  10.649  20.598  0.00  0.00    +0.000 N 
ATOM     21  H   UNL     1       1.490  11.291  20.791  0.00  0.00    +0.000 HD
BRANCH  20  22
ATOM     22  C   UNL     1      -0.483  11.142  20.046  0.00  0.00    +0.000 A 
ATOM     23  C   UNL     1      -1.311  11.937  20.830  0.00  0.00    +0.000 A 
ATOM     24  C   UNL     1      -2.518  12.406  20.304  0.00  0.00    +0.000 A 
ATOM     25  C   UNL     1      -2.867  12.112  18.982  0.00  0.00    +0.000 A 
ATOM     26  C   UNL     1      -2.002  11.374  18.177  0.00  0.00    +0.000 A 
ATOM     27  C   UNL     1      -0.830  10.842  18.731  0.00  0.00    +0.000 A 
BRANCH  26  28
ATOM     28  O   UNL     1      -2.209  11.056  16.869  0.00  0.00    +0.000 OA
BRANCH  28  29
ATOM     29  C   UNL     1      -3.165  10.051  16.547  0.00  0.00    +0.000 C 
ATOM     30  F   UNL     1      -3.433   9.192  17.552  0.00  0.00    +0.000 F 
ATOM     31  F   UNL     1      -4.322  10.658  16.202  0.00  0.00    +0.000 F 
ATOM     32  F   UNL     1      -2.723   9.349  15.481  0.00  0.00    +0.000 F 
ENDBRANCH  28  29
ENDBRANCH  26  28
ENDBRANCH  20  22
ENDBRANCH  17  20
ENDBRANCH   4  17
TORSDOF 8
ENDMDL
MODEL 5
REMARK VINA RESULT:      -8.3      2.390      2.948
REMARK  Name = 
REMARK  8 active torsions:
REMARK  status: ('A' for Active; 'I' for Inactive)
REMARK    1  A    between atoms: C_2  and  O_3
REMARK    2  A    between atoms: C_2  and  C_4
REMARK    3  A    between atoms: N_8  and  C_9
REMARK    4  A    between atoms: C_12  and  S_13
REMARK    5  A    between atoms: S_13  and  N_16
REMARK    6  A    between atoms: N_16  and  C_17
REMARK    7  A    between atoms: C_21  and  O_22
REMARK    8  A    between atoms: O_22  and  C_23
REMARK                            x       y       z     vdW  Elec       q    Type
REMARK                         _______ _______ _______ _____ _____    ______ ____
ROOT
ATOM      1  C   UNL     1       2.486   7.130  18.659  0.00  0.00    +0.000 A 
ATOM      2  C   UNL     1       2.111   7.162  20.009  0.00  0.00    +0.000 A 
ATOM      3  C   UNL     1       1.476   8.285  20.559  0.00  0.00    +0.000 A 
ATOM      4  C   UNL     1       1.196   9.387  19.751  0.00  0.00    +0.000 A 
ATOM      5  C   UNL     1       1.535   9.365  18.398  0.00  0.00    +0.000 A 
ATOM      6  C   UNL     1       2.187   8.247  17.864  0.00  0.00    +0.000 A 
ENDROOT
BRANCH   1  11
ATOM      7  C   UNL     1       3.570   3.768  17.612  0.00  0.00    +0.000 C 
ATOM      8  C   UNL     1       4.642   4.604  16.932  0.00  0.00    +0.000 C 
ATOM      9  C   UNL     1       4.384   5.999  17.455  0.00  0.00    +0.000 C 
ATOM     10  O   UNL     1       5.191   6.909  17.364  0.00  0.00    +0.000 OA
ATOM     11  N   UNL     1       3.134   6.001  18.093  0.00  0.00    +0.000 N 
ATOM     12  C   UNL     1       2.452   4.739  17.896  0.00  0.00    +0.000 C 
BRANCH   7  14
ATOM     13  O   UNL     1       3.299   2.644  19.714  0.00  0.00    +0.000 OA
ATOM     14  C   UNL     1       4.062   3.103  18.876  0.00  0.00    +0.000 C 
BRANCH  14  15
ATOM     15  O   UNL     1       5.400   3.051  19.035  0.00  0.00    +0.000 OA
ATOM     16  H   UNL     1       5.842   3.842  19.406  0.00  0.00    +0.000 HD
ENDBRANCH  14  15
ENDBRANCH   7  14
ENDBRANCH   1  11
BRANCH   4  17
ATOM     17  S   UNL     1       0.309  10.787  20.408  0.00  0.00    +0.000 S 
ATOM     18  O   UNL     1      -0.810  10.263  21.163  0.00  0.00    +0.000 OA
ATOM     19  O   UNL     1       1.273  11.680  21.012  0.00  0.00    +0.000 OA
BRANCH  17  20
ATOM     20  N   UNL     1      -0.348  11.514  19.047  0.00  0.00    +0.000 N 
ATOM     21  H   UNL     1       0.081  12.391  18.766  0.00  0.00    +0.000 HD
BRANCH  20  22
ATOM     22  C   UNL     1      -1.683  11.231  18.663  0.00  0.00    +0.000 A 
ATOM     23  C   UNL     1      -1.945  10.094  17.906  0.00  0.00    +0.000 A 
ATOM     24  C   UNL     1      -3.255   9.822  17.500  0.00  0.00    +0.000 A 
ATOM     25  C   UNL     1      -4.299  10.665  17.891  0.00  0.00    +0.000 A 
ATOM     26  C   UNL     1      -4.043  11.766  18.707  0.00  0.00    +0.000 A 
ATOM     27  C   UNL     1      -2.721  12.078  19.048  0.00  0.00    +0.000 A 
BRANCH  26  28
ATOM     28  O   UNL     1      -4.975  12.636  19.184  0.00  0.00    +0.000 OA
BRANCH  28  29
ATOM     29  C   UNL     1      -5.718  12.282  20.346  0.00  0.00    +0.000 C 
ATOM     30  F   UNL     1      -6.343  11.090  20.268  0.00  0.00    +0.000 F 
ATOM     31  F   UNL     1      -4.871  12.238  21.397  0.00  0.00    +0.000 F 
ATOM     32  F   UNL     1      -6.640  13.241  20.586  0.00  0.00    +0.000 F 
ENDBRANCH  28  29
ENDBRANCH  26  28
ENDBRANCH  20  22
ENDBRANCH  17  20
ENDBRANCH   4  17
TORSDOF 8
ENDMDL
MODEL 6
REMARK VINA RESULT:      -8.2      1.558      1.942
REMARK  Name = 
REMARK  8 active torsions:
REMARK  status: ('A' for Active; 'I' for Inactive)
REMARK    1  A    between atoms: C_2  and  O_3
REMARK    2  A    between atoms: C_2  and  C_4
REMARK    3  A    between atoms: N_8  and  C_9
REMARK    4  A    between atoms: C_12  and  S_13
REMARK    5  A    between atoms: S_13  and  N_16
REMARK    6  A    between atoms: N_16  and  C_17
REMARK    7  A    between atoms: C_21  and  O_22
REMARK    8  A    between atoms: O_22  and  C_23
REMARK                            x       y       z     vdW  Elec       q    Type
REMARK                         _______ _______ _______ _____ _____    ______ ____
ROOT
ATOM      1  C   UNL     1       2.318   5.954  19.109  0.00  0.00    +0.000 A 
ATOM      2  C   UNL     1       1.820   5.733  20.400  0.00  0.00    +0.000 A 
ATOM      3  C   UNL     1       1.377   6.798  21.198  0.00  0.00    +0.000 A 
ATOM      4  C   UNL     1       1.417   8.101  20.700  0.00  0.00    +0.000 A 
ATOM      5  C   UNL     1       1.883   8.339  19.407  0.00  0.00    +0.000 A 
ATOM      6  C   UNL     1       2.342   7.272  18.626  0.00  0.00    +0.000 A 
ENDROOT
BRANCH   1  11
ATOM      7  C   UNL     1       2.765   2.821  17.222  0.00  0.00    +0.000 C 
ATOM      8  C   UNL     1       4.087   3.500  16.904  0.00  0.00    +0.000 C 
ATOM      9  C   UNL     1       4.074   4.727  17.787  0.00  0.00    +0.000 C 
ATOM     10  O   UNL     1       5.068   5.389  18.030  0.00  0.00    +0.000 OA
ATOM     11  N   UNL     1       2.774   4.885  18.294  0.00  0.00    +0.000 N 
ATOM     12  C   UNL     1       1.864   3.938  17.684  0.00  0.00    +0.000 C 
BRANCH   7  14
ATOM     13  O   UNL     1       2.122   1.647  19.214  0.00  0.00    +0.000 OA
ATOM     14  C   UNL     1       2.899   1.744  18.274  0.00  0.00    +0.000 C 
BRANCH  14  15
ATOM     15  O   UNL     1       3.936   0.896  18.124  0.00  0.00    +0.000 OA
ATOM     16  H   UNL     1       3.754   0.030  17.706  0.00  0.00    +0.000 HD
ENDBRANCH  14  15
ENDBRANCH   7  14
ENDBRANCH   1  11
BRANCH   4  17
ATOM     17  S   UNL     1       0.775   9.456  21.663  0.00  0.00    +0.000 S 
ATOM     18  O   UNL     1      -0.625   9.180  21.903  0.00  0.00    +0.000 OA
ATOM     19  O   UNL     1       1.693   9.699  22.754  0.00  0.00    +0.000 OA
BRANCH  17  20
ATOM     20  N   UNL     1       0.818  10.753  20.599  0.00  0.00    +0.000 N 
ATOM     21  H   UNL     1       1.610  11.380  20.702  0.00  0.00    +0.000 HD
BRANCH  20  22
ATOM     22  C   UNL     1      -0.379  11.225  20.005  0.00  0.00    +0.000 A 
ATOM     23  C   UNL     1      -1.169  12.134  20.701  0.00  0.00    +0.000 A 
ATOM     24  C   UNL     1      -2.365  12.585  20.134  0.00  0.00    +0.000 A 
ATOM     25  C   UNL     1      -2.740  12.158  18.857  0.00  0.00    +0.000 A 
ATOM     26  C   UNL     1      -1.911  11.301  18.134  0.00  0.00    +0.000 A 
ATOM     27  C   UNL     1      -0.754  10.792  18.734  0.00  0.00    +0.000 A 
BRANCH  26  28
ATOM     28  O   UNL     1      -2.146  10.846  16.872  0.00  0.00    +0.000 OA
BRANCH  28  29
ATOM     29  C   UNL     1      -3.337  10.108  16.615  0.00  0.00    +0.000 C 
ATOM     30  F   UNL     1      -4.393  10.861  16.247  0.00  0.00    +0.000 F 
ATOM     31  F   UNL     1      -3.087   9.230  15.620  0.00  0.00    +0.000 F 
ATOM     32  F   UNL     1      -3.666   9.408  17.723  0.00  0.00    +0.000 F 
ENDBRANCH  28  29
ENDBRANCH  26  28
ENDBRANCH  20  22
ENDBRANCH  17  20
ENDBRANCH   4  17
TORSDOF 8
ENDMDL
MODEL 7
REMARK VINA RESULT:      -8.2      1.958      2.534
REMARK  Name = 
REMARK  8 active torsions:
REMARK  status: ('A' for Active; 'I' for Inactive)
REMARK    1  A    between atoms: C_2  and  O_3
REMARK    2  A    between atoms: C_2  and  C_4
REMARK    3  A    between atoms: N_8  and  C_9
REMARK    4  A    between atoms: C_12  and  S_13
REMARK    5  A    between atoms: S_13  and  N_16
REMARK    6  A    between atoms: N_16  and  C_17
REMARK    7  A    between atoms: C_21  and  O_22
REMARK    8  A    between atoms: O_22  and  C_23
REMARK                            x       y       z     vdW  Elec       q    Type
REMARK                         _______ _______ _______ _____ _____    ______ ____
ROOT
ATOM      1  C   UNL     1       2.612   7.164  18.432  0.00  0.00    +0.000 A 
ATOM      2  C   UNL     1       2.100   7.324  19.728  0.00  0.00    +0.000 A 
ATOM      3  C   UNL     1       1.498   8.527  20.126  0.00  0.00    +0.000 A 
ATOM      4  C   UNL     1       1.391   9.581  19.219  0.00  0.00    +0.000 A 
ATOM      5  C   UNL     1       1.868   9.433  17.917  0.00  0.00    +0.000 A 
ATOM      6  C   UNL     1       2.486   8.236  17.535  0.00  0.00    +0.000 A 
ENDROOT
BRANCH   1  11
ATOM      7  C   UNL     1       3.578   3.665  17.802  0.00  0.00    +0.000 C 
ATOM      8  C   UNL     1       4.711   4.375  17.082  0.00  0.00    +0.000 C 
ATOM      9  C   UNL     1       4.499   5.829  17.439  0.00  0.00    +0.000 C 
ATOM     10  O   UNL     1       5.350   6.688  17.284  0.00  0.00    +0.000 OA
ATOM     11  N   UNL     1       3.227   5.953  18.020  0.00  0.00    +0.000 N 
ATOM     12  C   UNL     1       2.496   4.708  17.932  0.00  0.00    +0.000 C 
BRANCH   7  14
ATOM     13  O   UNL     1       3.183   2.891  20.039  0.00  0.00    +0.000 OA
ATOM     14  C   UNL     1       3.991   3.123  19.151  0.00  0.00    +0.000 C 
BRANCH  14  15
ATOM     15  O   UNL     1       5.312   2.916  19.326  0.00  0.00    +0.000 OA
ATOM     16  H   UNL     1       5.607   1.999  19.498  0.00  0.00    +0.000 HD
ENDBRANCH  14  15
ENDBRANCH   7  14
ENDBRANCH   1  11
BRANCH   4  17
ATOM     17  S   UNL     1       0.549  11.085  19.676  0.00  0.00    +0.000 S 
ATOM     18  O   UNL     1       0.987  11.425  21.012  0.00  0.00    +0.000 OA
ATOM     19  O   UNL     1       0.682  12.019  18.579  0.00  0.00    +0.000 OA
BRANCH  17  20
ATOM     20  N   UNL     1      -1.055  10.614  19.817  0.00  0.00    +0.000 N 
ATOM     21  H   UNL     1      -1.252   9.938  20.550  0.00  0.00    +0.000 HD
BRANCH  20  22
ATOM     22  C   UNL     1      -1.928  10.719  18.705  0.00  0.00    +0.000 A 
ATOM     23  C   UNL     1      -1.635  10.012  17.544  0.00  0.00    +0.000 A 
ATOM     24  C   UNL     1      -2.476  10.130  16.434  0.00  0.00    +0.000 A 
ATOM     25  C   UNL     1      -3.626  10.920  16.507  0.00  0.00    +0.000 A 
ATOM     26  C   UNL     1      -3.954  11.572  17.695  0.00  0.00    +0.000 A 
ATOM     27  C   UNL     1      -3.070  11.513  18.780  0.00  0.00    +0.000 A 
BRANCH  26  28
ATOM     28  O   UNL     1      -5.061  12.337  17.903  0.00  0.00    +0.000 OA
BRANCH  28  29
ATOM     29  C   UNL     1      -6.270  11.703  18.309  0.00  0.00    +0.000 C 
ATOM     30  F   UNL     1      -6.742  12.113  19.503  0.00  0.00    +0.000 F 
ATOM     31  F   UNL     1      -7.218  11.958  17.380  0.00  0.00    +0.000 F 
ATOM     32  F   UNL     1      -6.072  10.367  18.353  0.00  0.00    +0.000 F 
ENDBRANCH  28  29
ENDBRANCH  26  28
ENDBRANCH  20  22
ENDBRANCH  17  20
ENDBRANCH   4  17
TORSDOF 8
ENDMDL
MODEL 8
REMARK VINA RESULT:      -8.2      1.846      2.413
REMARK  Name = 
REMARK  8 active torsions:
REMARK  status: ('A' for Active; 'I' for Inactive)
REMARK    1  A    between atoms: C_2  and  O_3
REMARK    2  A    between atoms: C_2  and  C_4
REMARK    3  A    between atoms: N_8  and  C_9
REMARK    4  A    between atoms: C_12  and  S_13
REMARK    5  A    between atoms: S_13  and  N_16
REMARK    6  A    between atoms: N_16  and  C_17
REMARK    7  A    between atoms: C_21  and  O_22
REMARK    8  A    between atoms: O_22  and  C_23
REMARK                            x       y       z     vdW  Elec       q    Type
REMARK                         _______ _______ _______ _____ _____    ______ ____
ROOT
ATOM      1  C   UNL     1       2.519   7.317  18.536  0.00  0.00    +0.000 A 
ATOM      2  C   UNL     1       2.038   7.481  19.842  0.00  0.00    +0.000 A 
ATOM      3  C   UNL     1       1.420   8.674  20.243  0.00  0.00    +0.000 A 
ATOM      4  C   UNL     1       1.266   9.716  19.328  0.00  0.00    +0.000 A 
ATOM      5  C   UNL     1       1.712   9.563  18.015  0.00  0.00    +0.000 A 
ATOM      6  C   UNL     1       2.346   8.375  17.630  0.00  0.00    +0.000 A 
ENDROOT
BRANCH   1  11
ATOM      7  C   UNL     1       3.516   3.832  17.877  0.00  0.00    +0.000 C 
ATOM      8  C   UNL     1       4.662   4.557  17.195  0.00  0.00    +0.000 C 
ATOM      9  C   UNL     1       4.436   6.005  17.568  0.00  0.00    +0.000 C 
ATOM     10  O   UNL     1       5.286   6.870  17.446  0.00  0.00    +0.000 OA
ATOM     11  N   UNL     1       3.149   6.115  18.120  0.00  0.00    +0.000 N 
ATOM     12  C   UNL     1       2.426   4.867  17.997  0.00  0.00    +0.000 C 
BRANCH   7  14
ATOM     13  O   UNL     1       3.167   3.355  20.203  0.00  0.00    +0.000 OA
ATOM     14  C   UNL     1       3.899   3.271  19.228  0.00  0.00    +0.000 C 
BRANCH  14  15
ATOM     15  O   UNL     1       5.107   2.676  19.299  0.00  0.00    +0.000 OA
ATOM     16  H   UNL     1       5.897   3.240  19.168  0.00  0.00    +0.000 HD
ENDBRANCH  14  15
ENDBRANCH   7  14
ENDBRANCH   1  11
BRANCH   4  17
ATOM     17  S   UNL     1       0.404  11.206  19.791  0.00  0.00    +0.000 S 
ATOM     18  O   UNL     1      -0.665  10.816  20.685  0.00  0.00    +0.000 OA
ATOM     19  O   UNL     1       1.392  12.187  20.182  0.00  0.00    +0.000 OA
BRANCH  17  20
ATOM     20  N   UNL     1      -0.335  11.695  18.367  0.00  0.00    +0.000 N 
ATOM     21  H   UNL     1       0.009  12.564  17.969  0.00  0.00    +0.000 HD
BRANCH  20  22
ATOM     22  C   UNL     1      -1.644  11.250  18.054  0.00  0.00    +0.000 A 
ATOM     23  C   UNL     1      -1.804  10.095  17.297  0.00  0.00    +0.000 A 
ATOM     24  C   UNL     1      -3.091   9.663  16.961  0.00  0.00    +0.000 A 
ATOM     25  C   UNL     1      -4.208  10.364  17.422  0.00  0.00    +0.000 A 
ATOM     26  C   UNL     1      -4.045  11.482  18.240  0.00  0.00    +0.000 A 
ATOM     27  C   UNL     1      -2.756  11.955  18.511  0.00  0.00    +0.000 A 
BRANCH  26  28
ATOM     28  O   UNL     1      -5.050  12.224  18.781  0.00  0.00    +0.000 OA
BRANCH  28  29
ATOM     29  C   UNL     1      -6.137  12.622  17.952  0.00  0.00    +0.000 C 
ATOM     30  F   UNL     1      -7.099  11.689  17.804  0.00  0.00    +0.000 F 
ATOM     31  F   UNL     1      -6.706  13.721  18.494  0.00  0.00    +0.000 F 
ATOM     32  F   UNL     1      -5.660  12.952  16.732  0.00  0.00    +0.000 F 
ENDBRANCH  28  29
ENDBRANCH  26  28
ENDBRANCH  20  22
ENDBRANCH  17  20
ENDBRANCH   4  17
TORSDOF 8
ENDMDL
MODEL 9
REMARK VINA RESULT:      -8.2      4.675      8.874
REMARK  Name = 
REMARK  8 active torsions:
REMARK  status: ('A' for Active; 'I' for Inactive)
REMARK    1  A    between atoms: C_2  and  O_3
REMARK    2  A    between atoms: C_2  and  C_4
REMARK    3  A    between atoms: N_8  and  C_9
REMARK    4  A    between atoms: C_12  and  S_13
REMARK    5  A    between atoms: S_13  and  N_16
REMARK    6  A    between atoms: N_16  and  C_17
REMARK    7  A    between atoms: C_21  and  O_22
REMARK    8  A    between atoms: O_22  and  C_23
REMARK                            x       y       z     vdW  Elec       q    Type
REMARK                         _______ _______ _______ _____ _____    ______ ____
ROOT
ATOM      1  C   UNL     1       1.731   7.236  20.084  0.00  0.00    +0.000 A 
ATOM      2  C   UNL     1       1.416   6.041  20.744  0.00  0.00    +0.000 A 
ATOM      3  C   UNL     1       1.761   4.797  20.197  0.00  0.00    +0.000 A 
ATOM      4  C   UNL     1       2.444   4.741  18.981  0.00  0.00    +0.000 A 
ATOM      5  C   UNL     1       2.792   5.919  18.321  0.00  0.00    +0.000 A 
ATOM      6  C   UNL     1       2.424   7.156  18.866  0.00  0.00    +0.000 A 
ENDROOT
BRANCH   1  11
ATOM      7  C   UNL     1       0.877  10.105  22.231  0.00  0.00    +0.000 C 
ATOM      8  C   UNL     1       0.746  10.761  20.867  0.00  0.00    +0.000 C 
ATOM      9  C   UNL     1       0.904   9.606  19.905  0.00  0.00    +0.000 C 
ATOM     10  O   UNL     1       0.592   9.667  18.728  0.00  0.00    +0.000 OA
ATOM     11  N   UNL     1       1.382   8.500  20.626  0.00  0.00    +0.000 N 
ATOM     12  C   UNL     1       1.713   8.875  21.985  0.00  0.00    +0.000 C 
BRANCH   7  14
ATOM     13  O   UNL     1      -1.162  10.584  23.402  0.00  0.00    +0.000 OA
ATOM     14  C   UNL     1      -0.460   9.754  22.843  0.00  0.00    +0.000 C 
BRANCH  14  15
ATOM     15  O   UNL     1      -0.833   8.462  22.745  0.00  0.00    +0.000 OA
ATOM     16  H   UNL     1      -1.199   8.036  23.546  0.00  0.00    +0.000 HD
ENDBRANCH  14  15
ENDBRANCH   7  14
ENDBRANCH   1  11
BRANCH   4  17
ATOM     17  S   UNL     1       2.972   3.175  18.313  0.00  0.00    +0.000 S 
ATOM     18  O   UNL     1       2.687   2.169  19.314  0.00  0.00    +0.000 OA
ATOM     19  O   UNL     1       2.450   3.068  16.968  0.00  0.00    +0.000 OA
BRANCH  17  20
ATOM     20  N   UNL     1       4.643   3.313  18.254  0.00  0.00    +0.000 N 
ATOM     21  H   UNL     1       5.118   3.285  19.151  0.00  0.00    +0.000 HD
BRANCH  20  22
ATOM     22  C   UNL     1       5.266   3.944  17.148  0.00  0.00    +0.000 A 
ATOM     23  C   UNL     1       4.840   3.634  15.861  0.00  0.00    +0.000 A 
ATOM     24  C   UNL     1       5.467   4.231  14.764  0.00  0.00    +0.000 A 
ATOM     25  C   UNL     1       6.486   5.167  14.963  0.00  0.00    +0.000 A 
ATOM     26  C   UNL     1       6.863   5.528  16.256  0.00  0.00    +0.000 A 
ATOM     27  C   UNL     1       6.286   4.872  17.350  0.00  0.00    +0.000 A 
BRANCH  26  28
ATOM     28  O   UNL     1       7.811   6.451  16.579  0.00  0.00    +0.000 OA
BRANCH  28  29
ATOM     29  C   UNL     1       7.499   7.450  17.545  0.00  0.00    +0.000 C 
ATOM     30  F   UNL     1       6.193   7.775  17.611  0.00  0.00    +0.000 F 
ATOM     31  F   UNL     1       7.875   6.998  18.762  0.00  0.00    +0.000 F 
ATOM     32  F   UNL     1       8.213   8.564  17.270  0.00  0.00    +0.000 F 
ENDBRANCH  28  29
ENDBRANCH  26  28
ENDBRANCH  20  22
ENDBRANCH  17  20
ENDBRANCH   4  17
TORSDOF 8
ENDMDL
