MODEL 1
REMARK VINA RESULT:      -7.7      0.000      0.000
REMARK  Name = 
REMARK  3 active torsions:
REMARK  status: ('A' for Active; 'I' for Inactive)
REMARK    1  A    between atoms: C_1  and  C_2
REMARK    2  A    between atoms: C_6  and  N_7
REMARK    3  A    between atoms: N_27  and  C_28
REMARK                            x       y       z     vdW  Elec       q    Type
REMARK                         _______ _______ _______ _____ _____    ______ ____
ROOT
ATOM      1  N   UNL     1       2.064   9.246  18.987  0.00  0.00    +0.000 N 
ATOM      2  C   UNL     1       0.981  10.063  19.211  0.00  0.00    +0.000 C 
ATOM      3  O   UNL     1      -0.084   9.645  19.667  0.00  0.00    +0.000 OA
ATOM      4  N   UNL     1       1.116  11.416  18.941  0.00  0.00    +0.000 N 
ATOM      5  C   UNL     1       2.248  12.216  18.449  0.00  0.00    +0.000 C 
ATOM      6  C   UNL     1       2.378  13.585  19.208  0.00  0.00    +0.000 C 
ATOM      7  C   UNL     1       1.800  13.469  20.613  0.00  0.00    +0.000 C 
ATOM      8  C   UNL     1       0.306  13.171  20.431  0.00  0.00    +0.000 C 
ATOM      9  C   UNL     1      -0.035  12.236  19.249  0.00  0.00    +0.000 C 
ATOM     10  C   UNL     1      -0.287  14.497  20.099  0.00  0.00    +0.000 A 
ATOM     11  C   UNL     1      -1.372  14.961  20.740  0.00  0.00    +0.000 A 
ATOM     12  C   UNL     1      -1.894  16.256  20.424  0.00  0.00    +0.000 A 
ATOM     13  C   UNL     1      -1.350  16.977  19.437  0.00  0.00    +0.000 A 
ATOM     14  C   UNL     1      -0.166  16.465  18.690  0.00  0.00    +0.000 A 
ATOM     15  O   UNL     1       0.336  17.179  17.823  0.00  0.00    +0.000 OA
ATOM     16  N   UNL     1       0.346  15.238  19.092  0.00  0.00    +0.000 N 
ATOM     17  C   UNL     1       1.679  14.831  18.563  0.00  0.00    +0.000 C 
ATOM     18  H   UNL     1       2.971   9.683  18.950  0.00  0.00    +0.000 HD
ENDROOT
BRANCH   1  24
ATOM     19  C   UNL     1       1.970   2.688  20.656  0.00  0.00    +0.000 C 
ATOM     20  C   UNL     1       2.198   3.744  19.636  0.00  0.00    +0.000 A 
ATOM     21  C   UNL     1       2.086   5.112  19.666  0.00  0.00    +0.000 A 
ATOM     22  C   UNL     1       1.695   5.865  20.761  0.00  0.00    +0.000 A 
ATOM     23  C   UNL     1       1.676   7.242  20.447  0.00  0.00    +0.000 A 
ATOM     24  C   UNL     1       2.049   7.822  19.183  0.00  0.00    +0.000 A 
ATOM     25  C   UNL     1       2.417   7.002  18.086  0.00  0.00    +0.000 A 
ATOM     26  C   UNL     1       2.431   5.615  18.361  0.00  0.00    +0.000 A 
ATOM     27  N   UNL     1       2.749   4.574  17.568  0.00  0.00    +0.000 NA
ATOM     28  N   UNL     1       2.590   3.478  18.345  0.00  0.00    +0.000 N 
ATOM     29  C   UNL     1       2.815   2.165  17.779  0.00  0.00    +0.000 C 
ENDBRANCH   1  24
TORSDOF 1
ENDMDL
MODEL 2
REMARK VINA RESULT:      -7.7      3.137      4.242
REMARK  Name = 
REMARK  3 active torsions:
REMARK  status: ('A' for Active; 'I' for Inactive)
REMARK    1  A    between atoms: C_1  and  C_2
REMARK    2  A    between atoms: C_6  and  N_7
REMARK    3  A    between atoms: N_27  and  C_28
REMARK                            x       y       z     vdW  Elec       q    Type
REMARK                         _______ _______ _______ _____ _____    ______ ____
ROOT
ATOM      1  N   UNL     1       0.035  10.306  19.770  0.00  0.00    +0.000 N 
ATOM      2  C   UNL     1       0.022  10.866  21.026  0.00  0.00    +0.000 C 
ATOM      3  O   UNL     1       0.902  10.648  21.861  0.00  0.00    +0.000 OA
ATOM      4  N   UNL     1      -1.008  11.737  21.344  0.00  0.00    +0.000 N 
ATOM      5  C   UNL     1      -2.157  12.232  20.568  0.00  0.00    +0.000 C 
ATOM      6  C   UNL     1      -2.406  13.766  20.796  0.00  0.00    +0.000 C 
ATOM      7  C   UNL     1      -1.105  14.465  21.172  0.00  0.00    +0.000 C 
ATOM      8  C   UNL     1      -0.669  13.854  22.510  0.00  0.00    +0.000 C 
ATOM      9  C   UNL     1      -0.940  12.340  22.657  0.00  0.00    +0.000 C 
ATOM     10  C   UNL     1      -1.537  14.533  23.513  0.00  0.00    +0.000 A 
ATOM     11  C   UNL     1      -1.023  15.091  24.621  0.00  0.00    +0.000 A 
ATOM     12  C   UNL     1      -1.879  15.770  25.547  0.00  0.00    +0.000 A 
ATOM     13  C   UNL     1      -3.202  15.784  25.351  0.00  0.00    +0.000 A 
ATOM     14  C   UNL     1      -3.796  15.141  24.145  0.00  0.00    +0.000 A 
ATOM     15  O   UNL     1      -5.012  15.220  23.974  0.00  0.00    +0.000 OA
ATOM     16  N   UNL     1      -2.911  14.566  23.241  0.00  0.00    +0.000 N 
ATOM     17  C   UNL     1      -3.439  14.166  21.905  0.00  0.00    +0.000 C 
ATOM     18  H   UNL     1      -0.492  10.776  19.052  0.00  0.00    +0.000 HD
ENDROOT
BRANCH   1  24
ATOM     19  C   UNL     1       4.617   6.173  16.994  0.00  0.00    +0.000 C 
ATOM     20  C   UNL     1       3.687   6.485  18.109  0.00  0.00    +0.000 A 
ATOM     21  C   UNL     1       2.845   7.541  18.357  0.00  0.00    +0.000 A 
ATOM     22  C   UNL     1       2.676   8.645  17.539  0.00  0.00    +0.000 A 
ATOM     23  C   UNL     1       1.744   9.548  18.096  0.00  0.00    +0.000 A 
ATOM     24  C   UNL     1       1.018   9.358  19.325  0.00  0.00    +0.000 A 
ATOM     25  C   UNL     1       1.250   8.220  20.138  0.00  0.00    +0.000 A 
ATOM     26  C   UNL     1       2.191   7.301  19.618  0.00  0.00    +0.000 A 
ATOM     27  N   UNL     1       2.624   6.125  20.112  0.00  0.00    +0.000 NA
ATOM     28  N   UNL     1       3.518   5.670  19.205  0.00  0.00    +0.000 N 
ATOM     29  C   UNL     1       4.215   4.426  19.453  0.00  0.00    +0.000 C 
ENDBRANCH   1  24
TORSDOF 1
ENDMDL
MODEL 3
REMARK VINA RESULT:      -7.6      0.900      1.563
REMARK  Name = 
REMARK  3 active torsions:
REMARK  status: ('A' for Active; 'I' for Inactive)
REMARK    1  A    between atoms: C_1  and  C_2
REMARK    2  A    between atoms: C_6  and  N_7
REMARK    3  A    between atoms: N_27  and  C_28
REMARK                            x       y       z     vdW  Elec       q    Type
REMARK                         _______ _______ _______ _____ _____    ______ ____
ROOT
ATOM      1  N   UNL     1       2.232   9.172  18.729  0.00  0.00    +0.000 N 
ATOM      2  C   UNL     1       1.139   9.967  18.981  0.00  0.00    +0.000 C 
ATOM      3  O   UNL     1       0.074   9.518  19.407  0.00  0.00    +0.000 OA
ATOM      4  N   UNL     1       1.261  11.332  18.774  0.00  0.00    +0.000 N 
ATOM      5  C   UNL     1       2.389  12.166  18.330  0.00  0.00    +0.000 C 
ATOM      6  C   UNL     1       2.497  13.500  19.152  0.00  0.00    +0.000 C 
ATOM      7  C   UNL     1       1.908  13.314  20.545  0.00  0.00    +0.000 C 
ATOM      8  C   UNL     1       0.419  13.009  20.335  0.00  0.00    +0.000 C 
ATOM      9  C   UNL     1       0.099  12.126  19.109  0.00  0.00    +0.000 C 
ATOM     10  C   UNL     1      -0.184  14.343  20.059  0.00  0.00    +0.000 A 
ATOM     11  C   UNL     1      -1.281  14.765  20.710  0.00  0.00    +0.000 A 
ATOM     12  C   UNL     1      -1.813  16.068  20.449  0.00  0.00    +0.000 A 
ATOM     13  C   UNL     1      -1.268  16.839  19.501  0.00  0.00    +0.000 A 
ATOM     14  C   UNL     1      -0.073  16.374  18.743  0.00  0.00    +0.000 A 
ATOM     15  O   UNL     1       0.430  17.132  17.914  0.00  0.00    +0.000 OA
ATOM     16  N   UNL     1       0.449  15.135  19.093  0.00  0.00    +0.000 N 
ATOM     17  C   UNL     1       1.791  14.766  18.558  0.00  0.00    +0.000 C 
ATOM     18  H   UNL     1       3.134   9.620  18.721  0.00  0.00    +0.000 HD
ENDROOT
BRANCH   1  24
ATOM     19  C   UNL     1       2.099   2.408  18.595  0.00  0.00    +0.000 C 
ATOM     20  C   UNL     1       2.053   3.671  19.374  0.00  0.00    +0.000 A 
ATOM     21  C   UNL     1       2.139   4.994  19.016  0.00  0.00    +0.000 A 
ATOM     22  C   UNL     1       2.306   5.471  17.726  0.00  0.00    +0.000 A 
ATOM     23  C   UNL     1       2.365   6.882  17.712  0.00  0.00    +0.000 A 
ATOM     24  C   UNL     1       2.230   7.741  18.860  0.00  0.00    +0.000 A 
ATOM     25  C   UNL     1       2.087   7.199  20.162  0.00  0.00    +0.000 A 
ATOM     26  C   UNL     1       2.040   5.786  20.215  0.00  0.00    +0.000 A 
ATOM     27  N   UNL     1       1.892   4.959  21.267  0.00  0.00    +0.000 NA
ATOM     28  N   UNL     1       1.916   3.713  20.742  0.00  0.00    +0.000 N 
ATOM     29  C   UNL     1       1.820   2.568  21.621  0.00  0.00    +0.000 C 
ENDBRANCH   1  24
TORSDOF 1
ENDMDL
MODEL 4
REMARK VINA RESULT:      -7.6      2.423      3.312
REMARK  Name = 
REMARK  3 active torsions:
REMARK  status: ('A' for Active; 'I' for Inactive)
REMARK    1  A    between atoms: C_1  and  C_2
REMARK    2  A    between atoms: C_6  and  N_7
REMARK    3  A    between atoms: N_27  and  C_28
REMARK                            x       y       z     vdW  Elec       q    Type
REMARK                         _______ _______ _______ _____ _____    ______ ____
ROOT
ATOM      1  N   UNL     1       0.935   9.941  20.465  0.00  0.00    +0.000 N 
ATOM      2  C   UNL     1      -0.203  10.528  19.965  0.00  0.00    +0.000 C 
ATOM      3  O   UNL     1      -0.891  10.006  19.086  0.00  0.00    +0.000 OA
ATOM      4  N   UNL     1      -0.604  11.741  20.503  0.00  0.00    +0.000 N 
ATOM      5  C   UNL     1      -0.042  12.580  21.573  0.00  0.00    +0.000 C 
ATOM      6  C   UNL     1      -1.157  13.169  22.509  0.00  0.00    +0.000 C 
ATOM      7  C   UNL     1      -2.377  12.256  22.521  0.00  0.00    +0.000 C 
ATOM      8  C   UNL     1      -2.917  12.256  21.085  0.00  0.00    +0.000 C 
ATOM      9  C   UNL     1      -1.838  12.285  19.980  0.00  0.00    +0.000 C 
ATOM     10  C   UNL     1      -3.656  13.546  20.981  0.00  0.00    +0.000 A 
ATOM     11  C   UNL     1      -4.910  13.599  20.501  0.00  0.00    +0.000 A 
ATOM     12  C   UNL     1      -5.607  14.848  20.450  0.00  0.00    +0.000 A 
ATOM     13  C   UNL     1      -4.986  15.979  20.807  0.00  0.00    +0.000 A 
ATOM     14  C   UNL     1      -3.583  15.945  21.309  0.00  0.00    +0.000 A 
ATOM     15  O   UNL     1      -3.064  16.999  21.675  0.00  0.00    +0.000 OA
ATOM     16  N   UNL     1      -2.983  14.696  21.412  0.00  0.00    +0.000 N 
ATOM     17  C   UNL     1      -1.700  14.598  22.164  0.00  0.00    +0.000 C 
ATOM     18  H   UNL     1       1.240  10.232  21.379  0.00  0.00    +0.000 HD
ENDROOT
BRANCH   1  24
ATOM     19  C   UNL     1       3.489   4.450  17.444  0.00  0.00    +0.000 C 
ATOM     20  C   UNL     1       2.878   5.082  18.641  0.00  0.00    +0.000 A 
ATOM     21  C   UNL     1       2.468   6.363  18.916  0.00  0.00    +0.000 A 
ATOM     22  C   UNL     1       2.552   7.439  18.048  0.00  0.00    +0.000 A 
ATOM     23  C   UNL     1       2.052   8.615  18.650  0.00  0.00    +0.000 A 
ATOM     24  C   UNL     1       1.485   8.708  19.970  0.00  0.00    +0.000 A 
ATOM     25  C   UNL     1       1.447   7.580  20.827  0.00  0.00    +0.000 A 
ATOM     26  C   UNL     1       1.956   6.388  20.261  0.00  0.00    +0.000 A 
ATOM     27  N   UNL     1       2.049   5.148  20.781  0.00  0.00    +0.000 NA
ATOM     28  N   UNL     1       2.610   4.399  19.805  0.00  0.00    +0.000 N 
ATOM     29  C   UNL     1       2.893   3.002  20.053  0.00  0.00    +0.000 C 
ENDBRANCH   1  24
TORSDOF 1
ENDMDL
MODEL 5
REMARK VINA RESULT:      -7.5      2.788      9.667
REMARK  Name = 
REMARK  3 active torsions:
REMARK  status: ('A' for Active; 'I' for Inactive)
REMARK    1  A    between atoms: C_1  and  C_2
REMARK    2  A    between atoms: C_6  and  N_7
REMARK    3  A    between atoms: N_27  and  C_28
REMARK                            x       y       z     vdW  Elec       q    Type
REMARK                         _______ _______ _______ _____ _____    ______ ____
ROOT
ATOM      1  N   UNL     1       0.740  10.079  19.285  0.00  0.00    +0.000 N 
ATOM      2  C   UNL     1       1.017   8.946  20.012  0.00  0.00    +0.000 C 
ATOM      3  O   UNL     1       0.435   8.670  21.063  0.00  0.00    +0.000 OA
ATOM      4  N   UNL     1       1.967   8.067  19.516  0.00  0.00    +0.000 N 
ATOM      5  C   UNL     1       2.783   8.083  18.292  0.00  0.00    +0.000 C 
ATOM      6  C   UNL     1       2.875   6.664  17.625  0.00  0.00    +0.000 C 
ATOM      7  C   UNL     1       1.643   5.836  17.968  0.00  0.00    +0.000 C 
ATOM      8  C   UNL     1       1.674   5.645  19.490  0.00  0.00    +0.000 C 
ATOM      9  C   UNL     1       2.177   6.864  20.292  0.00  0.00    +0.000 C 
ATOM     10  C   UNL     1       2.681   4.565  19.694  0.00  0.00    +0.000 A 
ATOM     11  C   UNL     1       2.417   3.496  20.462  0.00  0.00    +0.000 A 
ATOM     12  C   UNL     1       3.392   2.457  20.607  0.00  0.00    +0.000 A 
ATOM     13  C   UNL     1       4.598   2.585  20.041  0.00  0.00    +0.000 A 
ATOM     14  C   UNL     1       4.923   3.780  19.213  0.00  0.00    +0.000 A 
ATOM     15  O   UNL     1       6.024   3.837  18.668  0.00  0.00    +0.000 OA
ATOM     16  N   UNL     1       3.912   4.718  19.042  0.00  0.00    +0.000 N 
ATOM     17  C   UNL     1       4.106   5.772  18.006  0.00  0.00    +0.000 C 
ATOM     18  H   UNL     1       0.982  10.070  18.307  0.00  0.00    +0.000 HD
ENDROOT
BRANCH   1  24
ATOM     19  C   UNL     1      -3.137  15.022  21.800  0.00  0.00    +0.000 C 
ATOM     20  C   UNL     1      -2.995  13.828  20.929  0.00  0.00    +0.000 A 
ATOM     21  C   UNL     1      -1.933  13.013  20.625  0.00  0.00    +0.000 A 
ATOM     22  C   UNL     1      -0.644  13.154  21.113  0.00  0.00    +0.000 A 
ATOM     23  C   UNL     1       0.206  12.155  20.591  0.00  0.00    +0.000 A 
ATOM     24  C   UNL     1      -0.190  11.093  19.703  0.00  0.00    +0.000 A 
ATOM     25  C   UNL     1      -1.517  11.011  19.213  0.00  0.00    +0.000 A 
ATOM     26  C   UNL     1      -2.393  12.008  19.703  0.00  0.00    +0.000 A 
ATOM     27  N   UNL     1      -3.704  12.208  19.464  0.00  0.00    +0.000 NA
ATOM     28  N   UNL     1      -4.030  13.300  20.193  0.00  0.00    +0.000 N 
ATOM     29  C   UNL     1      -5.380  13.819  20.131  0.00  0.00    +0.000 C 
ENDBRANCH   1  24
TORSDOF 1
ENDMDL
MODEL 6
REMARK VINA RESULT:      -7.5      2.626      3.382
REMARK  Name = 
REMARK  3 active torsions:
REMARK  status: ('A' for Active; 'I' for Inactive)
REMARK    1  A    between atoms: C_1  and  C_2
REMARK    2  A    between atoms: C_6  and  N_7
REMARK    3  A    between atoms: N_27  and  C_28
REMARK                            x       y       z     vdW  Elec       q    Type
REMARK                         _______ _______ _______ _____ _____    ______ ____
ROOT
ATOM      1  N   UNL     1       1.097   8.858  18.961  0.00  0.00    +0.000 N 
ATOM      2  C   UNL     1       0.769   9.425  20.170  0.00  0.00    +0.000 C 
ATOM      3  O   UNL     1       1.359   9.150  21.216  0.00  0.00    +0.000 OA
ATOM      4  N   UNL     1      -0.245  10.369  20.196  0.00  0.00    +0.000 N 
ATOM      5  C   UNL     1      -1.090  10.940  19.135  0.00  0.00    +0.000 C 
ATOM      6  C   UNL     1      -1.285  12.489  19.305  0.00  0.00    +0.000 C 
ATOM      7  C   UNL     1      -0.097  13.096  20.042  0.00  0.00    +0.000 C 
ATOM      8  C   UNL     1      -0.102  12.463  21.440  0.00  0.00    +0.000 C 
ATOM      9  C   UNL     1      -0.509  10.974  21.483  0.00  0.00    +0.000 C 
ATOM     10  C   UNL     1      -1.168  13.209  22.167  0.00  0.00    +0.000 A 
ATOM     11  C   UNL     1      -0.950  13.736  23.383  0.00  0.00    +0.000 A 
ATOM     12  C   UNL     1      -1.983  14.480  24.038  0.00  0.00    +0.000 A 
ATOM     13  C   UNL     1      -3.193  14.588  23.476  0.00  0.00    +0.000 A 
ATOM     14  C   UNL     1      -3.465  13.982  22.143  0.00  0.00    +0.000 A 
ATOM     15  O   UNL     1      -4.574  14.145  21.637  0.00  0.00    +0.000 OA
ATOM     16  N   UNL     1      -2.403  13.339  21.518  0.00  0.00    +0.000 N 
ATOM     17  C   UNL     1      -2.558  12.969  20.082  0.00  0.00    +0.000 C 
ATOM     18  H   UNL     1       0.830   9.359  18.130  0.00  0.00    +0.000 HD
ENDROOT
BRANCH   1  24
ATOM     19  C   UNL     1       5.971   4.386  17.531  0.00  0.00    +0.000 C 
ATOM     20  C   UNL     1       4.792   4.774  18.348  0.00  0.00    +0.000 A 
ATOM     21  C   UNL     1       3.990   5.889  18.361  0.00  0.00    +0.000 A 
ATOM     22  C   UNL     1       4.131   6.993  17.537  0.00  0.00    +0.000 A 
ATOM     23  C   UNL     1       3.146   7.964  17.820  0.00  0.00    +0.000 A 
ATOM     24  C   UNL     1       2.097   7.838  18.799  0.00  0.00    +0.000 A 
ATOM     25  C   UNL     1       2.015   6.697  19.635  0.00  0.00    +0.000 A 
ATOM     26  C   UNL     1       2.997   5.709  19.389  0.00  0.00    +0.000 A 
ATOM     27  N   UNL     1       3.194   4.512  19.974  0.00  0.00    +0.000 NA
ATOM     28  N   UNL     1       4.270   3.986  19.347  0.00  0.00    +0.000 N 
ATOM     29  C   UNL     1       4.782   2.700  19.769  0.00  0.00    +0.000 C 
ENDBRANCH   1  24
TORSDOF 1
ENDMDL
MODEL 7
REMARK VINA RESULT:      -7.4      3.148      9.795
REMARK  Name = 
REMARK  3 active torsions:
REMARK  status: ('A' for Active; 'I' for Inactive)
REMARK    1  A    between atoms: C_1  and  C_2
REMARK    2  A    between atoms: C_6  and  N_7
REMARK    3  A    between atoms: N_27  and  C_28
REMARK                            x       y       z     vdW  Elec       q    Type
REMARK                         _______ _______ _______ _____ _____    ______ ____
ROOT
ATOM      1  N   UNL     1       0.592   9.928  19.744  0.00  0.00    +0.000 N 
ATOM      2  C   UNL     1       0.902   8.753  20.386  0.00  0.00    +0.000 C 
ATOM      3  O   UNL     1       0.329   8.384  21.412  0.00  0.00    +0.000 OA
ATOM      4  N   UNL     1       1.878   7.941  19.829  0.00  0.00    +0.000 N 
ATOM      5  C   UNL     1       2.693   8.071  18.611  0.00  0.00    +0.000 C 
ATOM      6  C   UNL     1       2.827   6.709  17.841  0.00  0.00    +0.000 C 
ATOM      7  C   UNL     1       1.619   5.822  18.119  0.00  0.00    +0.000 C 
ATOM      8  C   UNL     1       1.655   5.520  19.623  0.00  0.00    +0.000 C 
ATOM      9  C   UNL     1       2.123   6.691  20.515  0.00  0.00    +0.000 C 
ATOM     10  C   UNL     1       2.694   4.458  19.749  0.00  0.00    +0.000 A 
ATOM     11  C   UNL     1       2.461   3.328  20.436  0.00  0.00    +0.000 A 
ATOM     12  C   UNL     1       3.466   2.310  20.506  0.00  0.00    +0.000 A 
ATOM     13  C   UNL     1       4.668   2.514  19.953  0.00  0.00    +0.000 A 
ATOM     14  C   UNL     1       4.957   3.776  19.217  0.00  0.00    +0.000 A 
ATOM     15  O   UNL     1       6.057   3.905  18.680  0.00  0.00    +0.000 OA
ATOM     16  N   UNL     1       3.920   4.694  19.113  0.00  0.00    +0.000 N 
ATOM     17  C   UNL     1       4.083   5.828  18.158  0.00  0.00    +0.000 C 
ATOM     18  H   UNL     1       0.835   9.999  18.769  0.00  0.00    +0.000 HD
ENDROOT
BRANCH   1  24
ATOM     19  C   UNL     1      -4.131  14.509  21.326  0.00  0.00    +0.000 C 
ATOM     20  C   UNL     1      -2.937  13.718  21.718  0.00  0.00    +0.000 A 
ATOM     21  C   UNL     1      -2.187  12.772  21.064  0.00  0.00    +0.000 A 
ATOM     22  C   UNL     1      -2.413  12.312  19.777  0.00  0.00    +0.000 A 
ATOM     23  C   UNL     1      -1.462  11.333  19.415  0.00  0.00    +0.000 A 
ATOM     24  C   UNL     1      -0.367  10.881  20.234  0.00  0.00    +0.000 A 
ATOM     25  C   UNL     1      -0.197  11.366  21.555  0.00  0.00    +0.000 A 
ATOM     26  C   UNL     1      -1.143  12.338  21.956  0.00  0.00    +0.000 A 
ATOM     27  N   UNL     1      -1.259  13.012  23.116  0.00  0.00    +0.000 NA
ATOM     28  N   UNL     1      -2.337  13.813  22.951  0.00  0.00    +0.000 N 
ATOM     29  C   UNL     1      -2.771  14.656  24.044  0.00  0.00    +0.000 C 
ENDBRANCH   1  24
TORSDOF 1
ENDMDL
MODEL 8
REMARK VINA RESULT:      -7.3      2.884      3.552
REMARK  Name = 
REMARK  3 active torsions:
REMARK  status: ('A' for Active; 'I' for Inactive)
REMARK    1  A    between atoms: C_1  and  C_2
REMARK    2  A    between atoms: C_6  and  N_7
REMARK    3  A    between atoms: N_27  and  C_28
REMARK                            x       y       z     vdW  Elec       q    Type
REMARK                         _______ _______ _______ _____ _____    ______ ____
ROOT
ATOM      1  N   UNL     1       0.935   8.986  19.021  0.00  0.00    +0.000 N 
ATOM      2  C   UNL     1       0.638   9.548  20.240  0.00  0.00    +0.000 C 
ATOM      3  O   UNL     1       1.280   9.298  21.262  0.00  0.00    +0.000 OA
ATOM      4  N   UNL     1      -0.407  10.457  20.305  0.00  0.00    +0.000 N 
ATOM      5  C   UNL     1      -1.313  10.993  19.277  0.00  0.00    +0.000 C 
ATOM      6  C   UNL     1      -1.554  12.536  19.449  0.00  0.00    +0.000 C 
ATOM      7  C   UNL     1      -0.359  13.186  20.135  0.00  0.00    +0.000 C 
ATOM      8  C   UNL     1      -0.284  12.561  21.534  0.00  0.00    +0.000 C 
ATOM      9  C   UNL     1      -0.638  11.059  21.599  0.00  0.00    +0.000 C 
ATOM     10  C   UNL     1      -1.344  13.274  22.301  0.00  0.00    +0.000 A 
ATOM     11  C   UNL     1      -1.095  13.814  23.506  0.00  0.00    +0.000 A 
ATOM     12  C   UNL     1      -2.125  14.525  24.200  0.00  0.00    +0.000 A 
ATOM     13  C   UNL     1      -3.360  14.589  23.689  0.00  0.00    +0.000 A 
ATOM     14  C   UNL     1      -3.665  13.967  22.370  0.00  0.00    +0.000 A 
ATOM     15  O   UNL     1      -4.800  14.090  21.909  0.00  0.00    +0.000 OA
ATOM     16  N   UNL     1      -2.609  13.358  21.704  0.00  0.00    +0.000 N 
ATOM     17  C   UNL     1      -2.810  12.976  20.277  0.00  0.00    +0.000 C 
ATOM     18  H   UNL     1       0.617   9.474  18.199  0.00  0.00    +0.000 HD
ENDROOT
BRANCH   1  24
ATOM     19  C   UNL     1       5.659   4.146  18.804  0.00  0.00    +0.000 C 
ATOM     20  C   UNL     1       5.036   5.351  18.200  0.00  0.00    +0.000 A 
ATOM     21  C   UNL     1       3.964   6.130  18.561  0.00  0.00    +0.000 A 
ATOM     22  C   UNL     1       3.161   5.931  19.671  0.00  0.00    +0.000 A 
ATOM     23  C   UNL     1       2.143   6.907  19.740  0.00  0.00    +0.000 A 
ATOM     24  C   UNL     1       1.962   8.001  18.821  0.00  0.00    +0.000 A 
ATOM     25  C   UNL     1       2.798   8.143  17.685  0.00  0.00    +0.000 A 
ATOM     26  C   UNL     1       3.820   7.171  17.576  0.00  0.00    +0.000 A 
ATOM     27  N   UNL     1       4.787   7.024  16.649  0.00  0.00    +0.000 NA
ATOM     28  N   UNL     1       5.484   5.932  17.037  0.00  0.00    +0.000 N 
ATOM     29  C   UNL     1       6.586   5.465  16.224  0.00  0.00    +0.000 C 
ENDBRANCH   1  24
TORSDOF 1
ENDMDL
MODEL 9
REMARK VINA RESULT:      -7.3      2.827      3.891
REMARK  Name = 
REMARK  3 active torsions:
REMARK  status: ('A' for Active; 'I' for Inactive)
REMARK    1  A    between atoms: C_1  and  C_2
REMARK    2  A    between atoms: C_6  and  N_7
REMARK    3  A    between atoms: N_27  and  C_28
REMARK                            x       y       z     vdW  Elec       q    Type
REMARK                         _______ _______ _______ _____ _____    ______ ____
ROOT
ATOM      1  N   UNL     1       0.499  10.850  19.846  0.00  0.00    +0.000 N 
ATOM      2  C   UNL     1      -0.824  11.089  19.556  0.00  0.00    +0.000 C 
ATOM      3  O   UNL     1      -1.546  10.254  19.008  0.00  0.00    +0.000 OA
ATOM      4  N   UNL     1      -1.366  12.309  19.928  0.00  0.00    +0.000 N 
ATOM      5  C   UNL     1      -0.793  13.471  20.626  0.00  0.00    +0.000 C 
ATOM      6  C   UNL     1      -1.786  14.072  21.685  0.00  0.00    +0.000 C 
ATOM      7  C   UNL     1      -2.733  12.993  22.196  0.00  0.00    +0.000 C 
ATOM      8  C   UNL     1      -3.554  12.543  20.980  0.00  0.00    +0.000 C 
ATOM      9  C   UNL     1      -2.774  12.484  19.649  0.00  0.00    +0.000 C 
ATOM     10  C   UNL     1      -4.573  13.619  20.820  0.00  0.00    +0.000 A 
ATOM     11  C   UNL     1      -5.879  13.334  20.684  0.00  0.00    +0.000 A 
ATOM     12  C   UNL     1      -6.837  14.392  20.570  0.00  0.00    +0.000 A 
ATOM     13  C   UNL     1      -6.429  15.665  20.521  0.00  0.00    +0.000 A 
ATOM     14  C   UNL     1      -4.981  16.001  20.636  0.00  0.00    +0.000 A 
ATOM     15  O   UNL     1      -4.650  17.185  20.637  0.00  0.00    +0.000 OA
ATOM     16  N   UNL     1      -4.104  14.939  20.824  0.00  0.00    +0.000 N 
ATOM     17  C   UNL     1      -2.701  15.254  21.217  0.00  0.00    +0.000 C 
ATOM     18  H   UNL     1       0.918  11.407  20.573  0.00  0.00    +0.000 HD
ENDROOT
BRANCH   1  24
ATOM     19  C   UNL     1       3.765   5.449  17.406  0.00  0.00    +0.000 C 
ATOM     20  C   UNL     1       3.016   6.097  18.512  0.00  0.00    +0.000 A 
ATOM     21  C   UNL     1       2.468   7.347  18.665  0.00  0.00    +0.000 A 
ATOM     22  C   UNL     1       2.509   8.364  17.726  0.00  0.00    +0.000 A 
ATOM     23  C   UNL     1       1.859   9.522  18.207  0.00  0.00    +0.000 A 
ATOM     24  C   UNL     1       1.196   9.648  19.480  0.00  0.00    +0.000 A 
ATOM     25  C   UNL     1       1.207   8.582  20.414  0.00  0.00    +0.000 A 
ATOM     26  C   UNL     1       1.865   7.411  19.971  0.00  0.00    +0.000 A 
ATOM     27  N   UNL     1       2.040   6.225  20.586  0.00  0.00    +0.000 NA
ATOM     28  N   UNL     1       2.735   5.471  19.705  0.00  0.00    +0.000 N 
ATOM     29  C   UNL     1       3.131   4.129  20.073  0.00  0.00    +0.000 C 
ENDBRANCH   1  24
TORSDOF 1
ENDMDL
