MODEL 1
REMARK VINA RESULT:      -9.5      0.000      0.000
REMARK  Name = 
REMARK  5 active torsions:
REMARK  status: ('A' for Active; 'I' for Inactive)
REMARK    1  A    between atoms: C_2  and  C_3
REMARK    2  A    between atoms: C_3  and  N_4
REMARK    3  A    between atoms: C_8  and  C_9
REMARK    4  A    between atoms: C_9  and  C_10
REMARK    5  A    between atoms: N_21  and  C_22
REMARK                            x       y       z     vdW  Elec       q    Type
REMARK                         _______ _______ _______ _____ _____    ______ ____
ROOT
ATOM      1  N   UNL     1       3.436   3.560  19.692  0.00  0.00    +0.000 N 
ATOM      2  C   UNL     1       3.014   2.448  19.037  0.00  0.00    +0.000 C 
ATOM      3  O   UNL     1       2.056   1.747  19.315  0.00  0.00    +0.000 OA
ATOM      4  N   UNL     1       3.858   2.232  17.979  0.00  0.00    +0.000 N 
ATOM      5  C   UNL     1       4.724   3.365  17.733  0.00  0.00    +0.000 C 
ATOM      6  C   UNL     1       4.432   4.182  18.991  0.00  0.00    +0.000 C 
ATOM      7  O   UNL     1       4.962   5.244  19.283  0.00  0.00    +0.000 OA
ATOM      8  H   UNL     1       3.691   1.481  17.320  0.00  0.00    +0.000 HD
ENDROOT
BRANCH   1   9
ATOM      9  C   UNL     1       2.766   4.112  20.843  0.00  0.00    +0.000 C 
BRANCH   9  11
ATOM     10  O   UNL     1       0.631   5.067  20.458  0.00  0.00    +0.000 OA
ATOM     11  C   UNL     1       1.835   5.294  20.568  0.00  0.00    +0.000 C 
ATOM     12  N   UNL     1       2.412   6.549  20.457  0.00  0.00    +0.000 N 
ATOM     13  H   UNL     1       3.421   6.610  20.345  0.00  0.00    +0.000 HD
BRANCH  12  14
ATOM     14  C   UNL     1       1.704   7.776  20.416  0.00  0.00    +0.000 A 
ATOM     15  C   UNL     1       1.114   8.341  21.548  0.00  0.00    +0.000 A 
ATOM     16  C   UNL     1       0.465   9.576  21.485  0.00  0.00    +0.000 A 
ATOM     17  C   UNL     1       0.407  10.269  20.278  0.00  0.00    +0.000 A 
ATOM     18 CL   UNL     1      -0.362  11.806  20.227  0.00  0.00    +0.000 Cl
ATOM     19  C   UNL     1       0.974   9.725  19.131  0.00  0.00    +0.000 A 
ATOM     20  C   UNL     1       1.619   8.488  19.214  0.00  0.00    +0.000 A 
ATOM     21  F   UNL     1       2.142   7.964  18.090  0.00  0.00    +0.000 F 
ENDBRANCH  12  14
ENDBRANCH   9  11
ENDBRANCH   1   9
BRANCH   5  22
ATOM     22  C   UNL     1       4.333   4.174  16.491  0.00  0.00    +0.000 C 
BRANCH  22  23
ATOM     23  C   UNL     1       5.527   4.657  15.726  0.00  0.00    +0.000 A 
ATOM     24  C   UNL     1       6.554   5.441  16.213  0.00  0.00    +0.000 A 
ATOM     25  N   UNL     1       7.493   5.582  15.227  0.00  0.00    +0.000 N 
ATOM     26  C   UNL     1       7.107   4.895  14.100  0.00  0.00    +0.000 A 
ATOM     27  C   UNL     1       7.772   4.710  12.882  0.00  0.00    +0.000 A 
ATOM     28  C   UNL     1       7.127   3.955  11.899  0.00  0.00    +0.000 A 
ATOM     29  C   UNL     1       5.850   3.444  12.111  0.00  0.00    +0.000 A 
ATOM     30  C   UNL     1       5.193   3.649  13.330  0.00  0.00    +0.000 A 
ATOM     31  C   UNL     1       5.845   4.361  14.359  0.00  0.00    +0.000 A 
ATOM     32  H   UNL     1       8.359   6.097  15.313  0.00  0.00    +0.000 HD
ENDBRANCH  22  23
ENDBRANCH   5  22
TORSDOF 5
ENDMDL
MODEL 2
REMARK VINA RESULT:      -9.1      0.883      1.255
REMARK  Name = 
REMARK  5 active torsions:
REMARK  status: ('A' for Active; 'I' for Inactive)
REMARK    1  A    between atoms: C_2  and  C_3
REMARK    2  A    between atoms: C_3  and  N_4
REMARK    3  A    between atoms: C_8  and  C_9
REMARK    4  A    between atoms: C_9  and  C_10
REMARK    5  A    between atoms: N_21  and  C_22
REMARK                            x       y       z     vdW  Elec       q    Type
REMARK                         _______ _______ _______ _____ _____    ______ ____
ROOT
ATOM      1  N   UNL     1       3.553   3.850  19.743  0.00  0.00    +0.000 N 
ATOM      2  C   UNL     1       3.153   2.661  19.222  0.00  0.00    +0.000 C 
ATOM      3  O   UNL     1       2.215   1.973  19.587  0.00  0.00    +0.000 OA
ATOM      4  N   UNL     1       3.996   2.346  18.188  0.00  0.00    +0.000 N 
ATOM      5  C   UNL     1       4.833   3.463  17.807  0.00  0.00    +0.000 C 
ATOM      6  C   UNL     1       4.529   4.411  18.967  0.00  0.00    +0.000 C 
ATOM      7  O   UNL     1       5.035   5.511  19.131  0.00  0.00    +0.000 OA
ATOM      8  H   UNL     1       3.842   1.521  17.619  0.00  0.00    +0.000 HD
ENDROOT
BRANCH   1   9
ATOM      9  C   UNL     1       2.877   4.513  20.831  0.00  0.00    +0.000 C 
BRANCH   9  11
ATOM     10  O   UNL     1       0.717   5.413  20.455  0.00  0.00    +0.000 OA
ATOM     11  C   UNL     1       1.926   5.641  20.433  0.00  0.00    +0.000 C 
ATOM     12  N   UNL     1       2.490   6.853  20.068  0.00  0.00    +0.000 N 
ATOM     13  H   UNL     1       3.486   6.884  19.869  0.00  0.00    +0.000 HD
BRANCH  12  14
ATOM     14  C   UNL     1       1.778   8.064  19.875  0.00  0.00    +0.000 A 
ATOM     15  C   UNL     1       1.604   8.639  18.614  0.00  0.00    +0.000 A 
ATOM     16  C   UNL     1       0.856   9.808  18.450  0.00  0.00    +0.000 A 
ATOM     17  C   UNL     1       0.263  10.413  19.555  0.00  0.00    +0.000 A 
ATOM     18 CL   UNL     1      -0.687  11.829  19.330  0.00  0.00    +0.000 Cl
ATOM     19  C   UNL     1       0.429   9.870  20.824  0.00  0.00    +0.000 A 
ATOM     20  C   UNL     1       1.181   8.701  20.969  0.00  0.00    +0.000 A 
ATOM     21  F   UNL     1       1.354   8.201  22.206  0.00  0.00    +0.000 F 
ENDBRANCH  12  14
ENDBRANCH   9  11
ENDBRANCH   1   9
BRANCH   5  22
ATOM     22  C   UNL     1       4.413   4.117  16.485  0.00  0.00    +0.000 C 
BRANCH  22  23
ATOM     23  C   UNL     1       5.586   4.627  15.704  0.00  0.00    +0.000 A 
ATOM     24  C   UNL     1       6.608   5.423  16.183  0.00  0.00    +0.000 A 
ATOM     25  N   UNL     1       7.528   5.590  15.182  0.00  0.00    +0.000 N 
ATOM     26  C   UNL     1       7.133   4.908  14.055  0.00  0.00    +0.000 A 
ATOM     27  C   UNL     1       7.781   4.747  12.824  0.00  0.00    +0.000 A 
ATOM     28  C   UNL     1       7.131   3.993  11.844  0.00  0.00    +0.000 A 
ATOM     29  C   UNL     1       5.867   3.458  12.072  0.00  0.00    +0.000 A 
ATOM     30  C   UNL     1       5.228   3.639  13.304  0.00  0.00    +0.000 A 
ATOM     31  C   UNL     1       5.885   4.350  14.329  0.00  0.00    +0.000 A 
ATOM     32  H   UNL     1       8.386   6.119  15.259  0.00  0.00    +0.000 HD
ENDBRANCH  22  23
ENDBRANCH   5  22
TORSDOF 5
ENDMDL
MODEL 3
REMARK VINA RESULT:      -8.1      3.133      7.825
REMARK  Name = 
REMARK  5 active torsions:
REMARK  status: ('A' for Active; 'I' for Inactive)
REMARK    1  A    between atoms: C_2  and  C_3
REMARK    2  A    between atoms: C_3  and  N_4
REMARK    3  A    between atoms: C_8  and  C_9
REMARK    4  A    between atoms: C_9  and  C_10
REMARK    5  A    between atoms: N_21  and  C_22
REMARK                            x       y       z     vdW  Elec       q    Type
REMARK                         _______ _______ _______ _____ _____    ______ ____
ROOT
ATOM      1  N   UNL     1       2.179   3.284  19.764  0.00  0.00    +0.000 N 
ATOM      2  C   UNL     1       2.528   3.434  21.067  0.00  0.00    +0.000 C 
ATOM      3  O   UNL     1       3.127   2.637  21.768  0.00  0.00    +0.000 OA
ATOM      4  N   UNL     1       2.088   4.663  21.486  0.00  0.00    +0.000 N 
ATOM      5  C   UNL     1       1.663   5.495  20.381  0.00  0.00    +0.000 C 
ATOM      6  C   UNL     1       1.676   4.453  19.263  0.00  0.00    +0.000 C 
ATOM      7  O   UNL     1       1.346   4.656  18.104  0.00  0.00    +0.000 OA
ATOM      8  H   UNL     1       2.295   5.004  22.418  0.00  0.00    +0.000 HD
ENDROOT
BRANCH   1   9
ATOM      9  C   UNL     1       2.507   2.121  18.978  0.00  0.00    +0.000 C 
BRANCH   9  11
ATOM     10  O   UNL     1       4.171   1.268  17.521  0.00  0.00    +0.000 OA
ATOM     11  C   UNL     1       3.675   2.284  18.004  0.00  0.00    +0.000 C 
ATOM     12  N   UNL     1       4.104   3.574  17.732  0.00  0.00    +0.000 N 
ATOM     13  H   UNL     1       3.786   4.328  18.335  0.00  0.00    +0.000 HD
BRANCH  12  14
ATOM     14  C   UNL     1       5.017   3.935  16.710  0.00  0.00    +0.000 A 
ATOM     15  C   UNL     1       4.673   3.924  15.357  0.00  0.00    +0.000 A 
ATOM     16  C   UNL     1       5.581   4.333  14.377  0.00  0.00    +0.000 A 
ATOM     17  C   UNL     1       6.851   4.769  14.746  0.00  0.00    +0.000 A 
ATOM     18 CL   UNL     1       7.942   5.305  13.530  0.00  0.00    +0.000 Cl
ATOM     19  C   UNL     1       7.226   4.779  16.084  0.00  0.00    +0.000 A 
ATOM     20  C   UNL     1       6.305   4.366  17.051  0.00  0.00    +0.000 A 
ATOM     21  F   UNL     1       6.691   4.358  18.340  0.00  0.00    +0.000 F 
ENDBRANCH  12  14
ENDBRANCH   9  11
ENDBRANCH   1   9
BRANCH   5  22
ATOM     22  C   UNL     1       2.651   6.619  20.048  0.00  0.00    +0.000 C 
BRANCH  22  23
ATOM     23  C   UNL     1       1.958   7.895  19.673  0.00  0.00    +0.000 A 
ATOM     24  C   UNL     1       1.858   8.435  18.406  0.00  0.00    +0.000 A 
ATOM     25  N   UNL     1       1.071   9.552  18.476  0.00  0.00    +0.000 N 
ATOM     26  C   UNL     1       0.640   9.752  19.767  0.00  0.00    +0.000 A 
ATOM     27  C   UNL     1      -0.221  10.722  20.292  0.00  0.00    +0.000 A 
ATOM     28  C   UNL     1      -0.481  10.685  21.664  0.00  0.00    +0.000 A 
ATOM     29  C   UNL     1       0.132   9.740  22.483  0.00  0.00    +0.000 A 
ATOM     30  C   UNL     1       1.001   8.785  21.944  0.00  0.00    +0.000 A 
ATOM     31  C   UNL     1       1.237   8.767  20.554  0.00  0.00    +0.000 A 
ATOM     32  H   UNL     1       0.818  10.139  17.692  0.00  0.00    +0.000 HD
ENDBRANCH  22  23
ENDBRANCH   5  22
TORSDOF 5
ENDMDL
MODEL 4
REMARK VINA RESULT:      -7.9      1.419      1.969
REMARK  Name = 
REMARK  5 active torsions:
REMARK  status: ('A' for Active; 'I' for Inactive)
REMARK    1  A    between atoms: C_2  and  C_3
REMARK    2  A    between atoms: C_3  and  N_4
REMARK    3  A    between atoms: C_8  and  C_9
REMARK    4  A    between atoms: C_9  and  C_10
REMARK    5  A    between atoms: N_21  and  C_22
REMARK                            x       y       z     vdW  Elec       q    Type
REMARK                         _______ _______ _______ _____ _____    ______ ____
ROOT
ATOM      1  N   UNL     1       3.276   5.127  18.871  0.00  0.00    +0.000 N 
ATOM      2  C   UNL     1       3.598   6.039  17.918  0.00  0.00    +0.000 C 
ATOM      3  O   UNL     1       3.731   7.242  18.063  0.00  0.00    +0.000 OA
ATOM      4  N   UNL     1       3.756   5.375  16.730  0.00  0.00    +0.000 N 
ATOM      5  C   UNL     1       3.811   3.940  16.910  0.00  0.00    +0.000 C 
ATOM      6  C   UNL     1       3.391   3.856  18.378  0.00  0.00    +0.000 C 
ATOM      7  O   UNL     1       3.244   2.823  19.012  0.00  0.00    +0.000 OA
ATOM      8  H   UNL     1       4.055   5.862  15.893  0.00  0.00    +0.000 HD
ENDROOT
BRANCH   1   9
ATOM      9  C   UNL     1       3.066   5.460  20.258  0.00  0.00    +0.000 C 
BRANCH   9  11
ATOM     10  O   UNL     1       0.770   5.802  20.733  0.00  0.00    +0.000 OA
ATOM     11  C   UNL     1       1.857   6.348  20.552  0.00  0.00    +0.000 C 
ATOM     12  N   UNL     1       2.065   7.717  20.592  0.00  0.00    +0.000 N 
ATOM     13  H   UNL     1       2.935   8.087  20.219  0.00  0.00    +0.000 HD
BRANCH  12  14
ATOM     14  C   UNL     1       1.127   8.676  21.052  0.00  0.00    +0.000 A 
ATOM     15  C   UNL     1       0.833   8.848  22.406  0.00  0.00    +0.000 A 
ATOM     16  C   UNL     1      -0.060   9.835  22.832  0.00  0.00    +0.000 A 
ATOM     17  C   UNL     1      -0.666  10.672  21.898  0.00  0.00    +0.000 A 
ATOM     18 CL   UNL     1      -1.732  11.907  22.443  0.00  0.00    +0.000 Cl
ATOM     19  C   UNL     1      -0.402  10.516  20.542  0.00  0.00    +0.000 A 
ATOM     20  C   UNL     1       0.494   9.523  20.135  0.00  0.00    +0.000 A 
ATOM     21  F   UNL     1       0.720   9.368  18.818  0.00  0.00    +0.000 F 
ENDBRANCH  12  14
ENDBRANCH   9  11
ENDBRANCH   1   9
BRANCH   5  22
ATOM     22  C   UNL     1       5.220   3.358  16.744  0.00  0.00    +0.000 C 
BRANCH  22  23
ATOM     23  C   UNL     1       6.095   4.220  15.885  0.00  0.00    +0.000 A 
ATOM     24  C   UNL     1       6.934   5.228  16.318  0.00  0.00    +0.000 A 
ATOM     25  N   UNL     1       7.624   5.706  15.236  0.00  0.00    +0.000 N 
ATOM     26  C   UNL     1       7.260   5.023  14.099  0.00  0.00    +0.000 A 
ATOM     27  C   UNL     1       7.741   5.130  12.789  0.00  0.00    +0.000 A 
ATOM     28  C   UNL     1       7.174   4.298  11.820  0.00  0.00    +0.000 A 
ATOM     29  C   UNL     1       6.138   3.426  12.143  0.00  0.00    +0.000 A 
ATOM     30  C   UNL     1       5.659   3.341  13.455  0.00  0.00    +0.000 A 
ATOM     31  C   UNL     1       6.252   4.131  14.463  0.00  0.00    +0.000 A 
ATOM     32  H   UNL     1       8.318   6.441  15.264  0.00  0.00    +0.000 HD
ENDBRANCH  22  23
ENDBRANCH   5  22
TORSDOF 5
ENDMDL
MODEL 5
REMARK VINA RESULT:      -7.9      5.116      7.430
REMARK  Name = 
REMARK  5 active torsions:
REMARK  status: ('A' for Active; 'I' for Inactive)
REMARK    1  A    between atoms: C_2  and  C_3
REMARK    2  A    between atoms: C_3  and  N_4
REMARK    3  A    between atoms: C_8  and  C_9
REMARK    4  A    between atoms: C_9  and  C_10
REMARK    5  A    between atoms: N_21  and  C_22
REMARK                            x       y       z     vdW  Elec       q    Type
REMARK                         _______ _______ _______ _____ _____    ______ ____
ROOT
ATOM      1  N   UNL     1       6.919   6.693  18.124  0.00  0.00    +0.000 N 
ATOM      2  C   UNL     1       5.852   6.672  17.283  0.00  0.00    +0.000 C 
ATOM      3  O   UNL     1       5.774   7.178  16.178  0.00  0.00    +0.000 OA
ATOM      4  N   UNL     1       4.846   5.967  17.892  0.00  0.00    +0.000 N 
ATOM      5  C   UNL     1       5.311   5.254  19.063  0.00  0.00    +0.000 C 
ATOM      6  C   UNL     1       6.703   5.871  19.196  0.00  0.00    +0.000 C 
ATOM      7  O   UNL     1       7.504   5.620  20.083  0.00  0.00    +0.000 OA
ATOM      8  H   UNL     1       3.973   5.779  17.412  0.00  0.00    +0.000 HD
ENDROOT
BRANCH   1   9
ATOM      9  C   UNL     1       8.176   7.320  17.803  0.00  0.00    +0.000 C 
BRANCH   9  11
ATOM     10  O   UNL     1       7.472   9.576  17.627  0.00  0.00    +0.000 OA
ATOM     11  C   UNL     1       8.283   8.808  18.141  0.00  0.00    +0.000 C 
ATOM     12  N   UNL     1       9.294   9.195  19.005  0.00  0.00    +0.000 N 
ATOM     13  H   UNL     1      10.042   8.535  19.204  0.00  0.00    +0.000 HD
BRANCH  12  14
ATOM     14  C   UNL     1       9.422  10.477  19.596  0.00  0.00    +0.000 A 
ATOM     15  C   UNL     1       9.041  10.738  20.913  0.00  0.00    +0.000 A 
ATOM     16  C   UNL     1       9.224  12.001  21.483  0.00  0.00    +0.000 A 
ATOM     17  C   UNL     1       9.804  13.022  20.734  0.00  0.00    +0.000 A 
ATOM     18 CL   UNL     1      10.058  14.558  21.463  0.00  0.00    +0.000 Cl
ATOM     19  C   UNL     1      10.183  12.795  19.416  0.00  0.00    +0.000 A 
ATOM     20  C   UNL     1       9.991  11.526  18.863  0.00  0.00    +0.000 A 
ATOM     21  F   UNL     1      10.340  11.329  17.579  0.00  0.00    +0.000 F 
ENDBRANCH  12  14
ENDBRANCH   9  11
ENDBRANCH   1   9
BRANCH   5  22
ATOM     22  C   UNL     1       5.437   3.741  18.846  0.00  0.00    +0.000 C 
BRANCH  22  23
ATOM     23  C   UNL     1       4.119   3.099  18.535  0.00  0.00    +0.000 A 
ATOM     24  C   UNL     1       3.891   2.093  17.617  0.00  0.00    +0.000 A 
ATOM     25  N   UNL     1       2.575   1.723  17.702  0.00  0.00    +0.000 N 
ATOM     26  C   UNL     1       1.935   2.462  18.669  0.00  0.00    +0.000 A 
ATOM     27  C   UNL     1       0.617   2.387  19.137  0.00  0.00    +0.000 A 
ATOM     28  C   UNL     1       0.235   3.281  20.141  0.00  0.00    +0.000 A 
ATOM     29  C   UNL     1       1.123   4.238  20.625  0.00  0.00    +0.000 A 
ATOM     30  C   UNL     1       2.432   4.307  20.136  0.00  0.00    +0.000 A 
ATOM     31  C   UNL     1       2.860   3.381  19.162  0.00  0.00    +0.000 A 
ATOM     32  H   UNL     1       2.136   0.997  17.152  0.00  0.00    +0.000 HD
ENDBRANCH  22  23
ENDBRANCH   5  22
TORSDOF 5
ENDMDL
MODEL 6
REMARK VINA RESULT:      -7.9      1.077      1.080
REMARK  Name = 
REMARK  5 active torsions:
REMARK  status: ('A' for Active; 'I' for Inactive)
REMARK    1  A    between atoms: C_2  and  C_3
REMARK    2  A    between atoms: C_3  and  N_4
REMARK    3  A    between atoms: C_8  and  C_9
REMARK    4  A    between atoms: C_9  and  C_10
REMARK    5  A    between atoms: N_21  and  C_22
REMARK                            x       y       z     vdW  Elec       q    Type
REMARK                         _______ _______ _______ _____ _____    ______ ____
ROOT
ATOM      1  N   UNL     1       3.927   4.329  19.811  0.00  0.00    +0.000 N 
ATOM      2  C   UNL     1       4.714   3.225  19.734  0.00  0.00    +0.000 C 
ATOM      3  O   UNL     1       4.602   2.192  20.373  0.00  0.00    +0.000 OA
ATOM      4  N   UNL     1       5.685   3.459  18.795  0.00  0.00    +0.000 N 
ATOM      5  C   UNL     1       5.409   4.643  18.010  0.00  0.00    +0.000 C 
ATOM      6  C   UNL     1       4.247   5.217  18.821  0.00  0.00    +0.000 C 
ATOM      7  O   UNL     1       3.669   6.266  18.582  0.00  0.00    +0.000 OA
ATOM      8  H   UNL     1       6.349   2.739  18.538  0.00  0.00    +0.000 HD
ENDROOT
BRANCH   1   9
ATOM      9  C   UNL     1       2.777   4.432  20.674  0.00  0.00    +0.000 C 
BRANCH   9  11
ATOM     10  O   UNL     1       0.776   5.294  19.742  0.00  0.00    +0.000 OA
ATOM     11  C   UNL     1       1.806   5.569  20.356  0.00  0.00    +0.000 C 
ATOM     12  N   UNL     1       2.153   6.842  20.779  0.00  0.00    +0.000 N 
ATOM     13  H   UNL     1       3.109   7.009  21.080  0.00  0.00    +0.000 HD
BRANCH  12  14
ATOM     14  C   UNL     1       1.297   7.972  20.765  0.00  0.00    +0.000 A 
ATOM     15  C   UNL     1       0.412   8.257  21.807  0.00  0.00    +0.000 A 
ATOM     16  C   UNL     1      -0.383   9.405  21.787  0.00  0.00    +0.000 A 
ATOM     17  C   UNL     1      -0.293  10.292  20.717  0.00  0.00    +0.000 A 
ATOM     18 CL   UNL     1      -1.251  11.720  20.727  0.00  0.00    +0.000 Cl
ATOM     19  C   UNL     1       0.570  10.029  19.659  0.00  0.00    +0.000 A 
ATOM     20  C   UNL     1       1.357   8.875  19.697  0.00  0.00    +0.000 A 
ATOM     21  F   UNL     1       2.169   8.622  18.655  0.00  0.00    +0.000 F 
ENDBRANCH  12  14
ENDBRANCH   9  11
ENDBRANCH   1   9
BRANCH   5  22
ATOM     22  C   UNL     1       4.937   4.333  16.584  0.00  0.00    +0.000 C 
BRANCH  22  23
ATOM     23  C   UNL     1       5.955   4.713  15.552  0.00  0.00    +0.000 A 
ATOM     24  C   UNL     1       7.065   5.511  15.747  0.00  0.00    +0.000 A 
ATOM     25  N   UNL     1       7.786   5.537  14.583  0.00  0.00    +0.000 N 
ATOM     26  C   UNL     1       7.175   4.760  13.627  0.00  0.00    +0.000 A 
ATOM     27  C   UNL     1       7.579   4.447  12.324  0.00  0.00    +0.000 A 
ATOM     28  C   UNL     1       6.742   3.623  11.566  0.00  0.00    +0.000 A 
ATOM     29  C   UNL     1       5.531   3.167  12.078  0.00  0.00    +0.000 A 
ATOM     30  C   UNL     1       5.136   3.499  13.379  0.00  0.00    +0.000 A 
ATOM     31  C   UNL     1       5.987   4.284  14.184  0.00  0.00    +0.000 A 
ATOM     32  H   UNL     1       8.655   6.035  14.445  0.00  0.00    +0.000 HD
ENDBRANCH  22  23
ENDBRANCH   5  22
TORSDOF 5
ENDMDL
MODEL 7
REMARK VINA RESULT:      -7.9      4.778      7.476
REMARK  Name = 
REMARK  5 active torsions:
REMARK  status: ('A' for Active; 'I' for Inactive)
REMARK    1  A    between atoms: C_2  and  C_3
REMARK    2  A    between atoms: C_3  and  N_4
REMARK    3  A    between atoms: C_8  and  C_9
REMARK    4  A    between atoms: C_9  and  C_10
REMARK    5  A    between atoms: N_21  and  C_22
REMARK                            x       y       z     vdW  Elec       q    Type
REMARK                         _______ _______ _______ _____ _____    ______ ____
ROOT
ATOM      1  N   UNL     1       6.598   6.213  17.407  0.00  0.00    +0.000 N 
ATOM      2  C   UNL     1       6.782   5.734  16.149  0.00  0.00    +0.000 C 
ATOM      3  O   UNL     1       7.829   5.673  15.528  0.00  0.00    +0.000 OA
ATOM      4  N   UNL     1       5.567   5.315  15.673  0.00  0.00    +0.000 N 
ATOM      5  C   UNL     1       4.565   5.251  16.716  0.00  0.00    +0.000 C 
ATOM      6  C   UNL     1       5.325   5.959  17.837  0.00  0.00    +0.000 C 
ATOM      7  O   UNL     1       4.881   6.198  18.949  0.00  0.00    +0.000 OA
ATOM      8  H   UNL     1       5.485   4.867  14.768  0.00  0.00    +0.000 HD
ENDROOT
BRANCH   1   9
ATOM      9  C   UNL     1       7.667   6.713  18.235  0.00  0.00    +0.000 C 
BRANCH   9  11
ATOM     10  O   UNL     1       7.576   8.759  17.041  0.00  0.00    +0.000 OA
ATOM     11  C   UNL     1       8.047   8.178  18.018  0.00  0.00    +0.000 C 
ATOM     12  N   UNL     1       8.905   8.758  18.939  0.00  0.00    +0.000 N 
ATOM     13  H   UNL     1       9.411   8.152  19.579  0.00  0.00    +0.000 HD
BRANCH  12  14
ATOM     14  C   UNL     1       9.201  10.142  19.026  0.00  0.00    +0.000 A 
ATOM     15  C   UNL     1       9.435  10.932  17.898  0.00  0.00    +0.000 A 
ATOM     16  C   UNL     1       9.676  12.303  18.014  0.00  0.00    +0.000 A 
ATOM     17  C   UNL     1       9.676  12.904  19.270  0.00  0.00    +0.000 A 
ATOM     18 CL   UNL     1       9.936  14.600  19.390  0.00  0.00    +0.000 Cl
ATOM     19  C   UNL     1       9.459  12.141  20.411  0.00  0.00    +0.000 A 
ATOM     20  C   UNL     1       9.220  10.770  20.276  0.00  0.00    +0.000 A 
ATOM     21  F   UNL     1       9.036  10.041  21.392  0.00  0.00    +0.000 F 
ENDBRANCH  12  14
ENDBRANCH   9  11
ENDBRANCH   1   9
BRANCH   5  22
ATOM     22  C   UNL     1       4.225   3.820  17.148  0.00  0.00    +0.000 C 
BRANCH  22  23
ATOM     23  C   UNL     1       2.923   3.743  17.888  0.00  0.00    +0.000 A 
ATOM     24  C   UNL     1       1.667   3.991  17.370  0.00  0.00    +0.000 A 
ATOM     25  N   UNL     1       0.741   3.722  18.341  0.00  0.00    +0.000 N 
ATOM     26  C   UNL     1       1.365   3.289  19.488  0.00  0.00    +0.000 A 
ATOM     27  C   UNL     1       0.822   2.850  20.701  0.00  0.00    +0.000 A 
ATOM     28  C   UNL     1       1.711   2.469  21.709  0.00  0.00    +0.000 A 
ATOM     29  C   UNL     1       3.088   2.565  21.524  0.00  0.00    +0.000 A 
ATOM     30  C   UNL     1       3.614   3.018  20.310  0.00  0.00    +0.000 A 
ATOM     31  C   UNL     1       2.739   3.358  19.256  0.00  0.00    +0.000 A 
ATOM     32  H   UNL     1      -0.261   3.805  18.232  0.00  0.00    +0.000 HD
ENDBRANCH  22  23
ENDBRANCH   5  22
TORSDOF 5
ENDMDL
MODEL 8
REMARK VINA RESULT:      -7.9      3.118      8.373
REMARK  Name = 
REMARK  5 active torsions:
REMARK  status: ('A' for Active; 'I' for Inactive)
REMARK    1  A    between atoms: C_2  and  C_3
REMARK    2  A    between atoms: C_3  and  N_4
REMARK    3  A    between atoms: C_8  and  C_9
REMARK    4  A    between atoms: C_9  and  C_10
REMARK    5  A    between atoms: N_21  and  C_22
REMARK                            x       y       z     vdW  Elec       q    Type
REMARK                         _______ _______ _______ _____ _____    ______ ____
ROOT
ATOM      1  N   UNL     1       2.633   3.943  20.033  0.00  0.00    +0.000 N 
ATOM      2  C   UNL     1       1.533   3.607  20.755  0.00  0.00    +0.000 C 
ATOM      3  O   UNL     1       1.335   2.564  21.354  0.00  0.00    +0.000 OA
ATOM      4  N   UNL     1       0.655   4.658  20.706  0.00  0.00    +0.000 N 
ATOM      5  C   UNL     1       1.265   5.853  20.165  0.00  0.00    +0.000 C 
ATOM      6  C   UNL     1       2.576   5.257  19.655  0.00  0.00    +0.000 C 
ATOM      7  O   UNL     1       3.449   5.873  19.063  0.00  0.00    +0.000 OA
ATOM      8  H   UNL     1      -0.213   4.640  21.229  0.00  0.00    +0.000 HD
ENDROOT
BRANCH   1   9
ATOM      9  C   UNL     1       3.786   3.090  19.888  0.00  0.00    +0.000 C 
BRANCH   9  11
ATOM     10  O   UNL     1       4.008   2.096  17.749  0.00  0.00    +0.000 OA
ATOM     11  C   UNL     1       4.381   3.009  18.482  0.00  0.00    +0.000 C 
ATOM     12  N   UNL     1       5.310   3.974  18.126  0.00  0.00    +0.000 N 
ATOM     13  H   UNL     1       5.716   4.550  18.859  0.00  0.00    +0.000 HD
BRANCH  12  14
ATOM     14  C   UNL     1       5.808   4.189  16.816  0.00  0.00    +0.000 A 
ATOM     15  C   UNL     1       5.015   4.034  15.677  0.00  0.00    +0.000 A 
ATOM     16  C   UNL     1       5.521   4.300  14.403  0.00  0.00    +0.000 A 
ATOM     17  C   UNL     1       6.836   4.737  14.255  0.00  0.00    +0.000 A 
ATOM     18 CL   UNL     1       7.430   5.098  12.683  0.00  0.00    +0.000 Cl
ATOM     19  C   UNL     1       7.652   4.888  15.370  0.00  0.00    +0.000 A 
ATOM     20  C   UNL     1       7.129   4.616  16.637  0.00  0.00    +0.000 A 
ATOM     21  F   UNL     1       7.939   4.744  17.704  0.00  0.00    +0.000 F 
ENDBRANCH  12  14
ENDBRANCH   9  11
ENDBRANCH   1   9
BRANCH   5  22
ATOM     22  C   UNL     1       1.562   6.920  21.225  0.00  0.00    +0.000 C 
BRANCH  22  23
ATOM     23  C   UNL     1       1.180   8.297  20.771  0.00  0.00    +0.000 A 
ATOM     24  C   UNL     1       1.453   8.862  19.541  0.00  0.00    +0.000 A 
ATOM     25  N   UNL     1       0.855  10.093  19.491  0.00  0.00    +0.000 N 
ATOM     26  C   UNL     1       0.183  10.343  20.665  0.00  0.00    +0.000 A 
ATOM     27  C   UNL     1      -0.610  11.436  21.035  0.00  0.00    +0.000 A 
ATOM     28  C   UNL     1      -1.174  11.423  22.314  0.00  0.00    +0.000 A 
ATOM     29  C   UNL     1      -0.917  10.381  23.200  0.00  0.00    +0.000 A 
ATOM     30  C   UNL     1      -0.110   9.303  22.818  0.00  0.00    +0.000 A 
ATOM     31  C   UNL     1       0.426   9.264  21.514  0.00  0.00    +0.000 A 
ATOM     32  H   UNL     1       0.880  10.723  18.701  0.00  0.00    +0.000 HD
ENDBRANCH  22  23
ENDBRANCH   5  22
TORSDOF 5
ENDMDL
MODEL 9
REMARK VINA RESULT:      -7.8      4.928      7.369
REMARK  Name = 
REMARK  5 active torsions:
REMARK  status: ('A' for Active; 'I' for Inactive)
REMARK    1  A    between atoms: C_2  and  C_3
REMARK    2  A    between atoms: C_3  and  N_4
REMARK    3  A    between atoms: C_8  and  C_9
REMARK    4  A    between atoms: C_9  and  C_10
REMARK    5  A    between atoms: N_21  and  C_22
REMARK                            x       y       z     vdW  Elec       q    Type
REMARK                         _______ _______ _______ _____ _____    ______ ____
ROOT
ATOM      1  N   UNL     1       6.601   6.449  17.568  0.00  0.00    +0.000 N 
ATOM      2  C   UNL     1       6.855   5.532  18.536  0.00  0.00    +0.000 C 
ATOM      3  O   UNL     1       7.057   5.744  19.719  0.00  0.00    +0.000 OA
ATOM      4  N   UNL     1       6.846   4.289  17.957  0.00  0.00    +0.000 N 
ATOM      5  C   UNL     1       6.310   4.317  16.613  0.00  0.00    +0.000 C 
ATOM      6  C   UNL     1       6.251   5.829  16.399  0.00  0.00    +0.000 C 
ATOM      7  O   UNL     1       5.892   6.383  15.371  0.00  0.00    +0.000 OA
ATOM      8  H   UNL     1       6.959   3.450  18.515  0.00  0.00    +0.000 HD
ENDROOT
BRANCH   1   9
ATOM      9  C   UNL     1       6.500   7.865  17.816  0.00  0.00    +0.000 C 
BRANCH   9  11
ATOM     10  O   UNL     1       8.639   8.285  16.886  0.00  0.00    +0.000 OA
ATOM     11  C   UNL     1       7.806   8.653  17.713  0.00  0.00    +0.000 C 
ATOM     12  N   UNL     1       7.969   9.734  18.565  0.00  0.00    +0.000 N 
ATOM     13  H   UNL     1       7.334   9.829  19.353  0.00  0.00    +0.000 HD
BRANCH  12  14
ATOM     14  C   UNL     1       9.003  10.700  18.476  0.00  0.00    +0.000 A 
ATOM     15  C   UNL     1      10.229  10.548  19.126  0.00  0.00    +0.000 A 
ATOM     16  C   UNL     1      11.247  11.494  18.980  0.00  0.00    +0.000 A 
ATOM     17  C   UNL     1      11.047  12.608  18.168  0.00  0.00    +0.000 A 
ATOM     18 CL   UNL     1      12.324  13.742  17.968  0.00  0.00    +0.000 Cl
ATOM     19  C   UNL     1       9.832  12.792  17.519  0.00  0.00    +0.000 A 
ATOM     20  C   UNL     1       8.825  11.835  17.677  0.00  0.00    +0.000 A 
ATOM     21  F   UNL     1       7.647  12.040  17.062  0.00  0.00    +0.000 F 
ENDBRANCH  12  14
ENDBRANCH   9  11
ENDBRANCH   1   9
BRANCH   5  22
ATOM     22  C   UNL     1       4.899   3.727  16.507  0.00  0.00    +0.000 C 
BRANCH  22  23
ATOM     23  C   UNL     1       4.190   3.704  17.827  0.00  0.00    +0.000 A 
ATOM     24  C   UNL     1       4.172   2.660  18.732  0.00  0.00    +0.000 A 
ATOM     25  N   UNL     1       3.492   3.071  19.848  0.00  0.00    +0.000 N 
ATOM     26  C   UNL     1       3.072   4.372  19.697  0.00  0.00    +0.000 A 
ATOM     27  C   UNL     1       2.401   5.214  20.592  0.00  0.00    +0.000 A 
ATOM     28  C   UNL     1       2.093   6.506  20.160  0.00  0.00    +0.000 A 
ATOM     29  C   UNL     1       2.405   6.923  18.869  0.00  0.00    +0.000 A 
ATOM     30  C   UNL     1       3.064   6.065  17.982  0.00  0.00    +0.000 A 
ATOM     31  C   UNL     1       3.435   4.773  18.411  0.00  0.00    +0.000 A 
ATOM     32  H   UNL     1       3.337   2.513  20.676  0.00  0.00    +0.000 HD
ENDBRANCH  22  23
ENDBRANCH   5  22
TORSDOF 5
ENDMDL
