MODEL 1
REMARK VINA RESULT:      -7.9      0.000      0.000
REMARK  Name = 
REMARK  9 active torsions:
REMARK  status: ('A' for Active; 'I' for Inactive)
REMARK    1  A    between atoms: C_1  and  C_2
REMARK    2  A    between atoms: C_4  and  C_5
REMARK    3  A    between atoms: N_7  and  C_8
REMARK    4  A    between atoms: C_12  and  C_13
REMARK    5  A    between atoms: C_13  and  C_14
REMARK    6  A    between atoms: C_14  and  C_15
REMARK    7  A    between atoms: C_14  and  C_16
REMARK    8  A    between atoms: N_20  and  C_21
REMARK    9  A    between atoms: C_27  and  C_28
REMARK                            x       y       z     vdW  Elec       q    Type
REMARK                         _______ _______ _______ _____ _____    ______ ____
ROOT
ATOM      1  C   UNL     1       0.806   9.787  18.094  0.00  0.00    +0.000 A 
ATOM      2  C   UNL     1      -0.568   9.743  17.886  0.00  0.00    +0.000 A 
ATOM      3  C   UNL     1      -1.338  10.883  18.061  0.00  0.00    +0.000 A 
ATOM      4  C   UNL     1      -0.730  12.071  18.457  0.00  0.00    +0.000 A 
ATOM      5  C   UNL     1       0.634  12.150  18.803  0.00  0.00    +0.000 A 
ATOM      6  C   UNL     1       1.385  10.965  18.595  0.00  0.00    +0.000 A 
ENDROOT
BRANCH   1   9
ATOM      7  C   UNL     1       2.174   7.787  18.698  0.00  0.00    +0.000 C 
ATOM      8  O   UNL     1       2.032   7.794  19.919  0.00  0.00    +0.000 OA
ATOM      9  N   UNL     1       1.654   8.697  17.792  0.00  0.00    +0.000 N 
ATOM     10  H   UNL     1       1.817   8.475  16.814  0.00  0.00    +0.000 HD
BRANCH   7  14
ATOM     11  C   UNL     1       6.343   6.040  16.555  0.00  0.00    +0.000 C 
ATOM     12  C   UNL     1       4.942   5.850  17.048  0.00  0.00    +0.000 A 
ATOM     13  C   UNL     1       4.221   6.909  17.591  0.00  0.00    +0.000 A 
ATOM     14  C   UNL     1       2.941   6.662  18.072  0.00  0.00    +0.000 A 
ATOM     15  N   UNL     1       2.351   5.437  18.078  0.00  0.00    +0.000 NA
ATOM     16  C   UNL     1       3.055   4.400  17.550  0.00  0.00    +0.000 A 
ATOM     17  C   UNL     1       4.334   4.590  17.015  0.00  0.00    +0.000 A 
BRANCH  16  18
ATOM     18  C   UNL     1       2.476   3.008  17.660  0.00  0.00    +0.000 C 
ATOM     19  C   UNL     1       2.305   2.323  18.995  0.00  0.00    +0.000 C 
ATOM     20  C   UNL     1       3.361   1.846  18.042  0.00  0.00    +0.000 C 
ENDBRANCH  16  18
ENDBRANCH   7  14
ENDBRANCH   1   9
BRANCH   5  21
ATOM     21  C   UNL     1       1.281  13.548  19.357  0.00  0.00    +0.000 C 
ATOM     22  C   UNL     1       0.362  14.791  19.003  0.00  0.00    +0.000 C 
ATOM     23  C   UNL     1       1.622  15.607  18.697  0.00  0.00    +0.000 C 
ATOM     24  C   UNL     1       2.362  14.278  18.463  0.00  0.00    +0.000 C 
BRANCH  21  25
ATOM     25  C   UNL     1       1.776  13.455  20.850  0.00  0.00    +0.000 C 
ATOM     26  C   UNL     1       3.178  14.047  21.044  0.00  0.00    +0.000 C 
BRANCH  25  27
ATOM     27  C   UNL     1       0.819  14.074  21.838  0.00  0.00    +0.000 A 
ATOM     28  N   UNL     1       0.905  15.277  22.373  0.00  0.00    +0.000 NA
ATOM     29  N   UNL     1      -0.135  15.450  23.251  0.00  0.00    +0.000 NA
ATOM     30  C   UNL     1      -0.845  14.351  23.237  0.00  0.00    +0.000 A 
ATOM     31  N   UNL     1      -0.297  13.463  22.362  0.00  0.00    +0.000 N 
ATOM     32  C   UNL     1      -0.825  12.157  22.079  0.00  0.00    +0.000 C 
ENDBRANCH  25  27
ENDBRANCH  21  25
ENDBRANCH   5  21
TORSDOF 6
ENDMDL
MODEL 2
REMARK VINA RESULT:      -7.9      5.040      9.376
REMARK  Name = 
REMARK  9 active torsions:
REMARK  status: ('A' for Active; 'I' for Inactive)
REMARK    1  A    between atoms: C_1  and  C_2
REMARK    2  A    between atoms: C_4  and  C_5
REMARK    3  A    between atoms: N_7  and  C_8
REMARK    4  A    between atoms: C_12  and  C_13
REMARK    5  A    between atoms: C_13  and  C_14
REMARK    6  A    between atoms: C_14  and  C_15
REMARK    7  A    between atoms: C_14  and  C_16
REMARK    8  A    between atoms: N_20  and  C_21
REMARK    9  A    between atoms: C_27  and  C_28
REMARK                            x       y       z     vdW  Elec       q    Type
REMARK                         _______ _______ _______ _____ _____    ______ ____
ROOT
ATOM      1  C   UNL     1       6.715   6.445  16.717  0.00  0.00    +0.000 A 
ATOM      2  C   UNL     1       7.202   5.761  15.609  0.00  0.00    +0.000 A 
ATOM      3  C   UNL     1       6.609   4.576  15.203  0.00  0.00    +0.000 A 
ATOM      4  C   UNL     1       5.530   4.065  15.919  0.00  0.00    +0.000 A 
ATOM      5  C   UNL     1       5.070   4.643  17.119  0.00  0.00    +0.000 A 
ATOM      6  C   UNL     1       5.695   5.860  17.488  0.00  0.00    +0.000 A 
ENDROOT
BRANCH   1   9
ATOM      7  C   UNL     1       8.046   8.012  18.135  0.00  0.00    +0.000 C 
ATOM      8  O   UNL     1       8.508   7.218  18.951  0.00  0.00    +0.000 OA
ATOM      9  N   UNL     1       7.186   7.725  17.087  0.00  0.00    +0.000 N 
ATOM     10  H   UNL     1       6.980   8.507  16.472  0.00  0.00    +0.000 HD
BRANCH   7  14
ATOM     11  C   UNL     1       7.367  12.812  16.900  0.00  0.00    +0.000 C 
ATOM     12  C   UNL     1       8.130  11.733  17.605  0.00  0.00    +0.000 A 
ATOM     13  C   UNL     1       7.752  10.398  17.498  0.00  0.00    +0.000 A 
ATOM     14  C   UNL     1       8.472   9.447  18.210  0.00  0.00    +0.000 A 
ATOM     15  N   UNL     1       9.510   9.738  19.039  0.00  0.00    +0.000 NA
ATOM     16  C   UNL     1       9.879  11.043  19.147  0.00  0.00    +0.000 A 
ATOM     17  C   UNL     1       9.219  12.045  18.426  0.00  0.00    +0.000 A 
BRANCH  16  18
ATOM     18  C   UNL     1      10.943  11.407  20.156  0.00  0.00    +0.000 C 
ATOM     19  C   UNL     1      10.706  12.456  21.216  0.00  0.00    +0.000 C 
ATOM     20  C   UNL     1      11.638  12.746  20.076  0.00  0.00    +0.000 C 
ENDBRANCH  16  18
ENDBRANCH   7  14
ENDBRANCH   1   9
BRANCH   5  21
ATOM     21  C   UNL     1       3.860   3.949  17.975  0.00  0.00    +0.000 C 
ATOM     22  C   UNL     1       4.324   3.592  19.449  0.00  0.00    +0.000 C 
ATOM     23  C   UNL     1       3.534   2.282  19.357  0.00  0.00    +0.000 C 
ATOM     24  C   UNL     1       3.636   2.390  17.825  0.00  0.00    +0.000 C 
BRANCH  21  25
ATOM     25  C   UNL     1       2.488   4.715  17.847  0.00  0.00    +0.000 C 
ATOM     26  C   UNL     1       1.296   3.765  17.676  0.00  0.00    +0.000 C 
BRANCH  25  27
ATOM     27  C   UNL     1       2.224   5.666  18.988  0.00  0.00    +0.000 A 
ATOM     28  N   UNL     1       1.778   5.353  20.189  0.00  0.00    +0.000 NA
ATOM     29  N   UNL     1       1.635   6.502  20.925  0.00  0.00    +0.000 NA
ATOM     30  C   UNL     1       2.000   7.502  20.164  0.00  0.00    +0.000 A 
ATOM     31  N   UNL     1       2.388   7.031  18.946  0.00  0.00    +0.000 N 
ATOM     32  C   UNL     1       2.868   7.848  17.865  0.00  0.00    +0.000 C 
ENDBRANCH  25  27
ENDBRANCH  21  25
ENDBRANCH   5  21
TORSDOF 6
ENDMDL
MODEL 3
REMARK VINA RESULT:      -7.8      1.674      3.286
REMARK  Name = 
REMARK  9 active torsions:
REMARK  status: ('A' for Active; 'I' for Inactive)
REMARK    1  A    between atoms: C_1  and  C_2
REMARK    2  A    between atoms: C_4  and  C_5
REMARK    3  A    between atoms: N_7  and  C_8
REMARK    4  A    between atoms: C_12  and  C_13
REMARK    5  A    between atoms: C_13  and  C_14
REMARK    6  A    between atoms: C_14  and  C_15
REMARK    7  A    between atoms: C_14  and  C_16
REMARK    8  A    between atoms: N_20  and  C_21
REMARK    9  A    between atoms: C_27  and  C_28
REMARK                            x       y       z     vdW  Elec       q    Type
REMARK                         _______ _______ _______ _____ _____    ______ ____
ROOT
ATOM      1  C   UNL     1       1.871   9.479  18.078  0.00  0.00    +0.000 A 
ATOM      2  C   UNL     1       2.712  10.532  17.736  0.00  0.00    +0.000 A 
ATOM      3  C   UNL     1       2.374  11.833  18.071  0.00  0.00    +0.000 A 
ATOM      4  C   UNL     1       1.182  12.084  18.743  0.00  0.00    +0.000 A 
ATOM      5  C   UNL     1       0.230  11.078  19.008  0.00  0.00    +0.000 A 
ATOM      6  C   UNL     1       0.624   9.761  18.661  0.00  0.00    +0.000 A 
ENDROOT
BRANCH   1   9
ATOM      7  C   UNL     1       2.412   7.178  18.885  0.00  0.00    +0.000 C 
ATOM      8  O   UNL     1       2.335   7.356  20.098  0.00  0.00    +0.000 OA
ATOM      9  N   UNL     1       2.234   8.125  17.890  0.00  0.00    +0.000 N 
ATOM     10  H   UNL     1       2.259   7.764  16.941  0.00  0.00    +0.000 HD
BRANCH   7  14
ATOM     11  C   UNL     1       1.121   2.355  18.580  0.00  0.00    +0.000 C 
ATOM     12  C   UNL     1       2.038   3.492  18.249  0.00  0.00    +0.000 A 
ATOM     13  C   UNL     1       1.813   4.767  18.756  0.00  0.00    +0.000 A 
ATOM     14  C   UNL     1       2.672   5.792  18.379  0.00  0.00    +0.000 A 
ATOM     15  N   UNL     1       3.710   5.638  17.513  0.00  0.00    +0.000 NA
ATOM     16  C   UNL     1       3.929   4.392  17.014  0.00  0.00    +0.000 A 
ATOM     17  C   UNL     1       3.123   3.310  17.384  0.00  0.00    +0.000 A 
BRANCH  16  18
ATOM     18  C   UNL     1       4.993   4.220  15.954  0.00  0.00    +0.000 C 
ATOM     19  C   UNL     1       6.463   4.341  16.279  0.00  0.00    +0.000 C 
ATOM     20  C   UNL     1       5.786   5.412  15.475  0.00  0.00    +0.000 C 
ENDBRANCH  16  18
ENDBRANCH   7  14
ENDBRANCH   1   9
BRANCH   5  21
ATOM     21  C   UNL     1      -1.201  11.440  19.715  0.00  0.00    +0.000 C 
ATOM     22  C   UNL     1      -2.415  10.783  18.934  0.00  0.00    +0.000 C 
ATOM     23  C   UNL     1      -3.226  12.063  19.163  0.00  0.00    +0.000 C 
ATOM     24  C   UNL     1      -1.893  12.813  19.341  0.00  0.00    +0.000 C 
BRANCH  21  25
ATOM     25  C   UNL     1      -1.191  11.240  21.278  0.00  0.00    +0.000 C 
ATOM     26  C   UNL     1      -0.231  10.130  21.725  0.00  0.00    +0.000 C 
BRANCH  25  27
ATOM     27  C   UNL     1      -0.900  12.507  22.043  0.00  0.00    +0.000 A 
ATOM     28  N   UNL     1       0.216  13.210  22.009  0.00  0.00    +0.000 NA
ATOM     29  N   UNL     1       0.101  14.270  22.873  0.00  0.00    +0.000 NA
ATOM     30  C   UNL     1      -1.086  14.202  23.420  0.00  0.00    +0.000 A 
ATOM     31  N   UNL     1      -1.756  13.123  22.927  0.00  0.00    +0.000 N 
ATOM     32  C   UNL     1      -3.095  12.750  23.292  0.00  0.00    +0.000 C 
ENDBRANCH  25  27
ENDBRANCH  21  25
ENDBRANCH   5  21
TORSDOF 6
ENDMDL
MODEL 4
REMARK VINA RESULT:      -7.8      2.047      3.836
REMARK  Name = 
REMARK  9 active torsions:
REMARK  status: ('A' for Active; 'I' for Inactive)
REMARK    1  A    between atoms: C_1  and  C_2
REMARK    2  A    between atoms: C_4  and  C_5
REMARK    3  A    between atoms: N_7  and  C_8
REMARK    4  A    between atoms: C_12  and  C_13
REMARK    5  A    between atoms: C_13  and  C_14
REMARK    6  A    between atoms: C_14  and  C_15
REMARK    7  A    between atoms: C_14  and  C_16
REMARK    8  A    between atoms: N_20  and  C_21
REMARK    9  A    between atoms: C_27  and  C_28
REMARK                            x       y       z     vdW  Elec       q    Type
REMARK                         _______ _______ _______ _____ _____    ______ ____
ROOT
ATOM      1  C   UNL     1       1.383   8.561  20.830  0.00  0.00    +0.000 A 
ATOM      2  C   UNL     1       1.126   8.714  22.188  0.00  0.00    +0.000 A 
ATOM      3  C   UNL     1       0.203   9.652  22.623  0.00  0.00    +0.000 A 
ATOM      4  C   UNL     1      -0.459  10.450  21.694  0.00  0.00    +0.000 A 
ATOM      5  C   UNL     1      -0.154  10.429  20.318  0.00  0.00    +0.000 A 
ATOM      6  C   UNL     1       0.785   9.446  19.916  0.00  0.00    +0.000 A 
ENDROOT
BRANCH   1   9
ATOM      7  C   UNL     1       1.914   6.171  20.337  0.00  0.00    +0.000 C 
ATOM      8  O   UNL     1       0.928   5.629  20.830  0.00  0.00    +0.000 OA
ATOM      9  N   UNL     1       2.203   7.526  20.324  0.00  0.00    +0.000 N 
ATOM     10  H   UNL     1       3.030   7.786  19.795  0.00  0.00    +0.000 HD
BRANCH   7  14
ATOM     11  C   UNL     1       2.976   2.250  17.418  0.00  0.00    +0.000 C 
ATOM     12  C   UNL     1       3.399   3.440  18.223  0.00  0.00    +0.000 A 
ATOM     13  C   UNL     1       2.469   4.201  18.923  0.00  0.00    +0.000 A 
ATOM     14  C   UNL     1       2.915   5.319  19.616  0.00  0.00    +0.000 A 
ATOM     15  N   UNL     1       4.207   5.743  19.630  0.00  0.00    +0.000 NA
ATOM     16  C   UNL     1       5.117   5.002  18.944  0.00  0.00    +0.000 A 
ATOM     17  C   UNL     1       4.738   3.843  18.257  0.00  0.00    +0.000 A 
BRANCH  16  18
ATOM     18  C   UNL     1       6.533   5.520  18.838  0.00  0.00    +0.000 C 
ATOM     19  C   UNL     1       7.005   6.297  17.632  0.00  0.00    +0.000 C 
ATOM     20  C   UNL     1       7.497   4.898  17.856  0.00  0.00    +0.000 C 
ENDBRANCH  16  18
ENDBRANCH   7  14
ENDBRANCH   1   9
BRANCH   5  21
ATOM     21  C   UNL     1      -0.892  11.456  19.280  0.00  0.00    +0.000 C 
ATOM     22  C   UNL     1      -2.412  11.064  19.059  0.00  0.00    +0.000 C 
ATOM     23  C   UNL     1      -2.263  11.408  17.573  0.00  0.00    +0.000 C 
ATOM     24  C   UNL     1      -0.748  11.184  17.728  0.00  0.00    +0.000 C 
BRANCH  21  25
ATOM     25  C   UNL     1      -0.607  12.974  19.597  0.00  0.00    +0.000 C 
ATOM     26  C   UNL     1      -1.680  13.600  20.497  0.00  0.00    +0.000 C 
BRANCH  25  27
ATOM     27  C   UNL     1       0.760  13.216  20.187  0.00  0.00    +0.000 A 
ATOM     28  N   UNL     1       1.049  13.395  21.462  0.00  0.00    +0.000 NA
ATOM     29  N   UNL     1       2.396  13.622  21.586  0.00  0.00    +0.000 NA
ATOM     30  C   UNL     1       2.913  13.575  20.385  0.00  0.00    +0.000 A 
ATOM     31  N   UNL     1       1.934  13.313  19.476  0.00  0.00    +0.000 N 
ATOM     32  C   UNL     1       2.143  13.174  18.061  0.00  0.00    +0.000 C 
ENDBRANCH  25  27
ENDBRANCH  21  25
ENDBRANCH   5  21
TORSDOF 6
ENDMDL
MODEL 5
REMARK VINA RESULT:      -7.7      2.616      4.410
REMARK  Name = 
REMARK  9 active torsions:
REMARK  status: ('A' for Active; 'I' for Inactive)
REMARK    1  A    between atoms: C_1  and  C_2
REMARK    2  A    between atoms: C_4  and  C_5
REMARK    3  A    between atoms: N_7  and  C_8
REMARK    4  A    between atoms: C_12  and  C_13
REMARK    5  A    between atoms: C_13  and  C_14
REMARK    6  A    between atoms: C_14  and  C_15
REMARK    7  A    between atoms: C_14  and  C_16
REMARK    8  A    between atoms: N_20  and  C_21
REMARK    9  A    between atoms: C_27  and  C_28
REMARK                            x       y       z     vdW  Elec       q    Type
REMARK                         _______ _______ _______ _____ _____    ______ ____
ROOT
ATOM      1  C   UNL     1       1.354   8.587  20.640  0.00  0.00    +0.000 A 
ATOM      2  C   UNL     1       0.871   8.645  21.943  0.00  0.00    +0.000 A 
ATOM      3  C   UNL     1      -0.048   9.617  22.304  0.00  0.00    +0.000 A 
ATOM      4  C   UNL     1      -0.479  10.544  21.359  0.00  0.00    +0.000 A 
ATOM      5  C   UNL     1       0.063  10.614  20.060  0.00  0.00    +0.000 A 
ATOM      6  C   UNL     1       0.988   9.593  19.730  0.00  0.00    +0.000 A 
ENDROOT
BRANCH   1   9
ATOM      7  C   UNL     1       1.914   6.178  20.293  0.00  0.00    +0.000 C 
ATOM      8  O   UNL     1       0.949   5.655  20.847  0.00  0.00    +0.000 OA
ATOM      9  N   UNL     1       2.178   7.533  20.182  0.00  0.00    +0.000 N 
ATOM     10  H   UNL     1       2.987   7.771  19.616  0.00  0.00    +0.000 HD
BRANCH   7  14
ATOM     11  C   UNL     1       2.963   2.110  17.578  0.00  0.00    +0.000 C 
ATOM     12  C   UNL     1       3.389   3.346  18.309  0.00  0.00    +0.000 A 
ATOM     13  C   UNL     1       2.463   4.137  18.981  0.00  0.00    +0.000 A 
ATOM     14  C   UNL     1       2.910   5.296  19.604  0.00  0.00    +0.000 A 
ATOM     15  N   UNL     1       4.199   5.730  19.573  0.00  0.00    +0.000 NA
ATOM     16  C   UNL     1       5.104   4.959  18.914  0.00  0.00    +0.000 A 
ATOM     17  C   UNL     1       4.724   3.761  18.298  0.00  0.00    +0.000 A 
BRANCH  16  18
ATOM     18  C   UNL     1       6.513   5.482  18.756  0.00  0.00    +0.000 C 
ATOM     19  C   UNL     1       6.909   6.357  17.591  0.00  0.00    +0.000 C 
ATOM     20  C   UNL     1       7.405   4.943  17.664  0.00  0.00    +0.000 C 
ENDBRANCH  16  18
ENDBRANCH   7  14
ENDBRANCH   1   9
BRANCH   5  21
ATOM     21  C   UNL     1      -0.408  11.784  19.016  0.00  0.00    +0.000 C 
ATOM     22  C   UNL     1       0.835  12.592  18.453  0.00  0.00    +0.000 C 
ATOM     23  C   UNL     1       0.016  13.883  18.557  0.00  0.00    +0.000 C 
ATOM     24  C   UNL     1      -0.860  13.179  19.610  0.00  0.00    +0.000 C 
BRANCH  21  25
ATOM     25  C   UNL     1      -1.450  11.281  17.946  0.00  0.00    +0.000 C 
ATOM     26  C   UNL     1      -1.314   9.782  17.649  0.00  0.00    +0.000 C 
BRANCH  25  27
ATOM     27  C   UNL     1      -2.880  11.603  18.305  0.00  0.00    +0.000 A 
ATOM     28  N   UNL     1      -3.334  11.960  19.491  0.00  0.00    +0.000 NA
ATOM     29  N   UNL     1      -4.694  12.127  19.415  0.00  0.00    +0.000 NA
ATOM     30  C   UNL     1      -5.051  11.873  18.182  0.00  0.00    +0.000 A 
ATOM     31  N   UNL     1      -3.952  11.550  17.445  0.00  0.00    +0.000 N 
ATOM     32  C   UNL     1      -3.968  11.230  16.044  0.00  0.00    +0.000 C 
ENDBRANCH  25  27
ENDBRANCH  21  25
ENDBRANCH   5  21
TORSDOF 6
ENDMDL
MODEL 6
REMARK VINA RESULT:      -7.7      2.151      3.931
REMARK  Name = 
REMARK  9 active torsions:
REMARK  status: ('A' for Active; 'I' for Inactive)
REMARK    1  A    between atoms: C_1  and  C_2
REMARK    2  A    between atoms: C_4  and  C_5
REMARK    3  A    between atoms: N_7  and  C_8
REMARK    4  A    between atoms: C_12  and  C_13
REMARK    5  A    between atoms: C_13  and  C_14
REMARK    6  A    between atoms: C_14  and  C_15
REMARK    7  A    between atoms: C_14  and  C_16
REMARK    8  A    between atoms: N_20  and  C_21
REMARK    9  A    between atoms: C_27  and  C_28
REMARK                            x       y       z     vdW  Elec       q    Type
REMARK                         _______ _______ _______ _____ _____    ______ ____
ROOT
ATOM      1  C   UNL     1       0.493   8.949  21.567  0.00  0.00    +0.000 A 
ATOM      2  C   UNL     1       0.238   9.321  22.882  0.00  0.00    +0.000 A 
ATOM      3  C   UNL     1      -0.521  10.448  23.155  0.00  0.00    +0.000 A 
ATOM      4  C   UNL     1      -1.018  11.215  22.105  0.00  0.00    +0.000 A 
ATOM      5  C   UNL     1      -0.692  10.963  20.757  0.00  0.00    +0.000 A 
ATOM      6  C   UNL     1       0.074   9.793  20.524  0.00  0.00    +0.000 A 
ENDROOT
BRANCH   1   9
ATOM      7  C   UNL     1       1.853   7.479  20.074  0.00  0.00    +0.000 C 
ATOM      8  O   UNL     1       2.016   8.238  19.122  0.00  0.00    +0.000 OA
ATOM      9  N   UNL     1       1.135   7.735  21.232  0.00  0.00    +0.000 N 
ATOM     10  H   UNL     1       1.185   7.009  21.940  0.00  0.00    +0.000 HD
BRANCH   7  14
ATOM     11  C   UNL     1       1.857   2.597  21.164  0.00  0.00    +0.000 C 
ATOM     12  C   UNL     1       2.510   3.813  20.582  0.00  0.00    +0.000 A 
ATOM     13  C   UNL     1       1.895   5.059  20.645  0.00  0.00    +0.000 A 
ATOM     14  C   UNL     1       2.529   6.142  20.050  0.00  0.00    +0.000 A 
ATOM     15  N   UNL     1       3.707   6.060  19.375  0.00  0.00    +0.000 NA
ATOM     16  C   UNL     1       4.308   4.842  19.310  0.00  0.00    +0.000 A 
ATOM     17  C   UNL     1       3.740   3.719  19.922  0.00  0.00    +0.000 A 
BRANCH  16  18
ATOM     18  C   UNL     1       5.550   4.699  18.460  0.00  0.00    +0.000 C 
ATOM     19  C   UNL     1       6.853   5.359  18.841  0.00  0.00    +0.000 C 
ATOM     20  C   UNL     1       6.070   5.877  17.671  0.00  0.00    +0.000 C 
ENDBRANCH  16  18
ENDBRANCH   7  14
ENDBRANCH   1   9
BRANCH   5  21
ATOM     21  C   UNL     1      -1.223  11.952  19.566  0.00  0.00    +0.000 C 
ATOM     22  C   UNL     1      -2.779  11.776  19.317  0.00  0.00    +0.000 C 
ATOM     23  C   UNL     1      -2.530  11.901  17.810  0.00  0.00    +0.000 C 
ATOM     24  C   UNL     1      -1.077  11.464  18.068  0.00  0.00    +0.000 C 
BRANCH  21  25
ATOM     25  C   UNL     1      -0.707  13.434  19.712  0.00  0.00    +0.000 C 
ATOM     26  C   UNL     1      -1.669  14.317  20.518  0.00  0.00    +0.000 C 
BRANCH  25  27
ATOM     27  C   UNL     1       0.682  13.531  20.291  0.00  0.00    +0.000 A 
ATOM     28  N   UNL     1       0.998  13.770  21.550  0.00  0.00    +0.000 NA
ATOM     29  N   UNL     1       2.364  13.817  21.666  0.00  0.00    +0.000 NA
ATOM     30  C   UNL     1       2.865  13.602  20.477  0.00  0.00    +0.000 A 
ATOM     31  N   UNL     1       1.856  13.407  19.583  0.00  0.00    +0.000 N 
ATOM     32  C   UNL     1       2.038  13.126  18.186  0.00  0.00    +0.000 C 
ENDBRANCH  25  27
ENDBRANCH  21  25
ENDBRANCH   5  21
TORSDOF 6
ENDMDL
MODEL 7
REMARK VINA RESULT:      -7.7      2.352      3.877
REMARK  Name = 
REMARK  9 active torsions:
REMARK  status: ('A' for Active; 'I' for Inactive)
REMARK    1  A    between atoms: C_1  and  C_2
REMARK    2  A    between atoms: C_4  and  C_5
REMARK    3  A    between atoms: N_7  and  C_8
REMARK    4  A    between atoms: C_12  and  C_13
REMARK    5  A    between atoms: C_13  and  C_14
REMARK    6  A    between atoms: C_14  and  C_15
REMARK    7  A    between atoms: C_14  and  C_16
REMARK    8  A    between atoms: N_20  and  C_21
REMARK    9  A    between atoms: C_27  and  C_28
REMARK                            x       y       z     vdW  Elec       q    Type
REMARK                         _______ _______ _______ _____ _____    ______ ____
ROOT
ATOM      1  C   UNL     1       0.757   9.014  21.626  0.00  0.00    +0.000 A 
ATOM      2  C   UNL     1      -0.054   9.136  22.749  0.00  0.00    +0.000 A 
ATOM      3  C   UNL     1      -0.657  10.348  23.047  0.00  0.00    +0.000 A 
ATOM      4  C   UNL     1      -0.439  11.448  22.222  0.00  0.00    +0.000 A 
ATOM      5  C   UNL     1       0.468  11.422  21.143  0.00  0.00    +0.000 A 
ATOM      6  C   UNL     1       1.050  10.160  20.866  0.00  0.00    +0.000 A 
ENDROOT
BRANCH   1   9
ATOM      7  C   UNL     1       1.851   7.505  19.964  0.00  0.00    +0.000 C 
ATOM      8  O   UNL     1       1.963   8.280  19.017  0.00  0.00    +0.000 OA
ATOM      9  N   UNL     1       1.277   7.772  21.197  0.00  0.00    +0.000 N 
ATOM     10  H   UNL     1       1.353   7.023  21.879  0.00  0.00    +0.000 HD
BRANCH   7  14
ATOM     11  C   UNL     1       2.179   2.772  21.549  0.00  0.00    +0.000 C 
ATOM     12  C   UNL     1       2.572   3.873  20.613  0.00  0.00    +0.000 A 
ATOM     13  C   UNL     1       2.062   5.159  20.762  0.00  0.00    +0.000 A 
ATOM     14  C   UNL     1       2.429   6.128  19.837  0.00  0.00    +0.000 A 
ATOM     15  N   UNL     1       3.235   5.896  18.766  0.00  0.00    +0.000 NA
ATOM     16  C   UNL     1       3.732   4.639  18.618  0.00  0.00    +0.000 A 
ATOM     17  C   UNL     1       3.431   3.627  19.537  0.00  0.00    +0.000 A 
BRANCH  16  18
ATOM     18  C   UNL     1       4.525   4.322  17.371  0.00  0.00    +0.000 C 
ATOM     19  C   UNL     1       6.006   4.602  17.279  0.00  0.00    +0.000 C 
ATOM     20  C   UNL     1       5.039   5.440  16.495  0.00  0.00    +0.000 C 
ENDBRANCH  16  18
ENDBRANCH   7  14
ENDBRANCH   1   9
BRANCH   5  21
ATOM     21  C   UNL     1       0.763  12.770  20.262  0.00  0.00    +0.000 C 
ATOM     22  C   UNL     1       1.805  12.486  19.100  0.00  0.00    +0.000 C 
ATOM     23  C   UNL     1       2.448  13.850  19.374  0.00  0.00    +0.000 C 
ATOM     24  C   UNL     1       1.852  13.786  20.792  0.00  0.00    +0.000 C 
BRANCH  21  25
ATOM     25  C   UNL     1      -0.548  13.540  19.844  0.00  0.00    +0.000 C 
ATOM     26  C   UNL     1      -0.253  14.813  19.040  0.00  0.00    +0.000 C 
BRANCH  25  27
ATOM     27  C   UNL     1      -1.535  12.679  19.096  0.00  0.00    +0.000 A 
ATOM     28  N   UNL     1      -1.344  12.088  17.933  0.00  0.00    +0.000 NA
ATOM     29  N   UNL     1      -2.493  11.431  17.572  0.00  0.00    +0.000 NA
ATOM     30  C   UNL     1      -3.370  11.627  18.523  0.00  0.00    +0.000 A 
ATOM     31  N   UNL     1      -2.818  12.393  19.504  0.00  0.00    +0.000 N 
ATOM     32  C   UNL     1      -3.489  12.792  20.710  0.00  0.00    +0.000 C 
ENDBRANCH  25  27
ENDBRANCH  21  25
ENDBRANCH   5  21
TORSDOF 6
ENDMDL
MODEL 8
REMARK VINA RESULT:      -7.6      2.377      4.159
REMARK  Name = 
REMARK  9 active torsions:
REMARK  status: ('A' for Active; 'I' for Inactive)
REMARK    1  A    between atoms: C_1  and  C_2
REMARK    2  A    between atoms: C_4  and  C_5
REMARK    3  A    between atoms: N_7  and  C_8
REMARK    4  A    between atoms: C_12  and  C_13
REMARK    5  A    between atoms: C_13  and  C_14
REMARK    6  A    between atoms: C_14  and  C_15
REMARK    7  A    between atoms: C_14  and  C_16
REMARK    8  A    between atoms: N_20  and  C_21
REMARK    9  A    between atoms: C_27  and  C_28
REMARK                            x       y       z     vdW  Elec       q    Type
REMARK                         _______ _______ _______ _____ _____    ______ ____
ROOT
ATOM      1  C   UNL     1       1.277   8.610  20.509  0.00  0.00    +0.000 A 
ATOM      2  C   UNL     1       0.992   8.633  21.870  0.00  0.00    +0.000 A 
ATOM      3  C   UNL     1       0.207   9.644  22.402  0.00  0.00    +0.000 A 
ATOM      4  C   UNL     1      -0.286  10.645  21.569  0.00  0.00    +0.000 A 
ATOM      5  C   UNL     1       0.068  10.746  20.208  0.00  0.00    +0.000 A 
ATOM      6  C   UNL     1       0.860   9.684  19.704  0.00  0.00    +0.000 A 
ENDROOT
BRANCH   1   9
ATOM      7  C   UNL     1       2.374   7.472  18.575  0.00  0.00    +0.000 C 
ATOM      8  O   UNL     1       2.203   8.323  17.705  0.00  0.00    +0.000 OA
ATOM      9  N   UNL     1       1.948   7.529  19.892  0.00  0.00    +0.000 N 
ATOM     10  H   UNL     1       2.258   6.761  20.480  0.00  0.00    +0.000 HD
BRANCH   7  14
ATOM     11  C   UNL     1       2.577   2.616  17.392  0.00  0.00    +0.000 C 
ATOM     12  C   UNL     1       3.244   3.927  17.674  0.00  0.00    +0.000 A 
ATOM     13  C   UNL     1       2.501   5.049  18.029  0.00  0.00    +0.000 A 
ATOM     14  C   UNL     1       3.170   6.249  18.235  0.00  0.00    +0.000 A 
ATOM     15  N   UNL     1       4.512   6.411  18.082  0.00  0.00    +0.000 NA
ATOM     16  C   UNL     1       5.239   5.316  17.733  0.00  0.00    +0.000 A 
ATOM     17  C   UNL     1       4.630   4.070  17.547  0.00  0.00    +0.000 A 
BRANCH  16  18
ATOM     18  C   UNL     1       6.709   5.496  17.431  0.00  0.00    +0.000 C 
ATOM     19  C   UNL     1       7.700   5.869  18.508  0.00  0.00    +0.000 C 
ATOM     20  C   UNL     1       7.326   6.874  17.460  0.00  0.00    +0.000 C 
ENDBRANCH  16  18
ENDBRANCH   7  14
ENDBRANCH   1   9
BRANCH   5  21
ATOM     21  C   UNL     1      -0.460  11.996  19.294  0.00  0.00    +0.000 C 
ATOM     22  C   UNL     1       0.734  12.691  18.516  0.00  0.00    +0.000 C 
ATOM     23  C   UNL     1       0.095  14.055  18.797  0.00  0.00    +0.000 C 
ATOM     24  C   UNL     1      -0.637  13.407  19.987  0.00  0.00    +0.000 C 
BRANCH  21  25
ATOM     25  C   UNL     1      -1.735  11.644  18.435  0.00  0.00    +0.000 C 
ATOM     26  C   UNL     1      -1.759  10.176  17.990  0.00  0.00    +0.000 C 
BRANCH  25  27
ATOM     27  C   UNL     1      -3.033  11.992  19.120  0.00  0.00    +0.000 A 
ATOM     28  N   UNL     1      -3.193  12.324  20.386  0.00  0.00    +0.000 NA
ATOM     29  N   UNL     1      -4.528  12.528  20.628  0.00  0.00    +0.000 NA
ATOM     30  C   UNL     1      -5.166  12.323  19.504  0.00  0.00    +0.000 A 
ATOM     31  N   UNL     1      -4.275  11.995  18.527  0.00  0.00    +0.000 N 
ATOM     32  C   UNL     1      -4.621  11.719  17.160  0.00  0.00    +0.000 C 
ENDBRANCH  25  27
ENDBRANCH  21  25
ENDBRANCH   5  21
TORSDOF 6
ENDMDL
MODEL 9
REMARK VINA RESULT:      -7.6      1.678      3.029
REMARK  Name = 
REMARK  9 active torsions:
REMARK  status: ('A' for Active; 'I' for Inactive)
REMARK    1  A    between atoms: C_1  and  C_2
REMARK    2  A    between atoms: C_4  and  C_5
REMARK    3  A    between atoms: N_7  and  C_8
REMARK    4  A    between atoms: C_12  and  C_13
REMARK    5  A    between atoms: C_13  and  C_14
REMARK    6  A    between atoms: C_14  and  C_15
REMARK    7  A    between atoms: C_14  and  C_16
REMARK    8  A    between atoms: N_20  and  C_21
REMARK    9  A    between atoms: C_27  and  C_28
REMARK                            x       y       z     vdW  Elec       q    Type
REMARK                         _______ _______ _______ _____ _____    ______ ____
ROOT
ATOM      1  C   UNL     1       1.333   8.524  20.530  0.00  0.00    +0.000 A 
ATOM      2  C   UNL     1       1.309   8.425  21.917  0.00  0.00    +0.000 A 
ATOM      3  C   UNL     1       0.578   9.330  22.670  0.00  0.00    +0.000 A 
ATOM      4  C   UNL     1      -0.125  10.348  22.032  0.00  0.00    +0.000 A 
ATOM      5  C   UNL     1      -0.042  10.576  20.643  0.00  0.00    +0.000 A 
ATOM      6  C   UNL     1       0.705   9.619  19.912  0.00  0.00    +0.000 A 
ENDROOT
BRANCH   1   9
ATOM      7  C   UNL     1       2.503   7.758  18.461  0.00  0.00    +0.000 C 
ATOM      8  O   UNL     1       2.528   8.813  17.830  0.00  0.00    +0.000 OA
ATOM      9  N   UNL     1       1.941   7.546  19.710  0.00  0.00    +0.000 N 
ATOM     10  H   UNL     1       2.093   6.621  20.100  0.00  0.00    +0.000 HD
BRANCH   7  14
ATOM     11  C   UNL     1       6.506   5.655  16.322  0.00  0.00    +0.000 C 
ATOM     12  C   UNL     1       5.109   5.575  16.857  0.00  0.00    +0.000 A 
ATOM     13  C   UNL     1       4.465   6.702  17.357  0.00  0.00    +0.000 A 
ATOM     14  C   UNL     1       3.187   6.558  17.880  0.00  0.00    +0.000 A 
ATOM     15  N   UNL     1       2.527   5.372  17.966  0.00  0.00    +0.000 NA
ATOM     16  C   UNL     1       3.156   4.269  17.480  0.00  0.00    +0.000 A 
ATOM     17  C   UNL     1       4.429   4.354  16.906  0.00  0.00    +0.000 A 
BRANCH  16  18
ATOM     18  C   UNL     1       2.499   2.922  17.679  0.00  0.00    +0.000 C 
ATOM     19  C   UNL     1       2.275   2.344  19.056  0.00  0.00    +0.000 C 
ATOM     20  C   UNL     1       3.315   1.744  18.157  0.00  0.00    +0.000 C 
ENDBRANCH  16  18
ENDBRANCH   7  14
ENDBRANCH   1   9
BRANCH   5  21
ATOM     21  C   UNL     1      -0.810  11.846  19.953  0.00  0.00    +0.000 C 
ATOM     22  C   UNL     1      -1.880  12.479  20.937  0.00  0.00    +0.000 C 
ATOM     23  C   UNL     1      -2.829  12.667  19.749  0.00  0.00    +0.000 C 
ATOM     24  C   UNL     1      -2.055  11.552  19.023  0.00  0.00    +0.000 C 
BRANCH  21  25
ATOM     25  C   UNL     1       0.171  12.860  19.251  0.00  0.00    +0.000 C 
ATOM     26  C   UNL     1      -0.560  14.062  18.640  0.00  0.00    +0.000 C 
BRANCH  25  27
ATOM     27  C   UNL     1       1.281  13.343  20.153  0.00  0.00    +0.000 A 
ATOM     28  N   UNL     1       1.197  13.583  21.447  0.00  0.00    +0.000 NA
ATOM     29  N   UNL     1       2.410  14.042  21.895  0.00  0.00    +0.000 NA
ATOM     30  C   UNL     1       3.220  14.071  20.868  0.00  0.00    +0.000 A 
ATOM     31  N   UNL     1       2.565  13.634  19.756  0.00  0.00    +0.000 N 
ATOM     32  C   UNL     1       3.152  13.517  18.450  0.00  0.00    +0.000 C 
ENDBRANCH  25  27
ENDBRANCH  21  25
ENDBRANCH   5  21
TORSDOF 6
ENDMDL
