MODEL 1
REMARK VINA RESULT:      -8.0      0.000      0.000
REMARK  Name = 
REMARK  9 active torsions:
REMARK  status: ('A' for Active; 'I' for Inactive)
REMARK    1  A    between atoms: C_1  and  N_2
REMARK    2  A    between atoms: C_6  and  C_7
REMARK    3  A    between atoms: C_7  and  C_8
REMARK    4  A    between atoms: C_8  and  C_9
REMARK    5  A    between atoms: C_13  and  N_14
REMARK    6  A    between atoms: C_17  and  C_18
REMARK    7  A    between atoms: C_18  and  C_19
REMARK    8  A    between atoms: C_19  and  C_20
REMARK    9  A    between atoms: C_19  and  C_21
REMARK                            x       y       z     vdW  Elec       q    Type
REMARK                         _______ _______ _______ _____ _____    ______ ____
ROOT
ATOM      1  N   UNL     1       5.938   5.468  15.769  0.00  0.00    +0.000 N 
ATOM      2  C   UNL     1       4.704   6.198  16.145  0.00  0.00    +0.000 C 
ATOM      3  C   UNL     1       4.066   5.252  17.111  0.00  0.00    +0.000 A 
ATOM      4  C   UNL     1       3.476   5.470  18.354  0.00  0.00    +0.000 A 
ATOM      5  C   UNL     1       3.171   4.320  19.116  0.00  0.00    +0.000 A 
ATOM      6  C   UNL     1       3.481   3.021  18.667  0.00  0.00    +0.000 A 
ATOM      7  C   UNL     1       4.146   2.828  17.463  0.00  0.00    +0.000 A 
ATOM      8  C   UNL     1       4.439   3.958  16.722  0.00  0.00    +0.000 A 
ATOM      9  C   UNL     1       5.584   4.082  15.783  0.00  0.00    +0.000 C 
ATOM     10  O   UNL     1       6.190   3.149  15.303  0.00  0.00    +0.000 OA
ENDROOT
BRANCH   1  15
ATOM     11  C   UNL     1       7.900   7.786  17.856  0.00  0.00    +0.000 A 
ATOM     12  C   UNL     1       8.092   6.967  18.976  0.00  0.00    +0.000 A 
ATOM     13  C   UNL     1       7.888   5.590  18.892  0.00  0.00    +0.000 A 
ATOM     14  C   UNL     1       7.402   5.030  17.717  0.00  0.00    +0.000 A 
ATOM     15  C   UNL     1       7.019   5.864  16.654  0.00  0.00    +0.000 A 
ATOM     16  C   UNL     1       7.372   7.222  16.689  0.00  0.00    +0.000 A 
BRANCH  11  17
ATOM     17  C   UNL     1       8.166   9.270  17.938  0.00  0.00    +0.000 C 
BRANCH  17  18
ATOM     18  C   UNL     1       9.122   9.612  19.084  0.00  0.00    +0.000 C 
BRANCH  18  24
ATOM     19  C   UNL     1       9.141  11.810  21.299  0.00  0.00    +0.000 C 
ATOM     20  N   UNL     1       9.621  11.949  19.951  0.00  0.00    +0.000 N 
ATOM     21  C   UNL     1      10.136  13.080  19.399  0.00  0.00    +0.000 A 
ATOM     22  N   UNL     1      10.504  12.835  18.164  0.00  0.00    +0.000 NA
ATOM     23  N   UNL     1      10.207  11.522  17.894  0.00  0.00    +0.000 NA
ATOM     24  C   UNL     1       9.658  10.994  18.970  0.00  0.00    +0.000 A 
ENDBRANCH  18  24
ENDBRANCH  17  18
ENDBRANCH  11  17
ENDBRANCH   1  15
BRANCH   4  25
ATOM     25  C   UNL     1       3.419   6.829  19.023  0.00  0.00    +0.000 C 
BRANCH  25  26
ATOM     26  C   UNL     1       2.269   7.792  18.682  0.00  0.00    +0.000 C 
ATOM     27  C   UNL     1       1.551   8.309  19.922  0.00  0.00    +0.000 C 
ATOM     28  C   UNL     1       2.813   8.948  17.834  0.00  0.00    +0.000 C 
ATOM     29  F   UNL     1       1.347   7.138  17.915  0.00  0.00    +0.000 F 
ENDBRANCH  25  26
ENDBRANCH   4  25
TORSDOF 6
ENDMDL
MODEL 2
REMARK VINA RESULT:      -8.0      4.517      6.409
REMARK  Name = 
REMARK  9 active torsions:
REMARK  status: ('A' for Active; 'I' for Inactive)
REMARK    1  A    between atoms: C_1  and  N_2
REMARK    2  A    between atoms: C_6  and  C_7
REMARK    3  A    between atoms: C_7  and  C_8
REMARK    4  A    between atoms: C_8  and  C_9
REMARK    5  A    between atoms: C_13  and  N_14
REMARK    6  A    between atoms: C_17  and  C_18
REMARK    7  A    between atoms: C_18  and  C_19
REMARK    8  A    between atoms: C_19  and  C_20
REMARK    9  A    between atoms: C_19  and  C_21
REMARK                            x       y       z     vdW  Elec       q    Type
REMARK                         _______ _______ _______ _____ _____    ______ ____
ROOT
ATOM      1  N   UNL     1       3.378   5.780  20.142  0.00  0.00    +0.000 N 
ATOM      2  C   UNL     1       4.479   5.370  19.240  0.00  0.00    +0.000 C 
ATOM      3  C   UNL     1       3.908   4.153  18.586  0.00  0.00    +0.000 A 
ATOM      4  C   UNL     1       3.893   3.749  17.252  0.00  0.00    +0.000 A 
ATOM      5  C   UNL     1       3.065   2.649  16.937  0.00  0.00    +0.000 A 
ATOM      6  C   UNL     1       2.262   2.016  17.905  0.00  0.00    +0.000 A 
ATOM      7  C   UNL     1       2.224   2.487  19.212  0.00  0.00    +0.000 A 
ATOM      8  C   UNL     1       3.039   3.561  19.514  0.00  0.00    +0.000 A 
ATOM      9  C   UNL     1       2.762   4.564  20.574  0.00  0.00    +0.000 C 
ATOM     10  O   UNL     1       1.998   4.398  21.501  0.00  0.00    +0.000 OA
ENDROOT
BRANCH   1  15
ATOM     11  C   UNL     1       1.363   8.843  19.770  0.00  0.00    +0.000 A 
ATOM     12  C   UNL     1       1.805   9.245  18.502  0.00  0.00    +0.000 A 
ATOM     13  C   UNL     1       2.468   8.351  17.665  0.00  0.00    +0.000 A 
ATOM     14  C   UNL     1       2.779   7.074  18.118  0.00  0.00    +0.000 A 
ATOM     15  C   UNL     1       2.518   6.727  19.453  0.00  0.00    +0.000 A 
ATOM     16  C   UNL     1       1.715   7.571  20.235  0.00  0.00    +0.000 A 
BRANCH  11  17
ATOM     17  C   UNL     1       0.604   9.802  20.656  0.00  0.00    +0.000 C 
BRANCH  17  18
ATOM     18  C   UNL     1       0.199  11.071  19.902  0.00  0.00    +0.000 C 
BRANCH  18  24
ATOM     19  C   UNL     1       2.372  12.867  18.562  0.00  0.00    +0.000 C 
ATOM     20  N   UNL     1       1.811  13.036  19.876  0.00  0.00    +0.000 N 
ATOM     21  C   UNL     1       2.162  13.993  20.777  0.00  0.00    +0.000 A 
ATOM     22  N   UNL     1       1.424  13.871  21.854  0.00  0.00    +0.000 NA
ATOM     23  N   UNL     1       0.586  12.799  21.665  0.00  0.00    +0.000 NA
ATOM     24  C   UNL     1       0.834  12.286  20.476  0.00  0.00    +0.000 A 
ENDBRANCH  18  24
ENDBRANCH  17  18
ENDBRANCH  11  17
ENDBRANCH   1  15
BRANCH   4  25
ATOM     25  C   UNL     1       4.471   4.580  16.123  0.00  0.00    +0.000 C 
BRANCH  25  26
ATOM     26  C   UNL     1       5.988   4.563  15.871  0.00  0.00    +0.000 C 
ATOM     27  C   UNL     1       6.340   4.143  14.449  0.00  0.00    +0.000 C 
ATOM     28  C   UNL     1       6.571   5.942  16.203  0.00  0.00    +0.000 C 
ATOM     29  F   UNL     1       6.576   3.670  16.721  0.00  0.00    +0.000 F 
ENDBRANCH  25  26
ENDBRANCH   4  25
TORSDOF 6
ENDMDL
MODEL 3
REMARK VINA RESULT:      -7.9      4.292      7.054
REMARK  Name = 
REMARK  9 active torsions:
REMARK  status: ('A' for Active; 'I' for Inactive)
REMARK    1  A    between atoms: C_1  and  N_2
REMARK    2  A    between atoms: C_6  and  C_7
REMARK    3  A    between atoms: C_7  and  C_8
REMARK    4  A    between atoms: C_8  and  C_9
REMARK    5  A    between atoms: C_13  and  N_14
REMARK    6  A    between atoms: C_17  and  C_18
REMARK    7  A    between atoms: C_18  and  C_19
REMARK    8  A    between atoms: C_19  and  C_20
REMARK    9  A    between atoms: C_19  and  C_21
REMARK                            x       y       z     vdW  Elec       q    Type
REMARK                         _______ _______ _______ _____ _____    ______ ____
ROOT
ATOM      1  N   UNL     1       3.441   4.934  19.613  0.00  0.00    +0.000 N 
ATOM      2  C   UNL     1       4.830   5.438  19.495  0.00  0.00    +0.000 C 
ATOM      3  C   UNL     1       5.128   5.193  18.051  0.00  0.00    +0.000 A 
ATOM      4  C   UNL     1       5.727   6.001  17.087  0.00  0.00    +0.000 A 
ATOM      5  C   UNL     1       5.651   5.550  15.751  0.00  0.00    +0.000 A 
ATOM      6  C   UNL     1       4.971   4.368  15.399  0.00  0.00    +0.000 A 
ATOM      7  C   UNL     1       4.306   3.619  16.362  0.00  0.00    +0.000 A 
ATOM      8  C   UNL     1       4.388   4.066  17.667  0.00  0.00    +0.000 A 
ATOM      9  C   UNL     1       3.357   3.828  18.710  0.00  0.00    +0.000 C 
ATOM     10  O   UNL     1       2.506   2.965  18.658  0.00  0.00    +0.000 OA
ENDROOT
BRANCH   1  15
ATOM     11  C   UNL     1       1.586   8.008  20.442  0.00  0.00    +0.000 A 
ATOM     12  C   UNL     1       1.765   8.705  19.240  0.00  0.00    +0.000 A 
ATOM     13  C   UNL     1       2.173   8.038  18.087  0.00  0.00    +0.000 A 
ATOM     14  C   UNL     1       2.496   6.687  18.142  0.00  0.00    +0.000 A 
ATOM     15  C   UNL     1       2.512   6.026  19.380  0.00  0.00    +0.000 A 
ATOM     16  C   UNL     1       1.952   6.658  20.501  0.00  0.00    +0.000 A 
BRANCH  11  17
ATOM     17  C   UNL     1       1.100   8.725  21.679  0.00  0.00    +0.000 C 
BRANCH  17  18
ATOM     18  C   UNL     1      -0.378   9.108  21.567  0.00  0.00    +0.000 C 
BRANCH  18  24
ATOM     19  C   UNL     1      -1.295  11.453  19.724  0.00  0.00    +0.000 C 
ATOM     20  N   UNL     1      -0.991  11.535  21.127  0.00  0.00    +0.000 N 
ATOM     21  C   UNL     1      -1.017  12.664  21.885  0.00  0.00    +0.000 A 
ATOM     22  N   UNL     1      -0.719  12.363  23.126  0.00  0.00    +0.000 NA
ATOM     23  N   UNL     1      -0.473  11.014  23.180  0.00  0.00    +0.000 NA
ATOM     24  C   UNL     1      -0.621  10.518  21.967  0.00  0.00    +0.000 A 
ENDBRANCH  18  24
ENDBRANCH  17  18
ENDBRANCH  11  17
ENDBRANCH   1  15
BRANCH   4  25
ATOM     25  C   UNL     1       6.181   7.423  17.357  0.00  0.00    +0.000 C 
BRANCH  25  26
ATOM     26  C   UNL     1       7.671   7.708  17.605  0.00  0.00    +0.000 C 
ATOM     27  C   UNL     1       7.941   9.170  17.934  0.00  0.00    +0.000 C 
ATOM     28  C   UNL     1       8.183   6.784  18.717  0.00  0.00    +0.000 C 
ATOM     29  F   UNL     1       8.382   7.401  16.479  0.00  0.00    +0.000 F 
ENDBRANCH  25  26
ENDBRANCH   4  25
TORSDOF 6
ENDMDL
MODEL 4
REMARK VINA RESULT:      -7.9      4.611      7.535
REMARK  Name = 
REMARK  9 active torsions:
REMARK  status: ('A' for Active; 'I' for Inactive)
REMARK    1  A    between atoms: C_1  and  N_2
REMARK    2  A    between atoms: C_6  and  C_7
REMARK    3  A    between atoms: C_7  and  C_8
REMARK    4  A    between atoms: C_8  and  C_9
REMARK    5  A    between atoms: C_13  and  N_14
REMARK    6  A    between atoms: C_17  and  C_18
REMARK    7  A    between atoms: C_18  and  C_19
REMARK    8  A    between atoms: C_19  and  C_20
REMARK    9  A    between atoms: C_19  and  C_21
REMARK                            x       y       z     vdW  Elec       q    Type
REMARK                         _______ _______ _______ _____ _____    ______ ____
ROOT
ATOM      1  N   UNL     1       3.234   5.921  20.151  0.00  0.00    +0.000 N 
ATOM      2  C   UNL     1       4.482   5.611  19.414  0.00  0.00    +0.000 C 
ATOM      3  C   UNL     1       4.087   4.400  18.630  0.00  0.00    +0.000 A 
ATOM      4  C   UNL     1       4.299   4.062  17.295  0.00  0.00    +0.000 A 
ATOM      5  C   UNL     1       3.592   2.939  16.811  0.00  0.00    +0.000 A 
ATOM      6  C   UNL     1       2.687   2.220  17.616  0.00  0.00    +0.000 A 
ATOM      7  C   UNL     1       2.424   2.624  18.919  0.00  0.00    +0.000 A 
ATOM      8  C   UNL     1       3.122   3.721  19.387  0.00  0.00    +0.000 A 
ATOM      9  C   UNL     1       2.630   4.656  20.432  0.00  0.00    +0.000 C 
ATOM     10  O   UNL     1       1.744   4.407  21.221  0.00  0.00    +0.000 OA
ENDROOT
BRANCH   1  15
ATOM     11  C   UNL     1       1.237   8.962  19.567  0.00  0.00    +0.000 A 
ATOM     12  C   UNL     1       1.798   9.364  18.347  0.00  0.00    +0.000 A 
ATOM     13  C   UNL     1       2.549   8.473  17.583  0.00  0.00    +0.000 A 
ATOM     14  C   UNL     1       2.826   7.202  18.071  0.00  0.00    +0.000 A 
ATOM     15  C   UNL     1       2.438   6.856  19.375  0.00  0.00    +0.000 A 
ATOM     16  C   UNL     1       1.553   7.695  20.071  0.00  0.00    +0.000 A 
BRANCH  11  17
ATOM     17  C   UNL     1       0.385   9.916  20.369  0.00  0.00    +0.000 C 
BRANCH  17  18
ATOM     18  C   UNL     1       0.149  11.231  19.622  0.00  0.00    +0.000 C 
BRANCH  18  24
ATOM     19  C   UNL     1      -1.684  10.125  17.351  0.00  0.00    +0.000 C 
ATOM     20  N   UNL     1      -2.069  11.034  18.397  0.00  0.00    +0.000 N 
ATOM     21  C   UNL     1      -3.297  11.598  18.552  0.00  0.00    +0.000 A 
ATOM     22  N   UNL     1      -3.301  12.345  19.630  0.00  0.00    +0.000 NA
ATOM     23  N   UNL     1      -2.045  12.288  20.181  0.00  0.00    +0.000 NA
ATOM     24  C   UNL     1      -1.298  11.508  19.425  0.00  0.00    +0.000 A 
ENDBRANCH  18  24
ENDBRANCH  17  18
ENDBRANCH  11  17
ENDBRANCH   1  15
BRANCH   4  25
ATOM     25  C   UNL     1       4.994   4.974  16.304  0.00  0.00    +0.000 C 
BRANCH  25  26
ATOM     26  C   UNL     1       6.528   5.077  16.317  0.00  0.00    +0.000 C 
ATOM     27  C   UNL     1       7.140   4.883  14.936  0.00  0.00    +0.000 C 
ATOM     28  C   UNL     1       6.939   6.426  16.922  0.00  0.00    +0.000 C 
ATOM     29  F   UNL     1       7.038   4.107  17.133  0.00  0.00    +0.000 F 
ENDBRANCH  25  26
ENDBRANCH   4  25
TORSDOF 6
ENDMDL
MODEL 5
REMARK VINA RESULT:      -7.8      4.592      7.060
REMARK  Name = 
REMARK  9 active torsions:
REMARK  status: ('A' for Active; 'I' for Inactive)
REMARK    1  A    between atoms: C_1  and  N_2
REMARK    2  A    between atoms: C_6  and  C_7
REMARK    3  A    between atoms: C_7  and  C_8
REMARK    4  A    between atoms: C_8  and  C_9
REMARK    5  A    between atoms: C_13  and  N_14
REMARK    6  A    between atoms: C_17  and  C_18
REMARK    7  A    between atoms: C_18  and  C_19
REMARK    8  A    between atoms: C_19  and  C_20
REMARK    9  A    between atoms: C_19  and  C_21
REMARK                            x       y       z     vdW  Elec       q    Type
REMARK                         _______ _______ _______ _____ _____    ______ ____
ROOT
ATOM      1  N   UNL     1       3.287   5.832  20.217  0.00  0.00    +0.000 N 
ATOM      2  C   UNL     1       4.503   5.522  19.430  0.00  0.00    +0.000 C 
ATOM      3  C   UNL     1       4.070   4.324  18.647  0.00  0.00    +0.000 A 
ATOM      4  C   UNL     1       4.229   4.001  17.302  0.00  0.00    +0.000 A 
ATOM      5  C   UNL     1       3.496   2.889  16.830  0.00  0.00    +0.000 A 
ATOM      6  C   UNL     1       2.616   2.167  17.661  0.00  0.00    +0.000 A 
ATOM      7  C   UNL     1       2.405   2.556  18.978  0.00  0.00    +0.000 A 
ATOM      8  C   UNL     1       3.128   3.643  19.432  0.00  0.00    +0.000 A 
ATOM      9  C   UNL     1       2.683   4.568  20.506  0.00  0.00    +0.000 C 
ATOM     10  O   UNL     1       1.826   4.316  21.325  0.00  0.00    +0.000 OA
ENDROOT
BRANCH   1  15
ATOM     11  C   UNL     1       1.200   8.837  19.774  0.00  0.00    +0.000 A 
ATOM     12  C   UNL     1       1.760   9.321  18.585  0.00  0.00    +0.000 A 
ATOM     13  C   UNL     1       2.547   8.497  17.783  0.00  0.00    +0.000 A 
ATOM     14  C   UNL     1       2.859   7.210  18.205  0.00  0.00    +0.000 A 
ATOM     15  C   UNL     1       2.469   6.783  19.484  0.00  0.00    +0.000 A 
ATOM     16  C   UNL     1       1.551   7.555  20.213  0.00  0.00    +0.000 A 
BRANCH  11  17
ATOM     17  C   UNL     1       0.310   9.719  20.616  0.00  0.00    +0.000 C 
BRANCH  17  18
ATOM     18  C   UNL     1       0.713  11.192  20.515  0.00  0.00    +0.000 C 
BRANCH  18  24
ATOM     19  C   UNL     1      -0.251  14.126  20.067  0.00  0.00    +0.000 C 
ATOM     20  N   UNL     1      -0.421  13.342  21.260  0.00  0.00    +0.000 N 
ATOM     21  C   UNL     1      -1.002  13.762  22.416  0.00  0.00    +0.000 A 
ATOM     22  N   UNL     1      -1.018  12.776  23.280  0.00  0.00    +0.000 NA
ATOM     23  N   UNL     1      -0.415  11.693  22.688  0.00  0.00    +0.000 NA
ATOM     24  C   UNL     1      -0.040  12.043  21.473  0.00  0.00    +0.000 A 
ENDBRANCH  18  24
ENDBRANCH  17  18
ENDBRANCH  11  17
ENDBRANCH   1  15
BRANCH   4  25
ATOM     25  C   UNL     1       4.893   4.920  16.296  0.00  0.00    +0.000 C 
BRANCH  25  26
ATOM     26  C   UNL     1       6.428   4.985  16.229  0.00  0.00    +0.000 C 
ATOM     27  C   UNL     1       6.963   4.771  14.819  0.00  0.00    +0.000 C 
ATOM     28  C   UNL     1       6.902   6.326  16.804  0.00  0.00    +0.000 C 
ATOM     29  F   UNL     1       6.956   4.007  17.023  0.00  0.00    +0.000 F 
ENDBRANCH  25  26
ENDBRANCH   4  25
TORSDOF 6
ENDMDL
MODEL 6
REMARK VINA RESULT:      -7.8      4.956      7.312
REMARK  Name = 
REMARK  9 active torsions:
REMARK  status: ('A' for Active; 'I' for Inactive)
REMARK    1  A    between atoms: C_1  and  N_2
REMARK    2  A    between atoms: C_6  and  C_7
REMARK    3  A    between atoms: C_7  and  C_8
REMARK    4  A    between atoms: C_8  and  C_9
REMARK    5  A    between atoms: C_13  and  N_14
REMARK    6  A    between atoms: C_17  and  C_18
REMARK    7  A    between atoms: C_18  and  C_19
REMARK    8  A    between atoms: C_19  and  C_20
REMARK    9  A    between atoms: C_19  and  C_21
REMARK                            x       y       z     vdW  Elec       q    Type
REMARK                         _______ _______ _______ _____ _____    ______ ____
ROOT
ATOM      1  N   UNL     1       3.291   5.756  20.192  0.00  0.00    +0.000 N 
ATOM      2  C   UNL     1       4.469   5.363  19.384  0.00  0.00    +0.000 C 
ATOM      3  C   UNL     1       3.955   4.169  18.645  0.00  0.00    +0.000 A 
ATOM      4  C   UNL     1       4.061   3.803  17.305  0.00  0.00    +0.000 A 
ATOM      5  C   UNL     1       3.261   2.718  16.883  0.00  0.00    +0.000 A 
ATOM      6  C   UNL     1       2.369   2.064  17.755  0.00  0.00    +0.000 A 
ATOM      7  C   UNL     1       2.213   2.498  19.066  0.00  0.00    +0.000 A 
ATOM      8  C   UNL     1       3.002   3.557  19.472  0.00  0.00    +0.000 A 
ATOM      9  C   UNL     1       2.632   4.532  20.531  0.00  0.00    +0.000 C 
ATOM     10  O   UNL     1       1.785   4.346  21.378  0.00  0.00    +0.000 OA
ENDROOT
BRANCH   1  15
ATOM     11  C   UNL     1       1.514   8.939  19.659  0.00  0.00    +0.000 A 
ATOM     12  C   UNL     1       1.979   9.239  18.372  0.00  0.00    +0.000 A 
ATOM     13  C   UNL     1       2.568   8.253  17.582  0.00  0.00    +0.000 A 
ATOM     14  C   UNL     1       2.783   6.983  18.103  0.00  0.00    +0.000 A 
ATOM     15  C   UNL     1       2.502   6.727  19.454  0.00  0.00    +0.000 A 
ATOM     16  C   UNL     1       1.770   7.671  20.191  0.00  0.00    +0.000 A 
BRANCH  11  17
ATOM     17  C   UNL     1       0.835   9.999  20.494  0.00  0.00    +0.000 C 
BRANCH  17  18
ATOM     18  C   UNL     1      -0.690   9.915  20.385  0.00  0.00    +0.000 C 
BRANCH  18  24
ATOM     19  C   UNL     1      -1.144  12.947  19.803  0.00  0.00    +0.000 C 
ATOM     20  N   UNL     1      -1.415  11.853  18.910  0.00  0.00    +0.000 N 
ATOM     21  C   UNL     1      -1.952  11.954  17.664  0.00  0.00    +0.000 A 
ATOM     22  N   UNL     1      -2.025  10.762  17.123  0.00  0.00    +0.000 NA
ATOM     23  N   UNL     1      -1.546   9.858  18.039  0.00  0.00    +0.000 NA
ATOM     24  C   UNL     1      -1.193  10.518  19.124  0.00  0.00    +0.000 A 
ENDBRANCH  18  24
ENDBRANCH  17  18
ENDBRANCH  11  17
ENDBRANCH   1  15
BRANCH   4  25
ATOM     25  C   UNL     1       4.744   4.661  16.258  0.00  0.00    +0.000 C 
BRANCH  25  26
ATOM     26  C   UNL     1       6.128   4.251  15.729  0.00  0.00    +0.000 C 
ATOM     27  C   UNL     1       6.448   4.878  14.379  0.00  0.00    +0.000 C 
ATOM     28  C   UNL     1       7.194   4.608  16.773  0.00  0.00    +0.000 C 
ATOM     29  F   UNL     1       6.167   2.894  15.573  0.00  0.00    +0.000 F 
ENDBRANCH  25  26
ENDBRANCH   4  25
TORSDOF 6
ENDMDL
MODEL 7
REMARK VINA RESULT:      -7.7      4.667      7.350
REMARK  Name = 
REMARK  9 active torsions:
REMARK  status: ('A' for Active; 'I' for Inactive)
REMARK    1  A    between atoms: C_1  and  N_2
REMARK    2  A    between atoms: C_6  and  C_7
REMARK    3  A    between atoms: C_7  and  C_8
REMARK    4  A    between atoms: C_8  and  C_9
REMARK    5  A    between atoms: C_13  and  N_14
REMARK    6  A    between atoms: C_17  and  C_18
REMARK    7  A    between atoms: C_18  and  C_19
REMARK    8  A    between atoms: C_19  and  C_20
REMARK    9  A    between atoms: C_19  and  C_21
REMARK                            x       y       z     vdW  Elec       q    Type
REMARK                         _______ _______ _______ _____ _____    ______ ____
ROOT
ATOM      1  N   UNL     1       3.286   5.770  20.232  0.00  0.00    +0.000 N 
ATOM      2  C   UNL     1       4.491   5.474  19.422  0.00  0.00    +0.000 C 
ATOM      3  C   UNL     1       4.051   4.281  18.635  0.00  0.00    +0.000 A 
ATOM      4  C   UNL     1       4.190   3.972  17.284  0.00  0.00    +0.000 A 
ATOM      5  C   UNL     1       3.455   2.860  16.814  0.00  0.00    +0.000 A 
ATOM      6  C   UNL     1       2.593   2.126  17.652  0.00  0.00    +0.000 A 
ATOM      7  C   UNL     1       2.402   2.502  18.976  0.00  0.00    +0.000 A 
ATOM      8  C   UNL     1       3.127   3.588  19.429  0.00  0.00    +0.000 A 
ATOM      9  C   UNL     1       2.694   4.500  20.518  0.00  0.00    +0.000 C 
ATOM     10  O   UNL     1       1.851   4.236  21.349  0.00  0.00    +0.000 OA
ENDROOT
BRANCH   1  15
ATOM     11  C   UNL     1       1.244   8.811  19.831  0.00  0.00    +0.000 A 
ATOM     12  C   UNL     1       1.751   9.257  18.603  0.00  0.00    +0.000 A 
ATOM     13  C   UNL     1       2.477   8.398  17.780  0.00  0.00    +0.000 A 
ATOM     14  C   UNL     1       2.783   7.114  18.215  0.00  0.00    +0.000 A 
ATOM     15  C   UNL     1       2.451   6.723  19.521  0.00  0.00    +0.000 A 
ATOM     16  C   UNL     1       1.590   7.531  20.280  0.00  0.00    +0.000 A 
BRANCH  11  17
ATOM     17  C   UNL     1       0.419   9.731  20.699  0.00  0.00    +0.000 C 
BRANCH  17  18
ATOM     18  C   UNL     1       0.396  11.159  20.149  0.00  0.00    +0.000 C 
BRANCH  18  24
ATOM     19  C   UNL     1      -0.945  12.607  22.567  0.00  0.00    +0.000 C 
ATOM     20  N   UNL     1      -1.541  12.352  21.283  0.00  0.00    +0.000 N 
ATOM     21  C   UNL     1      -2.811  12.670  20.915  0.00  0.00    +0.000 A 
ATOM     22  N   UNL     1      -3.004  12.324  19.665  0.00  0.00    +0.000 NA
ATOM     23  N   UNL     1      -1.843  11.749  19.209  0.00  0.00    +0.000 NA
ATOM     24  C   UNL     1      -0.966  11.752  20.194  0.00  0.00    +0.000 A 
ENDBRANCH  18  24
ENDBRANCH  17  18
ENDBRANCH  11  17
ENDBRANCH   1  15
BRANCH   4  25
ATOM     25  C   UNL     1       4.833   4.904  16.277  0.00  0.00    +0.000 C 
BRANCH  25  26
ATOM     26  C   UNL     1       6.366   4.963  16.171  0.00  0.00    +0.000 C 
ATOM     27  C   UNL     1       6.862   4.782  14.742  0.00  0.00    +0.000 C 
ATOM     28  C   UNL     1       6.863   6.286  16.767  0.00  0.00    +0.000 C 
ATOM     29  F   UNL     1       6.909   3.961  16.925  0.00  0.00    +0.000 F 
ENDBRANCH  25  26
ENDBRANCH   4  25
TORSDOF 6
ENDMDL
MODEL 8
REMARK VINA RESULT:      -7.7      4.643      6.994
REMARK  Name = 
REMARK  9 active torsions:
REMARK  status: ('A' for Active; 'I' for Inactive)
REMARK    1  A    between atoms: C_1  and  N_2
REMARK    2  A    between atoms: C_6  and  C_7
REMARK    3  A    between atoms: C_7  and  C_8
REMARK    4  A    between atoms: C_8  and  C_9
REMARK    5  A    between atoms: C_13  and  N_14
REMARK    6  A    between atoms: C_17  and  C_18
REMARK    7  A    between atoms: C_18  and  C_19
REMARK    8  A    between atoms: C_19  and  C_20
REMARK    9  A    between atoms: C_19  and  C_21
REMARK                            x       y       z     vdW  Elec       q    Type
REMARK                         _______ _______ _______ _____ _____    ______ ____
ROOT
ATOM      1  N   UNL     1       3.189   5.669  20.328  0.00  0.00    +0.000 N 
ATOM      2  C   UNL     1       4.411   5.398  19.536  0.00  0.00    +0.000 C 
ATOM      3  C   UNL     1       3.991   4.227  18.706  0.00  0.00    +0.000 A 
ATOM      4  C   UNL     1       4.159   3.955  17.350  0.00  0.00    +0.000 A 
ATOM      5  C   UNL     1       3.437   2.857  16.834  0.00  0.00    +0.000 A 
ATOM      6  C   UNL     1       2.559   2.097  17.632  0.00  0.00    +0.000 A 
ATOM      7  C   UNL     1       2.339   2.435  18.961  0.00  0.00    +0.000 A 
ATOM      8  C   UNL     1       3.051   3.509  19.460  0.00  0.00    +0.000 A 
ATOM      9  C   UNL     1       2.593   4.390  20.565  0.00  0.00    +0.000 C 
ATOM     10  O   UNL     1       1.734   4.101  21.370  0.00  0.00    +0.000 OA
ENDROOT
BRANCH   1  15
ATOM     11  C   UNL     1       1.326   8.820  19.904  0.00  0.00    +0.000 A 
ATOM     12  C   UNL     1       1.767   9.167  18.620  0.00  0.00    +0.000 A 
ATOM     13  C   UNL     1       2.371   8.218  17.797  0.00  0.00    +0.000 A 
ATOM     14  C   UNL     1       2.624   6.939  18.279  0.00  0.00    +0.000 A 
ATOM     15  C   UNL     1       2.367   6.640  19.626  0.00  0.00    +0.000 A 
ATOM     16  C   UNL     1       1.621   7.544  20.398  0.00  0.00    +0.000 A 
BRANCH  11  17
ATOM     17  C   UNL     1       0.631   9.839  20.776  0.00  0.00    +0.000 C 
BRANCH  17  18
ATOM     18  C   UNL     1      -0.631  10.390  20.108  0.00  0.00    +0.000 C 
BRANCH  18  24
ATOM     19  C   UNL     1      -1.967  11.728  17.625  0.00  0.00    +0.000 C 
ATOM     20  N   UNL     1      -1.022  12.337  18.522  0.00  0.00    +0.000 N 
ATOM     21  C   UNL     1      -0.520  13.597  18.417  0.00  0.00    +0.000 A 
ATOM     22  N   UNL     1       0.287  13.831  19.424  0.00  0.00    +0.000 NA
ATOM     23  N   UNL     1       0.332  12.694  20.194  0.00  0.00    +0.000 NA
ATOM     24  C   UNL     1      -0.447  11.788  19.637  0.00  0.00    +0.000 A 
ENDBRANCH  18  24
ENDBRANCH  17  18
ENDBRANCH  11  17
ENDBRANCH   1  15
BRANCH   4  25
ATOM     25  C   UNL     1       4.821   4.917  16.383  0.00  0.00    +0.000 C 
BRANCH  25  26
ATOM     26  C   UNL     1       6.355   4.955  16.285  0.00  0.00    +0.000 C 
ATOM     27  C   UNL     1       6.858   4.676  14.874  0.00  0.00    +0.000 C 
ATOM     28  C   UNL     1       6.861   6.309  16.796  0.00  0.00    +0.000 C 
ATOM     29  F   UNL     1       6.883   3.999  17.106  0.00  0.00    +0.000 F 
ENDBRANCH  25  26
ENDBRANCH   4  25
TORSDOF 6
ENDMDL
MODEL 9
REMARK VINA RESULT:      -7.7      0.635      1.167
REMARK  Name = 
REMARK  9 active torsions:
REMARK  status: ('A' for Active; 'I' for Inactive)
REMARK    1  A    between atoms: C_1  and  N_2
REMARK    2  A    between atoms: C_6  and  C_7
REMARK    3  A    between atoms: C_7  and  C_8
REMARK    4  A    between atoms: C_8  and  C_9
REMARK    5  A    between atoms: C_13  and  N_14
REMARK    6  A    between atoms: C_17  and  C_18
REMARK    7  A    between atoms: C_18  and  C_19
REMARK    8  A    between atoms: C_19  and  C_20
REMARK    9  A    between atoms: C_19  and  C_21
REMARK                            x       y       z     vdW  Elec       q    Type
REMARK                         _______ _______ _______ _____ _____    ______ ____
ROOT
ATOM      1  N   UNL     1       6.034   5.613  15.760  0.00  0.00    +0.000 N 
ATOM      2  C   UNL     1       4.797   6.350  16.110  0.00  0.00    +0.000 C 
ATOM      3  C   UNL     1       4.120   5.396  17.042  0.00  0.00    +0.000 A 
ATOM      4  C   UNL     1       3.496   5.601  18.270  0.00  0.00    +0.000 A 
ATOM      5  C   UNL     1       3.156   4.443  19.005  0.00  0.00    +0.000 A 
ATOM      6  C   UNL     1       3.468   3.148  18.545  0.00  0.00    +0.000 A 
ATOM      7  C   UNL     1       4.167   2.967  17.359  0.00  0.00    +0.000 A 
ATOM      8  C   UNL     1       4.493   4.104  16.645  0.00  0.00    +0.000 A 
ATOM      9  C   UNL     1       5.666   4.231  15.743  0.00  0.00    +0.000 C 
ATOM     10  O   UNL     1       6.278   3.298  15.267  0.00  0.00    +0.000 OA
ENDROOT
BRANCH   1  15
ATOM     11  C   UNL     1       7.940   7.873  17.959  0.00  0.00    +0.000 A 
ATOM     12  C   UNL     1       8.104   7.023  19.061  0.00  0.00    +0.000 A 
ATOM     13  C   UNL     1       7.904   5.650  18.935  0.00  0.00    +0.000 A 
ATOM     14  C   UNL     1       7.449   5.122  17.732  0.00  0.00    +0.000 A 
ATOM     15  C   UNL     1       7.092   5.985  16.684  0.00  0.00    +0.000 A 
ATOM     16  C   UNL     1       7.443   7.341  16.764  0.00  0.00    +0.000 A 
BRANCH  11  17
ATOM     17  C   UNL     1       8.203   9.355  18.089  0.00  0.00    +0.000 C 
BRANCH  17  18
ATOM     18  C   UNL     1       9.377   9.642  19.028  0.00  0.00    +0.000 C 
BRANCH  18  24
ATOM     19  C   UNL     1       9.558  12.450  17.679  0.00  0.00    +0.000 C 
ATOM     20  N   UNL     1       9.366  12.183  19.079  0.00  0.00    +0.000 N 
ATOM     21  C   UNL     1       9.267  13.116  20.064  0.00  0.00    +0.000 A 
ATOM     22  N   UNL     1       9.062  12.518  21.213  0.00  0.00    +0.000 NA
ATOM     23  N   UNL     1       9.047  11.165  20.981  0.00  0.00    +0.000 NA
ATOM     24  C   UNL     1       9.248  10.965  19.694  0.00  0.00    +0.000 A 
ENDBRANCH  18  24
ENDBRANCH  17  18
ENDBRANCH  11  17
ENDBRANCH   1  15
BRANCH   4  25
ATOM     25  C   UNL     1       3.431   6.951  18.958  0.00  0.00    +0.000 C 
BRANCH  25  26
ATOM     26  C   UNL     1       2.237   7.881  18.688  0.00  0.00    +0.000 C 
ATOM     27  C   UNL     1       1.574   8.369  19.969  0.00  0.00    +0.000 C 
ATOM     28  C   UNL     1       2.699   9.057  17.819  0.00  0.00    +0.000 C 
ATOM     29  F   UNL     1       1.293   7.205  17.968  0.00  0.00    +0.000 F 
ENDBRANCH  25  26
ENDBRANCH   4  25
TORSDOF 6
ENDMDL
