MODEL 1
REMARK VINA RESULT:      -8.5      0.000      0.000
REMARK  Name = 
REMARK  5 active torsions:
REMARK  status: ('A' for Active; 'I' for Inactive)
REMARK    1  A    between atoms: C_1  and  C_2
REMARK    2  A    between atoms: C_5  and  N_6
REMARK    3  A    between atoms: C_7  and  C_9
REMARK    4  A    between atoms: C_19  and  S_20
REMARK    5  A    between atoms: S_20  and  N_23
REMARK                            x       y       z     vdW  Elec       q    Type
REMARK                         _______ _______ _______ _____ _____    ______ ____
ROOT
ATOM      1  C   UNL     1       5.688   4.159  15.615  0.00  0.00    +0.000 C 
ATOM      2  C   UNL     1       4.918   5.013  16.578  0.00  0.00    +0.000 A 
ATOM      3  C   UNL     1       5.273   6.372  16.639  0.00  0.00    +0.000 A 
ATOM      4  C   UNL     1       4.564   7.280  17.424  0.00  0.00    +0.000 A 
ATOM      5  C   UNL     1       3.461   6.867  18.168  0.00  0.00    +0.000 A 
ATOM      6  C   UNL     1       3.101   5.514  18.138  0.00  0.00    +0.000 A 
ATOM      7  C   UNL     1       3.848   4.574  17.389  0.00  0.00    +0.000 A 
ENDROOT
BRANCH   5   8
ATOM      8  N   UNL     1       2.669   7.764  18.925  0.00  0.00    +0.000 N 
ATOM      9  C   UNL     1       1.886   8.785  18.400  0.00  0.00    +0.000 C 
ATOM     10  O   UNL     1       1.857   9.136  17.225  0.00  0.00    +0.000 OA
ATOM     11  H   UNL     1       2.753   7.703  19.929  0.00  0.00    +0.000 HD
BRANCH   9  12
ATOM     12  C   UNL     1       1.051   9.557  19.361  0.00  0.00    +0.000 A 
ATOM     13  C   UNL     1       0.047  10.382  18.822  0.00  0.00    +0.000 A 
ATOM     14  C   UNL     1      -0.852  11.081  19.631  0.00  0.00    +0.000 A 
ATOM     15  C   UNL     1      -0.702  10.901  21.003  0.00  0.00    +0.000 A 
ATOM     16  N   UNL     1      -1.399  11.354  22.087  0.00  0.00    +0.000 N 
ATOM     17  N   UNL     1      -0.867  10.920  23.240  0.00  0.00    +0.000 NA
ATOM     18  N   UNL     1       0.168  10.147  22.936  0.00  0.00    +0.000 NA
ATOM     19  C   UNL     1       0.285  10.109  21.573  0.00  0.00    +0.000 A 
ATOM     20  C   UNL     1       1.185   9.410  20.749  0.00  0.00    +0.000 A 
ATOM     21  H   UNL     1      -2.232  11.930  22.118  0.00  0.00    +0.000 HD
ENDBRANCH   9  12
ENDBRANCH   5   8
BRANCH   7  22
ATOM     22  S   UNL     1       3.274   2.859  17.423  0.00  0.00    +0.000 S 
ATOM     23  O   UNL     1       2.186   2.770  16.462  0.00  0.00    +0.000 OA
ATOM     24  O   UNL     1       4.418   1.989  17.315  0.00  0.00    +0.000 OA
BRANCH  22  25
ATOM     25  N   UNL     1       2.594   2.640  18.995  0.00  0.00    +0.000 NA
ATOM     26  C   UNL     1       3.565   2.723  20.108  0.00  0.00    +0.000 C 
ATOM     27  C   UNL     1       2.945   2.654  21.498  0.00  0.00    +0.000 C 
ATOM     28  C   UNL     1       1.727   3.549  21.615  0.00  0.00    +0.000 C 
ATOM     29  C   UNL     1       0.698   3.089  20.600  0.00  0.00    +0.000 C 
ATOM     30  C   UNL     1       1.228   3.173  19.174  0.00  0.00    +0.000 C 
ENDBRANCH  22  25
ENDBRANCH   7  22
TORSDOF 4
ENDMDL
MODEL 2
REMARK VINA RESULT:      -8.5      3.509      8.866
REMARK  Name = 
REMARK  5 active torsions:
REMARK  status: ('A' for Active; 'I' for Inactive)
REMARK    1  A    between atoms: C_1  and  C_2
REMARK    2  A    between atoms: C_5  and  N_6
REMARK    3  A    between atoms: C_7  and  C_9
REMARK    4  A    between atoms: C_19  and  S_20
REMARK    5  A    between atoms: S_20  and  N_23
REMARK                            x       y       z     vdW  Elec       q    Type
REMARK                         _______ _______ _______ _____ _____    ______ ____
ROOT
ATOM      1  C   UNL     1      -1.706  12.183  18.699  0.00  0.00    +0.000 C 
ATOM      2  C   UNL     1      -0.551  11.227  18.659  0.00  0.00    +0.000 A 
ATOM      3  C   UNL     1      -0.699  10.091  17.845  0.00  0.00    +0.000 A 
ATOM      4  C   UNL     1       0.343   9.185  17.653  0.00  0.00    +0.000 A 
ATOM      5  C   UNL     1       1.582   9.388  18.257  0.00  0.00    +0.000 A 
ATOM      6  C   UNL     1       1.747  10.503  19.089  0.00  0.00    +0.000 A 
ATOM      7  C   UNL     1       0.678  11.398  19.334  0.00  0.00    +0.000 A 
ENDROOT
BRANCH   5   8
ATOM      8  N   UNL     1       2.690   8.534  18.039  0.00  0.00    +0.000 N 
ATOM      9  C   UNL     1       2.840   7.260  18.573  0.00  0.00    +0.000 C 
ATOM     10  O   UNL     1       2.102   6.737  19.402  0.00  0.00    +0.000 OA
ATOM     11  H   UNL     1       3.465   8.923  17.522  0.00  0.00    +0.000 HD
BRANCH   9  12
ATOM     12  C   UNL     1       4.036   6.485  18.143  0.00  0.00    +0.000 A 
ATOM     13  C   UNL     1       4.470   5.449  18.990  0.00  0.00    +0.000 A 
ATOM     14  C   UNL     1       5.525   4.601  18.645  0.00  0.00    +0.000 A 
ATOM     15  C   UNL     1       6.112   4.836  17.404  0.00  0.00    +0.000 A 
ATOM     16  N   UNL     1       7.103   4.206  16.706  0.00  0.00    +0.000 N 
ATOM     17  N   UNL     1       7.346   4.809  15.531  0.00  0.00    +0.000 NA
ATOM     18  N   UNL     1       6.498   5.824  15.421  0.00  0.00    +0.000 NA
ATOM     19  C   UNL     1       5.723   5.857  16.549  0.00  0.00    +0.000 A 
ATOM     20  C   UNL     1       4.661   6.705  16.907  0.00  0.00    +0.000 A 
ATOM     21  H   UNL     1       7.631   3.376  16.948  0.00  0.00    +0.000 HD
ENDBRANCH   9  12
ENDBRANCH   5   8
BRANCH   7  22
ATOM     22  S   UNL     1       1.023  12.805  20.418  0.00  0.00    +0.000 S 
ATOM     23  O   UNL     1       2.413  12.680  20.826  0.00  0.00    +0.000 OA
ATOM     24  O   UNL     1       0.557  14.006  19.773  0.00  0.00    +0.000 OA
BRANCH  22  25
ATOM     25  N   UNL     1       0.047  12.549  21.818  0.00  0.00    +0.000 NA
ATOM     26  C   UNL     1      -0.879  13.657  22.141  0.00  0.00    +0.000 C 
ATOM     27  C   UNL     1      -1.826  13.376  23.301  0.00  0.00    +0.000 C 
ATOM     28  C   UNL     1      -2.453  12.001  23.194  0.00  0.00    +0.000 C 
ATOM     29  C   UNL     1      -1.344  10.968  23.211  0.00  0.00    +0.000 C 
ATOM     30  C   UNL     1      -0.375  11.152  22.049  0.00  0.00    +0.000 C 
ENDBRANCH  22  25
ENDBRANCH   7  22
TORSDOF 4
ENDMDL
MODEL 3
REMARK VINA RESULT:      -8.4      3.470      8.711
REMARK  Name = 
REMARK  5 active torsions:
REMARK  status: ('A' for Active; 'I' for Inactive)
REMARK    1  A    between atoms: C_1  and  C_2
REMARK    2  A    between atoms: C_5  and  N_6
REMARK    3  A    between atoms: C_7  and  C_9
REMARK    4  A    between atoms: C_19  and  S_20
REMARK    5  A    between atoms: S_20  and  N_23
REMARK                            x       y       z     vdW  Elec       q    Type
REMARK                         _______ _______ _______ _____ _____    ______ ____
ROOT
ATOM      1  C   UNL     1      -1.249  11.200  22.672  0.00  0.00    +0.000 C 
ATOM      2  C   UNL     1      -0.279  10.355  21.901  0.00  0.00    +0.000 A 
ATOM      3  C   UNL     1       0.314   9.284  22.593  0.00  0.00    +0.000 A 
ATOM      4  C   UNL     1       1.154   8.374  21.953  0.00  0.00    +0.000 A 
ATOM      5  C   UNL     1       1.422   8.489  20.591  0.00  0.00    +0.000 A 
ATOM      6  C   UNL     1       0.858   9.559  19.885  0.00  0.00    +0.000 A 
ATOM      7  C   UNL     1       0.049  10.520  20.537  0.00  0.00    +0.000 A 
ENDROOT
BRANCH   5   8
ATOM      8  N   UNL     1       2.213   7.551  19.884  0.00  0.00    +0.000 N 
ATOM      9  C   UNL     1       2.435   7.560  18.513  0.00  0.00    +0.000 C 
ATOM     10  O   UNL     1       1.890   8.300  17.701  0.00  0.00    +0.000 OA
ATOM     11  H   UNL     1       2.568   6.769  20.415  0.00  0.00    +0.000 HD
BRANCH   9  12
ATOM     12  C   UNL     1       3.378   6.540  17.976  0.00  0.00    +0.000 A 
ATOM     13  C   UNL     1       2.954   5.198  17.997  0.00  0.00    +0.000 A 
ATOM     14  C   UNL     1       3.717   4.170  17.439  0.00  0.00    +0.000 A 
ATOM     15  C   UNL     1       4.918   4.556  16.850  0.00  0.00    +0.000 A 
ATOM     16  N   UNL     1       5.887   3.874  16.170  0.00  0.00    +0.000 N 
ATOM     17  N   UNL     1       6.892   4.679  15.790  0.00  0.00    +0.000 NA
ATOM     18  N   UNL     1       6.586   5.910  16.183  0.00  0.00    +0.000 NA
ATOM     19  C   UNL     1       5.378   5.865  16.825  0.00  0.00    +0.000 A 
ATOM     20  C   UNL     1       4.602   6.892  17.390  0.00  0.00    +0.000 A 
ATOM     21  H   UNL     1       5.924   2.893  15.918  0.00  0.00    +0.000 HD
ENDBRANCH   9  12
ENDBRANCH   5   8
BRANCH   7  22
ATOM     22  S   UNL     1      -0.629  11.848  19.512  0.00  0.00    +0.000 S 
ATOM     23  O   UNL     1      -1.099  12.875  20.427  0.00  0.00    +0.000 OA
ATOM     24  O   UNL     1       0.329  12.168  18.483  0.00  0.00    +0.000 OA
BRANCH  22  25
ATOM     25  N   UNL     1      -2.015  11.165  18.744  0.00  0.00    +0.000 NA
ATOM     26  C   UNL     1      -3.272  11.918  18.947  0.00  0.00    +0.000 C 
ATOM     27  C   UNL     1      -4.466  11.384  18.165  0.00  0.00    +0.000 C 
ATOM     28  C   UNL     1      -4.104  11.077  16.726  0.00  0.00    +0.000 C 
ATOM     29  C   UNL     1      -3.012  10.027  16.722  0.00  0.00    +0.000 C 
ATOM     30  C   UNL     1      -1.759  10.504  17.446  0.00  0.00    +0.000 C 
ENDBRANCH  22  25
ENDBRANCH   7  22
TORSDOF 4
ENDMDL
MODEL 4
REMARK VINA RESULT:      -8.4      6.047      7.691
REMARK  Name = 
REMARK  5 active torsions:
REMARK  status: ('A' for Active; 'I' for Inactive)
REMARK    1  A    between atoms: C_1  and  C_2
REMARK    2  A    between atoms: C_5  and  N_6
REMARK    3  A    between atoms: C_7  and  C_9
REMARK    4  A    between atoms: C_19  and  S_20
REMARK    5  A    between atoms: S_20  and  N_23
REMARK                            x       y       z     vdW  Elec       q    Type
REMARK                         _______ _______ _______ _____ _____    ______ ____
ROOT
ATOM      1  C   UNL     1       6.634   4.282  18.492  0.00  0.00    +0.000 C 
ATOM      2  C   UNL     1       7.018   5.719  18.302  0.00  0.00    +0.000 A 
ATOM      3  C   UNL     1       8.025   6.220  19.146  0.00  0.00    +0.000 A 
ATOM      4  C   UNL     1       8.532   7.510  18.995  0.00  0.00    +0.000 A 
ATOM      5  C   UNL     1       8.062   8.346  17.985  0.00  0.00    +0.000 A 
ATOM      6  C   UNL     1       7.046   7.875  17.145  0.00  0.00    +0.000 A 
ATOM      7  C   UNL     1       6.485   6.588  17.324  0.00  0.00    +0.000 A 
ENDROOT
BRANCH   5   8
ATOM      8  N   UNL     1       8.593   9.637  17.751  0.00  0.00    +0.000 N 
ATOM      9  C   UNL     1       9.142  10.468  18.720  0.00  0.00    +0.000 C 
ATOM     10  O   UNL     1       9.140  10.261  19.929  0.00  0.00    +0.000 OA
ATOM     11  H   UNL     1       8.482  10.009  16.819  0.00  0.00    +0.000 HD
BRANCH   9  12
ATOM     12  C   UNL     1       9.735  11.751  18.251  0.00  0.00    +0.000 A 
ATOM     13  C   UNL     1      10.950  11.678  17.546  0.00  0.00    +0.000 A 
ATOM     14  C   UNL     1      11.550  12.806  16.982  0.00  0.00    +0.000 A 
ATOM     15  C   UNL     1      10.865  14.007  17.150  0.00  0.00    +0.000 A 
ATOM     16  N   UNL     1      11.091  15.281  16.714  0.00  0.00    +0.000 N 
ATOM     17  N   UNL     1      10.146  16.132  17.144  0.00  0.00    +0.000 NA
ATOM     18  N   UNL     1       9.264  15.427  17.843  0.00  0.00    +0.000 NA
ATOM     19  C   UNL     1       9.673  14.122  17.854  0.00  0.00    +0.000 A 
ATOM     20  C   UNL     1       9.079  12.979  18.417  0.00  0.00    +0.000 A 
ATOM     21  H   UNL     1      11.834  15.634  16.122  0.00  0.00    +0.000 HD
ENDBRANCH   9  12
ENDBRANCH   5   8
BRANCH   7  22
ATOM     22  S   UNL     1       5.187   6.093  16.166  0.00  0.00    +0.000 S 
ATOM     23  O   UNL     1       5.015   7.203  15.242  0.00  0.00    +0.000 OA
ATOM     24  O   UNL     1       5.488   4.773  15.674  0.00  0.00    +0.000 OA
BRANCH  22  25
ATOM     25  N   UNL     1       3.749   5.983  17.116  0.00  0.00    +0.000 NA
ATOM     26  C   UNL     1       3.306   4.604  17.413  0.00  0.00    +0.000 C 
ATOM     27  C   UNL     1       2.111   4.509  18.354  0.00  0.00    +0.000 C 
ATOM     28  C   UNL     1       2.265   5.427  19.551  0.00  0.00    +0.000 C 
ATOM     29  C   UNL     1       2.377   6.852  19.048  0.00  0.00    +0.000 C 
ATOM     30  C   UNL     1       3.580   7.042  18.133  0.00  0.00    +0.000 C 
ENDBRANCH  22  25
ENDBRANCH   7  22
TORSDOF 4
ENDMDL
MODEL 5
REMARK VINA RESULT:      -8.4      6.153      7.746
REMARK  Name = 
REMARK  5 active torsions:
REMARK  status: ('A' for Active; 'I' for Inactive)
REMARK    1  A    between atoms: C_1  and  C_2
REMARK    2  A    between atoms: C_5  and  N_6
REMARK    3  A    between atoms: C_7  and  C_9
REMARK    4  A    between atoms: C_19  and  S_20
REMARK    5  A    between atoms: S_20  and  N_23
REMARK                            x       y       z     vdW  Elec       q    Type
REMARK                         _______ _______ _______ _____ _____    ______ ____
ROOT
ATOM      1  C   UNL     1       6.880   4.358  18.596  0.00  0.00    +0.000 C 
ATOM      2  C   UNL     1       7.216   5.803  18.379  0.00  0.00    +0.000 A 
ATOM      3  C   UNL     1       8.168   6.367  19.247  0.00  0.00    +0.000 A 
ATOM      4  C   UNL     1       8.631   7.671  19.079  0.00  0.00    +0.000 A 
ATOM      5  C   UNL     1       8.172   8.459  18.026  0.00  0.00    +0.000 A 
ATOM      6  C   UNL     1       7.210   7.926  17.160  0.00  0.00    +0.000 A 
ATOM      7  C   UNL     1       6.691   6.623  17.355  0.00  0.00    +0.000 A 
ENDROOT
BRANCH   5   8
ATOM      8  N   UNL     1       8.663   9.763  17.775  0.00  0.00    +0.000 N 
ATOM      9  C   UNL     1       9.220  10.609  18.727  0.00  0.00    +0.000 C 
ATOM     10  O   UNL     1       9.259  10.404  19.936  0.00  0.00    +0.000 OA
ATOM     11  H   UNL     1       8.515  10.131  16.847  0.00  0.00    +0.000 HD
BRANCH   9  12
ATOM     12  C   UNL     1       9.765  11.906  18.239  0.00  0.00    +0.000 A 
ATOM     13  C   UNL     1      10.973  11.865  17.519  0.00  0.00    +0.000 A 
ATOM     14  C   UNL     1      11.530  13.007  16.938  0.00  0.00    +0.000 A 
ATOM     15  C   UNL     1      10.809  14.186  17.105  0.00  0.00    +0.000 A 
ATOM     16  N   UNL     1      10.989  15.463  16.655  0.00  0.00    +0.000 N 
ATOM     17  N   UNL     1      10.022  16.288  17.090  0.00  0.00    +0.000 NA
ATOM     18  N   UNL     1       9.172  15.562  17.806  0.00  0.00    +0.000 NA
ATOM     19  C   UNL     1       9.623  14.270  17.823  0.00  0.00    +0.000 A 
ATOM     20  C   UNL     1       9.073  13.114  18.403  0.00  0.00    +0.000 A 
ATOM     21  H   UNL     1      11.713  15.834  16.051  0.00  0.00    +0.000 HD
ENDBRANCH   9  12
ENDBRANCH   5   8
BRANCH   7  22
ATOM     22  S   UNL     1       5.461   6.046  16.161  0.00  0.00    +0.000 S 
ATOM     23  O   UNL     1       4.842   7.236  15.600  0.00  0.00    +0.000 OA
ATOM     24  O   UNL     1       6.079   5.070  15.300  0.00  0.00    +0.000 OA
BRANCH  22  25
ATOM     25  N   UNL     1       4.263   5.233  17.101  0.00  0.00    +0.000 NA
ATOM     26  C   UNL     1       3.305   6.124  17.791  0.00  0.00    +0.000 C 
ATOM     27  C   UNL     1       2.175   5.402  18.516  0.00  0.00    +0.000 C 
ATOM     28  C   UNL     1       1.564   4.311  17.659  0.00  0.00    +0.000 C 
ATOM     29  C   UNL     1       2.648   3.305  17.323  0.00  0.00    +0.000 C 
ATOM     30  C   UNL     1       3.798   3.942  16.552  0.00  0.00    +0.000 C 
ENDBRANCH  22  25
ENDBRANCH   7  22
TORSDOF 4
ENDMDL
MODEL 6
REMARK VINA RESULT:      -8.4      3.321      8.530
REMARK  Name = 
REMARK  5 active torsions:
REMARK  status: ('A' for Active; 'I' for Inactive)
REMARK    1  A    between atoms: C_1  and  C_2
REMARK    2  A    between atoms: C_5  and  N_6
REMARK    3  A    between atoms: C_7  and  C_9
REMARK    4  A    between atoms: C_19  and  S_20
REMARK    5  A    between atoms: S_20  and  N_23
REMARK                            x       y       z     vdW  Elec       q    Type
REMARK                         _______ _______ _______ _____ _____    ______ ____
ROOT
ATOM      1  C   UNL     1      -1.595  12.187  22.653  0.00  0.00    +0.000 C 
ATOM      2  C   UNL     1      -0.703  11.082  22.169  0.00  0.00    +0.000 A 
ATOM      3  C   UNL     1      -0.508  10.000  23.045  0.00  0.00    +0.000 A 
ATOM      4  C   UNL     1       0.218   8.872  22.665  0.00  0.00    +0.000 A 
ATOM      5  C   UNL     1       0.767   8.776  21.389  0.00  0.00    +0.000 A 
ATOM      6  C   UNL     1       0.602   9.851  20.506  0.00  0.00    +0.000 A 
ATOM      7  C   UNL     1      -0.086  11.023  20.900  0.00  0.00    +0.000 A 
ENDROOT
BRANCH   5   8
ATOM      8  N   UNL     1       1.454   7.624  20.935  0.00  0.00    +0.000 N 
ATOM      9  C   UNL     1       2.084   7.497  19.703  0.00  0.00    +0.000 C 
ATOM     10  O   UNL     1       2.038   8.310  18.785  0.00  0.00    +0.000 OA
ATOM     11  H   UNL     1       1.404   6.807  21.526  0.00  0.00    +0.000 HD
BRANCH   9  12
ATOM     12  C   UNL     1       2.835   6.236  19.457  0.00  0.00    +0.000 A 
ATOM     13  C   UNL     1       3.750   6.231  18.388  0.00  0.00    +0.000 A 
ATOM     14  C   UNL     1       4.573   5.134  18.120  0.00  0.00    +0.000 A 
ATOM     15  C   UNL     1       4.441   4.051  18.985  0.00  0.00    +0.000 A 
ATOM     16  N   UNL     1       5.087   2.851  19.085  0.00  0.00    +0.000 N 
ATOM     17  N   UNL     1       4.600   2.104  20.089  0.00  0.00    +0.000 NA
ATOM     18  N   UNL     1       3.649   2.811  20.687  0.00  0.00    +0.000 NA
ATOM     19  C   UNL     1       3.538   4.011  20.038  0.00  0.00    +0.000 A 
ATOM     20  C   UNL     1       2.715   5.121  20.298  0.00  0.00    +0.000 A 
ATOM     21  H   UNL     1       5.857   2.490  18.535  0.00  0.00    +0.000 HD
ENDBRANCH   9  12
ENDBRANCH   5   8
BRANCH   7  22
ATOM     22  S   UNL     1      -0.240  12.334  19.664  0.00  0.00    +0.000 S 
ATOM     23  O   UNL     1      -0.815  13.481  20.349  0.00  0.00    +0.000 OA
ATOM     24  O   UNL     1       1.014  12.456  18.964  0.00  0.00    +0.000 OA
BRANCH  22  25
ATOM     25  N   UNL     1      -1.416  11.761  18.538  0.00  0.00    +0.000 NA
ATOM     26  C   UNL     1      -1.006  10.568  17.766  0.00  0.00    +0.000 C 
ATOM     27  C   UNL     1      -2.091   9.990  16.866  0.00  0.00    +0.000 C 
ATOM     28  C   UNL     1      -3.422   9.887  17.584  0.00  0.00    +0.000 C 
ATOM     29  C   UNL     1      -3.839  11.279  18.017  0.00  0.00    +0.000 C 
ATOM     30  C   UNL     1      -2.824  11.910  18.962  0.00  0.00    +0.000 C 
ENDBRANCH  22  25
ENDBRANCH   7  22
TORSDOF 4
ENDMDL
MODEL 7
REMARK VINA RESULT:      -8.3      2.314      3.808
REMARK  Name = 
REMARK  5 active torsions:
REMARK  status: ('A' for Active; 'I' for Inactive)
REMARK    1  A    between atoms: C_1  and  C_2
REMARK    2  A    between atoms: C_5  and  N_6
REMARK    3  A    between atoms: C_7  and  C_9
REMARK    4  A    between atoms: C_19  and  S_20
REMARK    5  A    between atoms: S_20  and  N_23
REMARK                            x       y       z     vdW  Elec       q    Type
REMARK                         _______ _______ _______ _____ _____    ______ ____
ROOT
ATOM      1  C   UNL     1       3.973   2.826  16.946  0.00  0.00    +0.000 C 
ATOM      2  C   UNL     1       3.479   4.139  17.475  0.00  0.00    +0.000 A 
ATOM      3  C   UNL     1       2.429   4.089  18.409  0.00  0.00    +0.000 A 
ATOM      4  C   UNL     1       1.956   5.238  19.042  0.00  0.00    +0.000 A 
ATOM      5  C   UNL     1       2.523   6.481  18.776  0.00  0.00    +0.000 A 
ATOM      6  C   UNL     1       3.557   6.559  17.834  0.00  0.00    +0.000 A 
ATOM      7  C   UNL     1       4.008   5.407  17.146  0.00  0.00    +0.000 A 
ENDROOT
BRANCH   5   8
ATOM      8  N   UNL     1       2.123   7.664  19.443  0.00  0.00    +0.000 N 
ATOM      9  C   UNL     1       1.468   8.738  18.851  0.00  0.00    +0.000 C 
ATOM     10  O   UNL     1       1.249   8.873  17.651  0.00  0.00    +0.000 OA
ATOM     11  H   UNL     1       2.416   7.763  20.404  0.00  0.00    +0.000 HD
BRANCH   9  12
ATOM     12  C   UNL     1       1.046   9.848  19.748  0.00  0.00    +0.000 A 
ATOM     13  C   UNL     1       1.077  11.151  19.218  0.00  0.00    +0.000 A 
ATOM     14  C   UNL     1       0.620  12.257  19.938  0.00  0.00    +0.000 A 
ATOM     15  C   UNL     1       0.120  11.989  21.209  0.00  0.00    +0.000 A 
ATOM     16  N   UNL     1      -0.454  12.771  22.171  0.00  0.00    +0.000 N 
ATOM     17  N   UNL     1      -0.776  12.062  23.265  0.00  0.00    +0.000 NA
ATOM     18  N   UNL     1      -0.453  10.796  23.028  0.00  0.00    +0.000 NA
ATOM     19  C   UNL     1       0.088  10.721  21.773  0.00  0.00    +0.000 A 
ATOM     20  C   UNL     1       0.552   9.616  21.039  0.00  0.00    +0.000 A 
ATOM     21  H   UNL     1      -0.668  13.761  22.149  0.00  0.00    +0.000 HD
ENDBRANCH   9  12
ENDBRANCH   5   8
BRANCH   7  22
ATOM     22  S   UNL     1       5.356   5.638  15.963  0.00  0.00    +0.000 S 
ATOM     23  O   UNL     1       5.497   4.379  15.248  0.00  0.00    +0.000 OA
ATOM     24  O   UNL     1       5.131   6.866  15.242  0.00  0.00    +0.000 OA
BRANCH  22  25
ATOM     25  N   UNL     1       6.774   5.848  16.925  0.00  0.00    +0.000 NA
ATOM     26  C   UNL     1       7.012   7.233  17.386  0.00  0.00    +0.000 C 
ATOM     27  C   UNL     1       8.191   7.392  18.338  0.00  0.00    +0.000 C 
ATOM     28  C   UNL     1       8.191   6.327  19.416  0.00  0.00    +0.000 C 
ATOM     29  C   UNL     1       8.285   4.970  18.747  0.00  0.00    +0.000 C 
ATOM     30  C   UNL     1       7.111   4.713  17.811  0.00  0.00    +0.000 C 
ENDBRANCH  22  25
ENDBRANCH   7  22
TORSDOF 4
ENDMDL
MODEL 8
REMARK VINA RESULT:      -8.2      1.921      4.044
REMARK  Name = 
REMARK  5 active torsions:
REMARK  status: ('A' for Active; 'I' for Inactive)
REMARK    1  A    between atoms: C_1  and  C_2
REMARK    2  A    between atoms: C_5  and  N_6
REMARK    3  A    between atoms: C_7  and  C_9
REMARK    4  A    between atoms: C_19  and  S_20
REMARK    5  A    between atoms: S_20  and  N_23
REMARK                            x       y       z     vdW  Elec       q    Type
REMARK                         _______ _______ _______ _____ _____    ______ ____
ROOT
ATOM      1  C   UNL     1       2.839   2.048  19.387  0.00  0.00    +0.000 C 
ATOM      2  C   UNL     1       2.508   3.487  19.653  0.00  0.00    +0.000 A 
ATOM      3  C   UNL     1       1.200   3.763  20.087  0.00  0.00    +0.000 A 
ATOM      4  C   UNL     1       0.807   5.048  20.458  0.00  0.00    +0.000 A 
ATOM      5  C   UNL     1       1.712   6.106  20.425  0.00  0.00    +0.000 A 
ATOM      6  C   UNL     1       3.016   5.858  19.978  0.00  0.00    +0.000 A 
ATOM      7  C   UNL     1       3.409   4.569  19.546  0.00  0.00    +0.000 A 
ENDROOT
BRANCH   5   8
ATOM      8  N   UNL     1       1.379   7.413  20.857  0.00  0.00    +0.000 N 
ATOM      9  C   UNL     1       1.334   8.540  20.045  0.00  0.00    +0.000 C 
ATOM     10  O   UNL     1       1.689   8.595  18.872  0.00  0.00    +0.000 OA
ATOM     11  H   UNL     1       1.249   7.541  21.849  0.00  0.00    +0.000 HD
BRANCH   9  12
ATOM     12  C   UNL     1       0.867   9.806  20.674  0.00  0.00    +0.000 A 
ATOM     13  C   UNL     1       1.148  11.004  19.993  0.00  0.00    +0.000 A 
ATOM     14  C   UNL     1       0.681  12.241  20.444  0.00  0.00    +0.000 A 
ATOM     15  C   UNL     1      -0.091  12.213  21.602  0.00  0.00    +0.000 A 
ATOM     16  N   UNL     1      -0.756  13.177  22.305  0.00  0.00    +0.000 N 
ATOM     17  N   UNL     1      -1.369  12.673  23.388  0.00  0.00    +0.000 NA
ATOM     18  N   UNL     1      -1.147  11.364  23.398  0.00  0.00    +0.000 NA
ATOM     19  C   UNL     1      -0.376  11.054  22.310  0.00  0.00    +0.000 A 
ATOM     20  C   UNL     1       0.100   9.815  21.848  0.00  0.00    +0.000 A 
ATOM     21  H   UNL     1      -0.851  14.166  22.106  0.00  0.00    +0.000 HD
ENDBRANCH   9  12
ENDBRANCH   5   8
BRANCH   7  22
ATOM     22  S   UNL     1       5.124   4.377  19.002  0.00  0.00    +0.000 S 
ATOM     23  O   UNL     1       5.868   5.481  19.587  0.00  0.00    +0.000 OA
ATOM     24  O   UNL     1       5.531   3.015  19.239  0.00  0.00    +0.000 OA
BRANCH  22  25
ATOM     25  N   UNL     1       5.089   4.624  17.294  0.00  0.00    +0.000 NA
ATOM     26  C   UNL     1       5.236   6.033  16.867  0.00  0.00    +0.000 C 
ATOM     27  C   UNL     1       5.332   6.234  15.360  0.00  0.00    +0.000 C 
ATOM     28  C   UNL     1       6.287   5.246  14.721  0.00  0.00    +0.000 C 
ATOM     29  C   UNL     1       5.777   3.844  14.993  0.00  0.00    +0.000 C 
ATOM     30  C   UNL     1       5.698   3.547  16.486  0.00  0.00    +0.000 C 
ENDBRANCH  22  25
ENDBRANCH   7  22
TORSDOF 4
ENDMDL
MODEL 9
REMARK VINA RESULT:      -8.2      0.689      1.224
REMARK  Name = 
REMARK  5 active torsions:
REMARK  status: ('A' for Active; 'I' for Inactive)
REMARK    1  A    between atoms: C_1  and  C_2
REMARK    2  A    between atoms: C_5  and  N_6
REMARK    3  A    between atoms: C_7  and  C_9
REMARK    4  A    between atoms: C_19  and  S_20
REMARK    5  A    between atoms: S_20  and  N_23
REMARK                            x       y       z     vdW  Elec       q    Type
REMARK                         _______ _______ _______ _____ _____    ______ ____
ROOT
ATOM      1  C   UNL     1       5.341   4.475  15.483  0.00  0.00    +0.000 C 
ATOM      2  C   UNL     1       4.624   5.216  16.572  0.00  0.00    +0.000 A 
ATOM      3  C   UNL     1       4.875   6.596  16.668  0.00  0.00    +0.000 A 
ATOM      4  C   UNL     1       4.193   7.404  17.576  0.00  0.00    +0.000 A 
ATOM      5  C   UNL     1       3.221   6.866  18.416  0.00  0.00    +0.000 A 
ATOM      6  C   UNL     1       2.967   5.490  18.352  0.00  0.00    +0.000 A 
ATOM      7  C   UNL     1       3.694   4.652  17.473  0.00  0.00    +0.000 A 
ENDROOT
BRANCH   5   8
ATOM      8  N   UNL     1       2.454   7.657  19.306  0.00  0.00    +0.000 N 
ATOM      9  C   UNL     1       1.627   8.711  18.935  0.00  0.00    +0.000 C 
ATOM     10  O   UNL     1       1.531   9.187  17.809  0.00  0.00    +0.000 OA
ATOM     11  H   UNL     1       2.592   7.490  20.291  0.00  0.00    +0.000 HD
BRANCH   9  12
ATOM     12  C   UNL     1       0.831   9.355  20.016  0.00  0.00    +0.000 A 
ATOM     13  C   UNL     1       0.495   8.560  21.128  0.00  0.00    +0.000 A 
ATOM     14  C   UNL     1      -0.170   9.082  22.239  0.00  0.00    +0.000 A 
ATOM     15  C   UNL     1      -0.470  10.440  22.184  0.00  0.00    +0.000 A 
ATOM     16  N   UNL     1      -1.048  11.306  23.069  0.00  0.00    +0.000 N 
ATOM     17  N   UNL     1      -1.144  12.546  22.564  0.00  0.00    +0.000 NA
ATOM     18  N   UNL     1      -0.601  12.527  21.353  0.00  0.00    +0.000 NA
ATOM     19  C   UNL     1      -0.171  11.253  21.099  0.00  0.00    +0.000 A 
ATOM     20  C   UNL     1       0.498  10.716  19.986  0.00  0.00    +0.000 A 
ATOM     21  H   UNL     1      -1.376  11.135  24.013  0.00  0.00    +0.000 HD
ENDBRANCH   9  12
ENDBRANCH   5   8
BRANCH   7  22
ATOM     22  S   UNL     1       3.264   2.895  17.477  0.00  0.00    +0.000 S 
ATOM     23  O   UNL     1       2.197   2.729  16.504  0.00  0.00    +0.000 OA
ATOM     24  O   UNL     1       4.478   2.125  17.368  0.00  0.00    +0.000 OA
BRANCH  22  25
ATOM     25  N   UNL     1       2.593   2.596  19.039  0.00  0.00    +0.000 NA
ATOM     26  C   UNL     1       3.561   2.662  20.155  0.00  0.00    +0.000 C 
ATOM     27  C   UNL     1       2.945   2.523  21.541  0.00  0.00    +0.000 C 
ATOM     28  C   UNL     1       1.702   3.378  21.692  0.00  0.00    +0.000 C 
ATOM     29  C   UNL     1       0.686   2.930  20.660  0.00  0.00    +0.000 C 
ATOM     30  C   UNL     1       1.212   3.084  19.238  0.00  0.00    +0.000 C 
ENDBRANCH  22  25
ENDBRANCH   7  22
TORSDOF 4
ENDMDL
