MODEL 1
REMARK VINA RESULT:      -9.2      0.000      0.000
REMARK  Name = 
REMARK  8 active torsions:
REMARK  status: ('A' for Active; 'I' for Inactive)
REMARK    1  A    between atoms: C_1  and  C_2
REMARK    2  A    between atoms: C_5  and  C_6
REMARK    3  A    between atoms: C_13  and  C_14
REMARK    4  A    between atoms: N_16  and  C_17
REMARK    5  A    between atoms: C_17  and  C_18
REMARK    6  A    between atoms: N_22  and  C_23
REMARK    7  A    between atoms: C_23  and  C_24
REMARK    8  A    between atoms: C_24  and  C_25
REMARK                            x       y       z     vdW  Elec       q    Type
REMARK                         _______ _______ _______ _____ _____    ______ ____
ROOT
ATOM      1  C   UNL     1       2.508   5.428  19.095  0.00  0.00    +0.000 C 
ATOM      2  O   UNL     1       1.821   5.402  18.078  0.00  0.00    +0.000 OA
ATOM      3  N   UNL     1       2.638   6.583  19.832  0.00  0.00    +0.000 N 
ATOM      4  H   UNL     1       3.297   6.676  20.594  0.00  0.00    +0.000 HD
ENDROOT
BRANCH   1  10
ATOM      5  C   UNL     1       1.918   3.354  21.623  0.00  0.00    +0.000 C 
ATOM      6  C   UNL     1       2.974   3.430  20.595  0.00  0.00    +0.000 A 
ATOM      7  O   UNL     1       3.893   2.434  20.636  0.00  0.00    +0.000 OA
ATOM      8  N   UNL     1       4.820   2.613  19.644  0.00  0.00    +0.000 NA
ATOM      9  C   UNL     1       4.453   3.705  18.953  0.00  0.00    +0.000 A 
ATOM     10  C   UNL     1       3.262   4.272  19.538  0.00  0.00    +0.000 A 
BRANCH   9  11
ATOM     11  C   UNL     1       5.294   4.210  17.851  0.00  0.00    +0.000 A 
ATOM     12  C   UNL     1       4.947   3.877  16.526  0.00  0.00    +0.000 A 
ATOM     13  C   UNL     1       5.680   4.350  15.433  0.00  0.00    +0.000 A 
ATOM     14  C   UNL     1       6.756   5.203  15.634  0.00  0.00    +0.000 A 
ATOM     15  C   UNL     1       7.112   5.562  16.933  0.00  0.00    +0.000 A 
ATOM     16  C   UNL     1       6.402   5.062  18.037  0.00  0.00    +0.000 A 
ATOM     17 CL   UNL     1       7.007   5.529  19.592  0.00  0.00    +0.000 Cl
ENDBRANCH   9  11
ENDBRANCH   1  10
BRANCH   3  18
ATOM     18  C   UNL     1       2.033   7.804  19.341  0.00  0.00    +0.000 C 
BRANCH  18  19
ATOM     19  C   UNL     1       1.374   8.544  20.459  0.00  0.00    +0.000 A 
ATOM     20  N   UNL     1       1.567   8.327  21.750  0.00  0.00    +0.000 NA
ATOM     21  C   UNL     1       0.737   9.196  22.403  0.00  0.00    +0.000 A 
ATOM     22  C   UNL     1       0.033   9.962  21.506  0.00  0.00    +0.000 A 
ATOM     23  N   UNL     1       0.461   9.567  20.266  0.00  0.00    +0.000 N 
BRANCH  23  24
ATOM     24  C   UNL     1       0.000  10.099  18.985  0.00  0.00    +0.000 C 
BRANCH  24  25
ATOM     25  C   UNL     1      -1.278  10.940  19.079  0.00  0.00    +0.000 C 
BRANCH  25  26
ATOM     26  C   UNL     1      -2.231  10.765  17.920  0.00  0.00    +0.000 A 
ATOM     27  C   UNL     1      -3.409  11.524  17.847  0.00  0.00    +0.000 A 
ATOM     28  C   UNL     1      -4.245  11.433  16.733  0.00  0.00    +0.000 A 
ATOM     29  C   UNL     1      -3.918  10.575  15.684  0.00  0.00    +0.000 A 
ATOM     30  C   UNL     1      -2.763   9.798  15.758  0.00  0.00    +0.000 A 
ATOM     31  C   UNL     1      -1.925   9.889  16.871  0.00  0.00    +0.000 A 
ENDBRANCH  25  26
ENDBRANCH  24  25
ENDBRANCH  23  24
ENDBRANCH  18  19
ENDBRANCH   3  18
TORSDOF 7
ENDMDL
MODEL 2
REMARK VINA RESULT:      -8.9      1.089      1.726
REMARK  Name = 
REMARK  8 active torsions:
REMARK  status: ('A' for Active; 'I' for Inactive)
REMARK    1  A    between atoms: C_1  and  C_2
REMARK    2  A    between atoms: C_5  and  C_6
REMARK    3  A    between atoms: C_13  and  C_14
REMARK    4  A    between atoms: N_16  and  C_17
REMARK    5  A    between atoms: C_17  and  C_18
REMARK    6  A    between atoms: N_22  and  C_23
REMARK    7  A    between atoms: C_23  and  C_24
REMARK    8  A    between atoms: C_24  and  C_25
REMARK                            x       y       z     vdW  Elec       q    Type
REMARK                         _______ _______ _______ _____ _____    ______ ____
ROOT
ATOM      1  C   UNL     1       2.491   5.649  19.077  0.00  0.00    +0.000 C 
ATOM      2  O   UNL     1       1.941   5.665  17.979  0.00  0.00    +0.000 OA
ATOM      3  N   UNL     1       2.524   6.775  19.869  0.00  0.00    +0.000 N 
ATOM      4  H   UNL     1       3.079   6.835  20.713  0.00  0.00    +0.000 HD
ENDROOT
BRANCH   1  10
ATOM      5  C   UNL     1       1.360   3.166  20.973  0.00  0.00    +0.000 C 
ATOM      6  C   UNL     1       2.666   3.458  20.353  0.00  0.00    +0.000 A 
ATOM      7  O   UNL     1       3.620   2.513  20.542  0.00  0.00    +0.000 OA
ATOM      8  N   UNL     1       4.784   2.894  19.929  0.00  0.00    +0.000 NA
ATOM      9  C   UNL     1       4.542   4.066  19.317  0.00  0.00    +0.000 A 
ATOM     10  C   UNL     1       3.181   4.473  19.569  0.00  0.00    +0.000 A 
BRANCH   9  11
ATOM     11  C   UNL     1       5.627   4.782  18.619  0.00  0.00    +0.000 A 
ATOM     12  C   UNL     1       6.597   5.457  19.388  0.00  0.00    +0.000 A 
ATOM     13  C   UNL     1       7.672   6.126  18.793  0.00  0.00    +0.000 A 
ATOM     14  C   UNL     1       7.826   6.104  17.414  0.00  0.00    +0.000 A 
ATOM     15  C   UNL     1       6.891   5.432  16.630  0.00  0.00    +0.000 A 
ATOM     16  C   UNL     1       5.790   4.787  17.219  0.00  0.00    +0.000 A 
ATOM     17 CL   UNL     1       4.666   4.063  16.117  0.00  0.00    +0.000 Cl
ENDBRANCH   9  11
ENDBRANCH   1  10
BRANCH   3  18
ATOM     18  C   UNL     1       1.988   8.017  19.351  0.00  0.00    +0.000 C 
BRANCH  18  19
ATOM     19  C   UNL     1       1.172   8.706  20.394  0.00  0.00    +0.000 A 
ATOM     20  N   UNL     1       1.099   8.364  21.670  0.00  0.00    +0.000 NA
ATOM     21  C   UNL     1       0.213   9.235  22.241  0.00  0.00    +0.000 A 
ATOM     22  C   UNL     1      -0.256  10.130  21.311  0.00  0.00    +0.000 A 
ATOM     23  N   UNL     1       0.378   9.811  20.138  0.00  0.00    +0.000 N 
BRANCH  23  24
ATOM     24  C   UNL     1       0.208  10.488  18.854  0.00  0.00    +0.000 C 
BRANCH  24  25
ATOM     25  C   UNL     1      -0.644   9.710  17.844  0.00  0.00    +0.000 C 
BRANCH  25  26
ATOM     26  C   UNL     1      -1.945  10.381  17.472  0.00  0.00    +0.000 A 
ATOM     27  C   UNL     1      -2.465  10.253  16.175  0.00  0.00    +0.000 A 
ATOM     28  C   UNL     1      -3.713  10.793  15.854  0.00  0.00    +0.000 A 
ATOM     29  C   UNL     1      -4.448  11.473  16.822  0.00  0.00    +0.000 A 
ATOM     30  C   UNL     1      -3.930  11.626  18.107  0.00  0.00    +0.000 A 
ATOM     31  C   UNL     1      -2.683  11.087  18.430  0.00  0.00    +0.000 A 
ENDBRANCH  25  26
ENDBRANCH  24  25
ENDBRANCH  23  24
ENDBRANCH  18  19
ENDBRANCH   3  18
TORSDOF 7
ENDMDL
MODEL 3
REMARK VINA RESULT:      -8.8      0.717      1.018
REMARK  Name = 
REMARK  8 active torsions:
REMARK  status: ('A' for Active; 'I' for Inactive)
REMARK    1  A    between atoms: C_1  and  C_2
REMARK    2  A    between atoms: C_5  and  C_6
REMARK    3  A    between atoms: C_13  and  C_14
REMARK    4  A    between atoms: N_16  and  C_17
REMARK    5  A    between atoms: C_17  and  C_18
REMARK    6  A    between atoms: N_22  and  C_23
REMARK    7  A    between atoms: C_23  and  C_24
REMARK    8  A    between atoms: C_24  and  C_25
REMARK                            x       y       z     vdW  Elec       q    Type
REMARK                         _______ _______ _______ _____ _____    ______ ____
ROOT
ATOM      1  C   UNL     1       2.536   5.404  19.057  0.00  0.00    +0.000 C 
ATOM      2  O   UNL     1       1.814   5.345  18.065  0.00  0.00    +0.000 OA
ATOM      3  N   UNL     1       2.702   6.586  19.743  0.00  0.00    +0.000 N 
ATOM      4  H   UNL     1       3.387   6.702  20.478  0.00  0.00    +0.000 HD
ENDROOT
BRANCH   1  10
ATOM      5  C   UNL     1       1.941   3.361  21.609  0.00  0.00    +0.000 C 
ATOM      6  C   UNL     1       3.003   3.429  20.587  0.00  0.00    +0.000 A 
ATOM      7  O   UNL     1       3.928   2.439  20.647  0.00  0.00    +0.000 OA
ATOM      8  N   UNL     1       4.860   2.610  19.659  0.00  0.00    +0.000 NA
ATOM      9  C   UNL     1       4.491   3.691  18.951  0.00  0.00    +0.000 A 
ATOM     10  C   UNL     1       3.293   4.258  19.521  0.00  0.00    +0.000 A 
BRANCH   9  11
ATOM     11  C   UNL     1       5.337   4.185  17.847  0.00  0.00    +0.000 A 
ATOM     12  C   UNL     1       4.992   3.844  16.524  0.00  0.00    +0.000 A 
ATOM     13  C   UNL     1       5.729   4.307  15.429  0.00  0.00    +0.000 A 
ATOM     14  C   UNL     1       6.807   5.158  15.628  0.00  0.00    +0.000 A 
ATOM     15  C   UNL     1       7.161   5.525  16.924  0.00  0.00    +0.000 A 
ATOM     16  C   UNL     1       6.446   5.035  18.030  0.00  0.00    +0.000 A 
ATOM     17 CL   UNL     1       7.049   5.511  19.583  0.00  0.00    +0.000 Cl
ENDBRANCH   9  11
ENDBRANCH   1  10
BRANCH   3  18
ATOM     18  C   UNL     1       2.092   7.793  19.224  0.00  0.00    +0.000 C 
BRANCH  18  19
ATOM     19  C   UNL     1       1.358   8.512  20.307  0.00  0.00    +0.000 A 
ATOM     20  N   UNL     1       1.249   8.113  21.564  0.00  0.00    +0.000 NA
ATOM     21  C   UNL     1       0.465   9.045  22.186  0.00  0.00    +0.000 A 
ATOM     22  C   UNL     1       0.097  10.034  21.307  0.00  0.00    +0.000 A 
ATOM     23  N   UNL     1       0.691   9.710  20.115  0.00  0.00    +0.000 N 
BRANCH  23  24
ATOM     24  C   UNL     1       0.594  10.468  18.869  0.00  0.00    +0.000 C 
BRANCH  24  25
ATOM     25  C   UNL     1      -0.470   9.943  17.897  0.00  0.00    +0.000 C 
BRANCH  25  26
ATOM     26  C   UNL     1      -1.862  10.472  18.145  0.00  0.00    +0.000 A 
ATOM     27  C   UNL     1      -2.054  11.646  18.889  0.00  0.00    +0.000 A 
ATOM     28  C   UNL     1      -3.332  12.189  19.042  0.00  0.00    +0.000 A 
ATOM     29  C   UNL     1      -4.431  11.560  18.460  0.00  0.00    +0.000 A 
ATOM     30  C   UNL     1      -4.254  10.380  17.740  0.00  0.00    +0.000 A 
ATOM     31  C   UNL     1      -2.977   9.835  17.586  0.00  0.00    +0.000 A 
ENDBRANCH  25  26
ENDBRANCH  24  25
ENDBRANCH  23  24
ENDBRANCH  18  19
ENDBRANCH   3  18
TORSDOF 7
ENDMDL
MODEL 4
REMARK VINA RESULT:      -8.7      1.848      3.518
REMARK  Name = 
REMARK  8 active torsions:
REMARK  status: ('A' for Active; 'I' for Inactive)
REMARK    1  A    between atoms: C_1  and  C_2
REMARK    2  A    between atoms: C_5  and  C_6
REMARK    3  A    between atoms: C_13  and  C_14
REMARK    4  A    between atoms: N_16  and  C_17
REMARK    5  A    between atoms: C_17  and  C_18
REMARK    6  A    between atoms: N_22  and  C_23
REMARK    7  A    between atoms: C_23  and  C_24
REMARK    8  A    between atoms: C_24  and  C_25
REMARK                            x       y       z     vdW  Elec       q    Type
REMARK                         _______ _______ _______ _____ _____    ______ ____
ROOT
ATOM      1  C   UNL     1       3.833   6.696  18.056  0.00  0.00    +0.000 C 
ATOM      2  O   UNL     1       3.922   7.272  16.975  0.00  0.00    +0.000 OA
ATOM      3  N   UNL     1       2.869   7.055  18.972  0.00  0.00    +0.000 N 
ATOM      4  H   UNL     1       2.851   6.696  19.917  0.00  0.00    +0.000 HD
ENDROOT
BRANCH   1  10
ATOM      5  C   UNL     1       7.136   6.578  17.720  0.00  0.00    +0.000 C 
ATOM      6  C   UNL     1       6.139   5.656  18.296  0.00  0.00    +0.000 A 
ATOM      7  O   UNL     1       6.647   4.528  18.852  0.00  0.00    +0.000 OA
ATOM      8  N   UNL     1       5.632   3.751  19.344  0.00  0.00    +0.000 NA
ATOM      9  C   UNL     1       4.486   4.419  19.133  0.00  0.00    +0.000 A 
ATOM     10  C   UNL     1       4.765   5.659  18.449  0.00  0.00    +0.000 A 
BRANCH   9  11
ATOM     11  C   UNL     1       3.190   3.811  19.491  0.00  0.00    +0.000 A 
ATOM     12  C   UNL     1       2.797   3.801  20.844  0.00  0.00    +0.000 A 
ATOM     13  C   UNL     1       1.567   3.273  21.249  0.00  0.00    +0.000 A 
ATOM     14  C   UNL     1       0.680   2.777  20.305  0.00  0.00    +0.000 A 
ATOM     15  C   UNL     1       1.035   2.788  18.958  0.00  0.00    +0.000 A 
ATOM     16  C   UNL     1       2.283   3.285  18.548  0.00  0.00    +0.000 A 
ATOM     17 CL   UNL     1       2.620   3.161  16.853  0.00  0.00    +0.000 Cl
ENDBRANCH   9  11
ENDBRANCH   1  10
BRANCH   3  18
ATOM     18  C   UNL     1       2.017   8.192  18.689  0.00  0.00    +0.000 C 
BRANCH  18  19
ATOM     19  C   UNL     1       1.465   8.755  19.957  0.00  0.00    +0.000 A 
ATOM     20  N   UNL     1       1.423   8.136  21.125  0.00  0.00    +0.000 NA
ATOM     21  C   UNL     1       0.804   9.000  21.985  0.00  0.00    +0.000 A 
ATOM     22  C   UNL     1       0.471  10.168  21.343  0.00  0.00    +0.000 A 
ATOM     23  N   UNL     1       0.919  10.024  20.056  0.00  0.00    +0.000 N 
BRANCH  23  24
ATOM     24  C   UNL     1       0.798  11.011  18.985  0.00  0.00    +0.000 C 
BRANCH  24  25
ATOM     25  C   UNL     1      -0.454  11.891  19.083  0.00  0.00    +0.000 C 
BRANCH  25  26
ATOM     26  C   UNL     1      -1.673  11.327  18.393  0.00  0.00    +0.000 A 
ATOM     27  C   UNL     1      -2.936  11.904  18.596  0.00  0.00    +0.000 A 
ATOM     28  C   UNL     1      -4.049  11.445  17.889  0.00  0.00    +0.000 A 
ATOM     29  C   UNL     1      -3.914  10.398  16.979  0.00  0.00    +0.000 A 
ATOM     30  C   UNL     1      -2.669   9.802  16.788  0.00  0.00    +0.000 A 
ATOM     31  C   UNL     1      -1.554  10.260  17.494  0.00  0.00    +0.000 A 
ENDBRANCH  25  26
ENDBRANCH  24  25
ENDBRANCH  23  24
ENDBRANCH  18  19
ENDBRANCH   3  18
TORSDOF 7
ENDMDL
MODEL 5
REMARK VINA RESULT:      -8.7      1.098      1.502
REMARK  Name = 
REMARK  8 active torsions:
REMARK  status: ('A' for Active; 'I' for Inactive)
REMARK    1  A    between atoms: C_1  and  C_2
REMARK    2  A    between atoms: C_5  and  C_6
REMARK    3  A    between atoms: C_13  and  C_14
REMARK    4  A    between atoms: N_16  and  C_17
REMARK    5  A    between atoms: C_17  and  C_18
REMARK    6  A    between atoms: N_22  and  C_23
REMARK    7  A    between atoms: C_23  and  C_24
REMARK    8  A    between atoms: C_24  and  C_25
REMARK                            x       y       z     vdW  Elec       q    Type
REMARK                         _______ _______ _______ _____ _____    ______ ____
ROOT
ATOM      1  C   UNL     1       2.510   5.772  19.130  0.00  0.00    +0.000 C 
ATOM      2  O   UNL     1       2.114   5.894  17.973  0.00  0.00    +0.000 OA
ATOM      3  N   UNL     1       2.389   6.805  20.031  0.00  0.00    +0.000 N 
ATOM      4  H   UNL     1       2.821   6.787  20.946  0.00  0.00    +0.000 HD
ENDROOT
BRANCH   1  10
ATOM      5  C   UNL     1       1.343   3.287  21.000  0.00  0.00    +0.000 C 
ATOM      6  C   UNL     1       2.645   3.553  20.361  0.00  0.00    +0.000 A 
ATOM      7  O   UNL     1       3.575   2.578  20.515  0.00  0.00    +0.000 OA
ATOM      8  N   UNL     1       4.738   2.938  19.888  0.00  0.00    +0.000 NA
ATOM      9  C   UNL     1       4.518   4.127  19.302  0.00  0.00    +0.000 A 
ATOM     10  C   UNL     1       3.175   4.568  19.587  0.00  0.00    +0.000 A 
BRANCH   9  11
ATOM     11  C   UNL     1       5.611   4.825  18.597  0.00  0.00    +0.000 A 
ATOM     12  C   UNL     1       6.581   5.507  19.358  0.00  0.00    +0.000 A 
ATOM     13  C   UNL     1       7.662   6.159  18.757  0.00  0.00    +0.000 A 
ATOM     14  C   UNL     1       7.823   6.113  17.380  0.00  0.00    +0.000 A 
ATOM     15  C   UNL     1       6.887   5.433  16.603  0.00  0.00    +0.000 A 
ATOM     16  C   UNL     1       5.780   4.805  17.198  0.00  0.00    +0.000 A 
ATOM     17 CL   UNL     1       4.658   4.067  16.103  0.00  0.00    +0.000 Cl
ENDBRANCH   9  11
ENDBRANCH   1  10
BRANCH   3  18
ATOM     18  C   UNL     1       1.877   8.082  19.577  0.00  0.00    +0.000 C 
BRANCH  18  19
ATOM     19  C   UNL     1       1.139   8.768  20.678  0.00  0.00    +0.000 A 
ATOM     20  N   UNL     1       1.224   8.477  21.966  0.00  0.00    +0.000 NA
ATOM     21  C   UNL     1       0.354   9.320  22.598  0.00  0.00    +0.000 A 
ATOM     22  C   UNL     1      -0.266  10.147  21.694  0.00  0.00    +0.000 A 
ATOM     23  N   UNL     1       0.256   9.814  20.471  0.00  0.00    +0.000 N 
BRANCH  23  24
ATOM     24  C   UNL     1      -0.093  10.424  19.190  0.00  0.00    +0.000 C 
BRANCH  24  25
ATOM     25  C   UNL     1      -1.199  11.482  19.280  0.00  0.00    +0.000 C 
BRANCH  25  26
ATOM     26  C   UNL     1      -2.336  11.286  18.305  0.00  0.00    +0.000 A 
ATOM     27  C   UNL     1      -3.635  11.700  18.636  0.00  0.00    +0.000 A 
ATOM     28  C   UNL     1      -4.670  11.606  17.702  0.00  0.00    +0.000 A 
ATOM     29  C   UNL     1      -4.419  11.090  16.433  0.00  0.00    +0.000 A 
ATOM     30  C   UNL     1      -3.137  10.653  16.102  0.00  0.00    +0.000 A 
ATOM     31  C   UNL     1      -2.101  10.747  17.034  0.00  0.00    +0.000 A 
ENDBRANCH  25  26
ENDBRANCH  24  25
ENDBRANCH  23  24
ENDBRANCH  18  19
ENDBRANCH   3  18
TORSDOF 7
ENDMDL
MODEL 6
REMARK VINA RESULT:      -8.6      1.917      3.706
REMARK  Name = 
REMARK  8 active torsions:
REMARK  status: ('A' for Active; 'I' for Inactive)
REMARK    1  A    between atoms: C_1  and  C_2
REMARK    2  A    between atoms: C_5  and  C_6
REMARK    3  A    between atoms: C_13  and  C_14
REMARK    4  A    between atoms: N_16  and  C_17
REMARK    5  A    between atoms: C_17  and  C_18
REMARK    6  A    between atoms: N_22  and  C_23
REMARK    7  A    between atoms: C_23  and  C_24
REMARK    8  A    between atoms: C_24  and  C_25
REMARK                            x       y       z     vdW  Elec       q    Type
REMARK                         _______ _______ _______ _____ _____    ______ ____
ROOT
ATOM      1  C   UNL     1       3.913   6.788  17.883  0.00  0.00    +0.000 C 
ATOM      2  O   UNL     1       3.953   7.271  16.754  0.00  0.00    +0.000 OA
ATOM      3  N   UNL     1       3.008   7.242  18.815  0.00  0.00    +0.000 N 
ATOM      4  H   UNL     1       3.036   6.962  19.787  0.00  0.00    +0.000 HD
ENDROOT
BRANCH   1  10
ATOM      5  C   UNL     1       7.212   6.645  17.515  0.00  0.00    +0.000 C 
ATOM      6  C   UNL     1       6.219   5.752  18.142  0.00  0.00    +0.000 A 
ATOM      7  O   UNL     1       6.731   4.648  18.740  0.00  0.00    +0.000 OA
ATOM      8  N   UNL     1       5.720   3.896  19.278  0.00  0.00    +0.000 NA
ATOM      9  C   UNL     1       4.572   4.558  19.050  0.00  0.00    +0.000 A 
ATOM     10  C   UNL     1       4.847   5.766  18.310  0.00  0.00    +0.000 A 
BRANCH   9  11
ATOM     11  C   UNL     1       3.279   3.970  19.449  0.00  0.00    +0.000 A 
ATOM     12  C   UNL     1       2.886   4.051  20.800  0.00  0.00    +0.000 A 
ATOM     13  C   UNL     1       1.658   3.547  21.240  0.00  0.00    +0.000 A 
ATOM     14  C   UNL     1       0.773   2.983  20.332  0.00  0.00    +0.000 A 
ATOM     15  C   UNL     1       1.129   2.903  18.987  0.00  0.00    +0.000 A 
ATOM     16  C   UNL     1       2.376   3.376  18.544  0.00  0.00    +0.000 A 
ATOM     17 CL   UNL     1       2.714   3.139  16.862  0.00  0.00    +0.000 Cl
ENDBRANCH   9  11
ENDBRANCH   1  10
BRANCH   3  18
ATOM     18  C   UNL     1       2.162   8.370  18.485  0.00  0.00    +0.000 C 
BRANCH  18  19
ATOM     19  C   UNL     1       1.356   8.781  19.672  0.00  0.00    +0.000 A 
ATOM     20  N   UNL     1       1.459   8.274  20.891  0.00  0.00    +0.000 NA
ATOM     21  C   UNL     1       0.510   8.910  21.642  0.00  0.00    +0.000 A 
ATOM     22  C   UNL     1      -0.177   9.825  20.883  0.00  0.00    +0.000 A 
ATOM     23  N   UNL     1       0.382   9.764  19.633  0.00  0.00    +0.000 N 
BRANCH  23  24
ATOM     24  C   UNL     1      -0.014  10.558  18.472  0.00  0.00    +0.000 C 
BRANCH  24  25
ATOM     25  C   UNL     1      -1.237  10.012  17.725  0.00  0.00    +0.000 C 
BRANCH  25  26
ATOM     26  C   UNL     1      -2.526  10.744  18.013  0.00  0.00    +0.000 A 
ATOM     27  C   UNL     1      -3.705  10.398  17.336  0.00  0.00    +0.000 A 
ATOM     28  C   UNL     1      -4.918  11.008  17.665  0.00  0.00    +0.000 A 
ATOM     29  C   UNL     1      -4.962  11.975  18.668  0.00  0.00    +0.000 A 
ATOM     30  C   UNL     1      -3.792  12.343  19.329  0.00  0.00    +0.000 A 
ATOM     31  C   UNL     1      -2.579  11.735  19.002  0.00  0.00    +0.000 A 
ENDBRANCH  25  26
ENDBRANCH  24  25
ENDBRANCH  23  24
ENDBRANCH  18  19
ENDBRANCH   3  18
TORSDOF 7
ENDMDL
MODEL 7
REMARK VINA RESULT:      -8.3      2.082      3.034
REMARK  Name = 
REMARK  8 active torsions:
REMARK  status: ('A' for Active; 'I' for Inactive)
REMARK    1  A    between atoms: C_1  and  C_2
REMARK    2  A    between atoms: C_5  and  C_6
REMARK    3  A    between atoms: C_13  and  C_14
REMARK    4  A    between atoms: N_16  and  C_17
REMARK    5  A    between atoms: C_17  and  C_18
REMARK    6  A    between atoms: N_22  and  C_23
REMARK    7  A    between atoms: C_23  and  C_24
REMARK    8  A    between atoms: C_24  and  C_25
REMARK                            x       y       z     vdW  Elec       q    Type
REMARK                         _______ _______ _______ _____ _____    ______ ____
ROOT
ATOM      1  C   UNL     1       2.543   5.363  19.062  0.00  0.00    +0.000 C 
ATOM      2  O   UNL     1       1.741   5.256  18.137  0.00  0.00    +0.000 OA
ATOM      3  N   UNL     1       2.796   6.585  19.642  0.00  0.00    +0.000 N 
ATOM      4  H   UNL     1       3.542   6.730  20.310  0.00  0.00    +0.000 HD
ENDROOT
BRANCH   1  10
ATOM      5  C   UNL     1       1.948   3.357  21.642  0.00  0.00    +0.000 C 
ATOM      6  C   UNL     1       3.014   3.415  20.625  0.00  0.00    +0.000 A 
ATOM      7  O   UNL     1       3.944   2.432  20.705  0.00  0.00    +0.000 OA
ATOM      8  N   UNL     1       4.881   2.592  19.719  0.00  0.00    +0.000 NA
ATOM      9  C   UNL     1       4.509   3.660  18.992  0.00  0.00    +0.000 A 
ATOM     10  C   UNL     1       3.305   4.229  19.547  0.00  0.00    +0.000 A 
BRANCH   9  11
ATOM     11  C   UNL     1       5.357   4.142  17.885  0.00  0.00    +0.000 A 
ATOM     12  C   UNL     1       5.018   3.781  16.565  0.00  0.00    +0.000 A 
ATOM     13  C   UNL     1       5.757   4.232  15.466  0.00  0.00    +0.000 A 
ATOM     14  C   UNL     1       6.832   5.089  15.657  0.00  0.00    +0.000 A 
ATOM     15  C   UNL     1       7.180   5.475  16.950  0.00  0.00    +0.000 A 
ATOM     16  C   UNL     1       6.463   4.998  18.060  0.00  0.00    +0.000 A 
ATOM     17 CL   UNL     1       7.058   5.497  19.609  0.00  0.00    +0.000 Cl
ENDBRANCH   9  11
ENDBRANCH   1  10
BRANCH   3  18
ATOM     18  C   UNL     1       2.178   7.771  19.086  0.00  0.00    +0.000 C 
BRANCH  18  19
ATOM     19  C   UNL     1       1.462   8.533  20.151  0.00  0.00    +0.000 A 
ATOM     20  N   UNL     1       1.297   8.141  21.405  0.00  0.00    +0.000 NA
ATOM     21  C   UNL     1       0.556   9.120  22.007  0.00  0.00    +0.000 A 
ATOM     22  C   UNL     1       0.272  10.130  21.121  0.00  0.00    +0.000 A 
ATOM     23  N   UNL     1       0.875   9.770  19.944  0.00  0.00    +0.000 N 
BRANCH  23  24
ATOM     24  C   UNL     1       0.857  10.533  18.698  0.00  0.00    +0.000 C 
BRANCH  24  25
ATOM     25  C   UNL     1       0.058  11.839  18.774  0.00  0.00    +0.000 C 
BRANCH  25  26
ATOM     26  C   UNL     1       0.900  13.093  18.728  0.00  0.00    +0.000 A 
ATOM     27  C   UNL     1       2.241  13.033  18.321  0.00  0.00    +0.000 A 
ATOM     28  C   UNL     1       2.995  14.202  18.189  0.00  0.00    +0.000 A 
ATOM     29  C   UNL     1       2.419  15.439  18.470  0.00  0.00    +0.000 A 
ATOM     30  C   UNL     1       1.095  15.506  18.898  0.00  0.00    +0.000 A 
ATOM     31  C   UNL     1       0.339  14.340  19.031  0.00  0.00    +0.000 A 
ENDBRANCH  25  26
ENDBRANCH  24  25
ENDBRANCH  23  24
ENDBRANCH  18  19
ENDBRANCH   3  18
TORSDOF 7
ENDMDL
MODEL 8
REMARK VINA RESULT:      -8.3      1.253      1.584
REMARK  Name = 
REMARK  8 active torsions:
REMARK  status: ('A' for Active; 'I' for Inactive)
REMARK    1  A    between atoms: C_1  and  C_2
REMARK    2  A    between atoms: C_5  and  C_6
REMARK    3  A    between atoms: C_13  and  C_14
REMARK    4  A    between atoms: N_16  and  C_17
REMARK    5  A    between atoms: C_17  and  C_18
REMARK    6  A    between atoms: N_22  and  C_23
REMARK    7  A    between atoms: C_23  and  C_24
REMARK    8  A    between atoms: C_24  and  C_25
REMARK                            x       y       z     vdW  Elec       q    Type
REMARK                         _______ _______ _______ _____ _____    ______ ____
ROOT
ATOM      1  C   UNL     1       2.178   5.153  18.065  0.00  0.00    +0.000 C 
ATOM      2  O   UNL     1       1.183   5.403  17.389  0.00  0.00    +0.000 OA
ATOM      3  N   UNL     1       2.890   6.161  18.675  0.00  0.00    +0.000 N 
ATOM      4  H   UNL     1       3.783   6.006  19.125  0.00  0.00    +0.000 HD
ENDROOT
BRANCH   1  10
ATOM      5  C   UNL     1       0.837   2.532  19.603  0.00  0.00    +0.000 C 
ATOM      6  C   UNL     1       2.089   2.738  18.851  0.00  0.00    +0.000 A 
ATOM      7  O   UNL     1       2.863   1.635  18.701  0.00  0.00    +0.000 OA
ATOM      8  N   UNL     1       3.994   1.949  17.996  0.00  0.00    +0.000 NA
ATOM      9  C   UNL     1       3.905   3.249  17.667  0.00  0.00    +0.000 A 
ATOM     10  C   UNL     1       2.688   3.804  18.206  0.00  0.00    +0.000 A 
BRANCH   9  11
ATOM     11  C   UNL     1       5.013   3.917  16.957  0.00  0.00    +0.000 A 
ATOM     12  C   UNL     1       5.097   3.783  15.556  0.00  0.00    +0.000 A 
ATOM     13  C   UNL     1       6.100   4.418  14.816  0.00  0.00    +0.000 A 
ATOM     14  C   UNL     1       7.021   5.236  15.454  0.00  0.00    +0.000 A 
ATOM     15  C   UNL     1       6.953   5.399  16.836  0.00  0.00    +0.000 A 
ATOM     16  C   UNL     1       5.969   4.736  17.590  0.00  0.00    +0.000 A 
ATOM     17 CL   UNL     1       6.054   4.969  19.304  0.00  0.00    +0.000 Cl
ENDBRANCH   9  11
ENDBRANCH   1  10
BRANCH   3  18
ATOM     18  C   UNL     1       2.512   7.538  18.432  0.00  0.00    +0.000 C 
BRANCH  18  19
ATOM     19  C   UNL     1       1.819   8.106  19.626  0.00  0.00    +0.000 A 
ATOM     20  N   UNL     1       1.785   7.563  20.832  0.00  0.00    +0.000 NA
ATOM     21  C   UNL     1       1.012   8.394  21.595  0.00  0.00    +0.000 A 
ATOM     22  C   UNL     1       0.574   9.465  20.855  0.00  0.00    +0.000 A 
ATOM     23  N   UNL     1       1.113   9.297  19.606  0.00  0.00    +0.000 N 
BRANCH  23  24
ATOM     24  C   UNL     1       0.933  10.189  18.462  0.00  0.00    +0.000 C 
BRANCH  24  25
ATOM     25  C   UNL     1      -0.023  11.359  18.724  0.00  0.00    +0.000 C 
BRANCH  25  26
ATOM     26  C   UNL     1      -1.444  11.122  18.270  0.00  0.00    +0.000 A 
ATOM     27  C   UNL     1      -1.739  10.082  17.375  0.00  0.00    +0.000 A 
ATOM     28  C   UNL     1      -3.062   9.800  17.025  0.00  0.00    +0.000 A 
ATOM     29  C   UNL     1      -4.101  10.560  17.559  0.00  0.00    +0.000 A 
ATOM     30  C   UNL     1      -3.816  11.610  18.430  0.00  0.00    +0.000 A 
ATOM     31  C   UNL     1      -2.495  11.893  18.781  0.00  0.00    +0.000 A 
ENDBRANCH  25  26
ENDBRANCH  24  25
ENDBRANCH  23  24
ENDBRANCH  18  19
ENDBRANCH   3  18
TORSDOF 7
ENDMDL
MODEL 9
REMARK VINA RESULT:      -8.3      1.883      3.409
REMARK  Name = 
REMARK  8 active torsions:
REMARK  status: ('A' for Active; 'I' for Inactive)
REMARK    1  A    between atoms: C_1  and  C_2
REMARK    2  A    between atoms: C_5  and  C_6
REMARK    3  A    between atoms: C_13  and  C_14
REMARK    4  A    between atoms: N_16  and  C_17
REMARK    5  A    between atoms: C_17  and  C_18
REMARK    6  A    between atoms: N_22  and  C_23
REMARK    7  A    between atoms: C_23  and  C_24
REMARK    8  A    between atoms: C_24  and  C_25
REMARK                            x       y       z     vdW  Elec       q    Type
REMARK                         _______ _______ _______ _____ _____    ______ ____
ROOT
ATOM      1  C   UNL     1       3.969   6.640  17.966  0.00  0.00    +0.000 C 
ATOM      2  O   UNL     1       4.169   7.251  16.919  0.00  0.00    +0.000 OA
ATOM      3  N   UNL     1       2.927   6.984  18.798  0.00  0.00    +0.000 N 
ATOM      4  H   UNL     1       2.815   6.593  19.724  0.00  0.00    +0.000 HD
ENDROOT
BRANCH   1  10
ATOM      5  C   UNL     1       7.281   6.586  18.218  0.00  0.00    +0.000 C 
ATOM      6  C   UNL     1       6.223   5.598  18.504  0.00  0.00    +0.000 A 
ATOM      7  O   UNL     1       6.656   4.421  19.019  0.00  0.00    +0.000 OA
ATOM      8  N   UNL     1       5.592   3.587  19.237  0.00  0.00    +0.000 NA
ATOM      9  C   UNL     1       4.483   4.265  18.895  0.00  0.00    +0.000 A 
ATOM     10  C   UNL     1       4.845   5.573  18.408  0.00  0.00    +0.000 A 
BRANCH   9  11
ATOM     11  C   UNL     1       3.161   3.610  18.948  0.00  0.00    +0.000 A 
ATOM     12  C   UNL     1       2.788   2.751  17.895  0.00  0.00    +0.000 A 
ATOM     13  C   UNL     1       1.566   2.072  17.898  0.00  0.00    +0.000 A 
ATOM     14  C   UNL     1       0.702   2.202  18.976  0.00  0.00    +0.000 A 
ATOM     15  C   UNL     1       1.051   3.033  20.039  0.00  0.00    +0.000 A 
ATOM     16  C   UNL     1       2.262   3.745  20.025  0.00  0.00    +0.000 A 
ATOM     17 CL   UNL     1       2.527   4.800  21.374  0.00  0.00    +0.000 Cl
ENDBRANCH   9  11
ENDBRANCH   1  10
BRANCH   3  18
ATOM     18  C   UNL     1       2.123   8.145  18.477  0.00  0.00    +0.000 C 
BRANCH  18  19
ATOM     19  C   UNL     1       1.545   8.737  19.720  0.00  0.00    +0.000 A 
ATOM     20  N   UNL     1       1.499   8.152  20.906  0.00  0.00    +0.000 NA
ATOM     21  C   UNL     1       0.855   9.031  21.732  0.00  0.00    +0.000 A 
ATOM     22  C   UNL     1       0.511  10.174  21.051  0.00  0.00    +0.000 A 
ATOM     23  N   UNL     1       0.978   9.998  19.775  0.00  0.00    +0.000 N 
BRANCH  23  24
ATOM     24  C   UNL     1       0.854  10.951  18.673  0.00  0.00    +0.000 C 
BRANCH  24  25
ATOM     25  C   UNL     1      -0.302  11.946  18.831  0.00  0.00    +0.000 C 
BRANCH  25  26
ATOM     26  C   UNL     1      -1.638  11.438  18.341  0.00  0.00    +0.000 A 
ATOM     27  C   UNL     1      -1.707  10.314  17.504  0.00  0.00    +0.000 A 
ATOM     28  C   UNL     1      -2.943   9.786  17.124  0.00  0.00    +0.000 A 
ATOM     29  C   UNL     1      -4.122  10.381  17.570  0.00  0.00    +0.000 A 
ATOM     30  C   UNL     1      -4.063  11.513  18.382  0.00  0.00    +0.000 A 
ATOM     31  C   UNL     1      -2.829  12.042  18.762  0.00  0.00    +0.000 A 
ENDBRANCH  25  26
ENDBRANCH  24  25
ENDBRANCH  23  24
ENDBRANCH  18  19
ENDBRANCH   3  18
TORSDOF 7
ENDMDL
