MODEL 1
REMARK VINA RESULT:      -8.4      0.000      0.000
REMARK  Name = 
REMARK  5 active torsions:
REMARK  status: ('A' for Active; 'I' for Inactive)
REMARK    1  A    between atoms: C_1  and  C_2
REMARK    2  A    between atoms: C_6  and  S_7
REMARK    3  A    between atoms: S_7  and  N_10
REMARK    4  A    between atoms: N_13  and  C_14
REMARK    5  A    between atoms: C_14  and  C_15
REMARK                            x       y       z     vdW  Elec       q    Type
REMARK                         _______ _______ _______ _____ _____    ______ ____
ROOT
ATOM      1  N   UNL     1       0.546  12.011  20.170  0.00  0.00    +0.000 NA
ATOM      2  C   UNL     1       1.466  11.379  19.212  0.00  0.00    +0.000 C 
ATOM      3  C   UNL     1       0.914  10.012  18.786  0.00  0.00    +0.000 C 
ATOM      4  N   UNL     1       0.624   9.073  19.895  0.00  0.00    +0.000 NA
ATOM      5  C   UNL     1      -0.137   9.744  20.973  0.00  0.00    +0.000 C 
ATOM      6  C   UNL     1       0.295  11.173  21.358  0.00  0.00    +0.000 C 
ENDROOT
BRANCH   1   7
ATOM      7  S   UNL     1      -0.559  13.165  19.646  0.00  0.00    +0.000 S 
ATOM      8  O   UNL     1      -0.151  13.594  18.325  0.00  0.00    +0.000 OA
ATOM      9  O   UNL     1      -0.635  14.159  20.704  0.00  0.00    +0.000 OA
BRANCH   7  15
ATOM     10  C   UNL     1      -3.918  10.098  14.656  0.00  0.00    +0.000 C 
ATOM     11  C   UNL     1      -3.496  10.602  16.001  0.00  0.00    +0.000 A 
ATOM     12  C   UNL     1      -2.170  10.596  16.394  0.00  0.00    +0.000 A 
ATOM     13  N   UNL     1      -1.709  11.136  17.551  0.00  0.00    +0.000 NA
ATOM     14  C   UNL     1      -2.579  11.719  18.404  0.00  0.00    +0.000 A 
ATOM     15  C   UNL     1      -2.194  12.430  19.551  0.00  0.00    +0.000 A 
ATOM     16  C   UNL     1      -3.148  12.901  20.476  0.00  0.00    +0.000 A 
ATOM     17  C   UNL     1      -4.506  12.712  20.247  0.00  0.00    +0.000 A 
ATOM     18  C   UNL     1      -4.919  12.104  19.070  0.00  0.00    +0.000 A 
ATOM     19  C   UNL     1      -3.980  11.622  18.144  0.00  0.00    +0.000 A 
ATOM     20  C   UNL     1      -4.412  11.082  16.926  0.00  0.00    +0.000 A 
ENDBRANCH   7  15
ENDBRANCH   1   7
BRANCH   4  21
ATOM     21  C   UNL     1       1.820   8.386  20.408  0.00  0.00    +0.000 C 
BRANCH  21  22
ATOM     22  C   UNL     1       1.953   6.959  19.902  0.00  0.00    +0.000 A 
ATOM     23  C   UNL     1       2.506   6.705  18.623  0.00  0.00    +0.000 A 
ATOM     24  C   UNL     1       2.639   5.402  18.138  0.00  0.00    +0.000 A 
ATOM     25  C   UNL     1       2.249   4.369  18.961  0.00  0.00    +0.000 A 
ATOM     26  C   UNL     1       1.719   4.594  20.223  0.00  0.00    +0.000 A 
ATOM     27  C   UNL     1       1.540   5.880  20.703  0.00  0.00    +0.000 A 
ATOM     28  C   UNL     1       1.393   3.292  20.847  0.00  0.00    +0.000 C 
ATOM     29  C   UNL     1       2.199   2.383  19.918  0.00  0.00    +0.000 C 
ATOM     30  O   UNL     1       2.346   3.039  18.637  0.00  0.00    +0.000 OA
ENDBRANCH  21  22
ENDBRANCH   4  21
TORSDOF 4
ENDMDL
MODEL 2
REMARK VINA RESULT:      -8.3      0.742      1.417
REMARK  Name = 
REMARK  5 active torsions:
REMARK  status: ('A' for Active; 'I' for Inactive)
REMARK    1  A    between atoms: C_1  and  C_2
REMARK    2  A    between atoms: C_6  and  S_7
REMARK    3  A    between atoms: S_7  and  N_10
REMARK    4  A    between atoms: N_13  and  C_14
REMARK    5  A    between atoms: C_14  and  C_15
REMARK                            x       y       z     vdW  Elec       q    Type
REMARK                         _______ _______ _______ _____ _____    ______ ____
ROOT
ATOM      1  N   UNL     1      -0.094  12.057  20.758  0.00  0.00    +0.000 NA
ATOM      2  C   UNL     1       1.183  11.786  20.079  0.00  0.00    +0.000 C 
ATOM      3  C   UNL     1       1.051  10.529  19.207  0.00  0.00    +0.000 C 
ATOM      4  N   UNL     1       0.593   9.312  19.918  0.00  0.00    +0.000 NA
ATOM      5  C   UNL     1      -0.582   9.605  20.770  0.00  0.00    +0.000 C 
ATOM      6  C   UNL     1      -0.559  10.920  21.574  0.00  0.00    +0.000 C 
ENDROOT
BRANCH   1   7
ATOM      7  S   UNL     1      -1.159  13.197  20.130  0.00  0.00    +0.000 S 
ATOM      8  O   UNL     1      -0.582  13.710  18.906  0.00  0.00    +0.000 OA
ATOM      9  O   UNL     1      -1.432  14.130  21.211  0.00  0.00    +0.000 OA
BRANCH   7  15
ATOM     10  C   UNL     1      -3.585  10.204  14.585  0.00  0.00    +0.000 C 
ATOM     11  C   UNL     1      -3.395  10.672  15.995  0.00  0.00    +0.000 A 
ATOM     12  C   UNL     1      -2.147  10.697  16.589  0.00  0.00    +0.000 A 
ATOM     13  N   UNL     1      -1.891  11.209  17.819  0.00  0.00    +0.000 NA
ATOM     14  C   UNL     1      -2.905  11.729  18.546  0.00  0.00    +0.000 A 
ATOM     15  C   UNL     1      -2.729  12.410  19.760  0.00  0.00    +0.000 A 
ATOM     16  C   UNL     1      -3.833  12.812  20.540  0.00  0.00    +0.000 A 
ATOM     17  C   UNL     1      -5.131  12.585  20.097  0.00  0.00    +0.000 A 
ATOM     18  C   UNL     1      -5.333  12.007  18.851  0.00  0.00    +0.000 A 
ATOM     19  C   UNL     1      -4.244  11.593  18.068  0.00  0.00    +0.000 A 
ATOM     20  C   UNL     1      -4.462  11.084  16.781  0.00  0.00    +0.000 A 
ENDBRANCH   7  15
ENDBRANCH   1   7
BRANCH   4  21
ATOM     21  C   UNL     1       1.663   8.633  20.665  0.00  0.00    +0.000 C 
BRANCH  21  22
ATOM     22  C   UNL     1       1.910   7.209  20.196  0.00  0.00    +0.000 A 
ATOM     23  C   UNL     1       1.373   6.117  20.920  0.00  0.00    +0.000 A 
ATOM     24  C   UNL     1       1.587   4.799  20.507  0.00  0.00    +0.000 A 
ATOM     25  C   UNL     1       2.305   4.599  19.349  0.00  0.00    +0.000 A 
ATOM     26  C   UNL     1       2.827   5.655  18.616  0.00  0.00    +0.000 A 
ATOM     27  C   UNL     1       2.662   6.965  19.034  0.00  0.00    +0.000 A 
ATOM     28  C   UNL     1       3.549   5.114  17.442  0.00  0.00    +0.000 C 
ATOM     29  C   UNL     1       2.978   3.695  17.454  0.00  0.00    +0.000 C 
ATOM     30  O   UNL     1       2.570   3.369  18.803  0.00  0.00    +0.000 OA
ENDBRANCH  21  22
ENDBRANCH   4  21
TORSDOF 4
ENDMDL
MODEL 3
REMARK VINA RESULT:      -8.0      4.288      9.623
REMARK  Name = 
REMARK  5 active torsions:
REMARK  status: ('A' for Active; 'I' for Inactive)
REMARK    1  A    between atoms: C_1  and  C_2
REMARK    2  A    between atoms: C_6  and  S_7
REMARK    3  A    between atoms: S_7  and  N_10
REMARK    4  A    between atoms: N_13  and  C_14
REMARK    5  A    between atoms: C_14  and  C_15
REMARK                            x       y       z     vdW  Elec       q    Type
REMARK                         _______ _______ _______ _____ _____    ______ ____
ROOT
ATOM      1  N   UNL     1       2.805   3.863  18.815  0.00  0.00    +0.000 NA
ATOM      2  C   UNL     1       2.664   5.198  18.213  0.00  0.00    +0.000 C 
ATOM      3  C   UNL     1       3.013   6.275  19.250  0.00  0.00    +0.000 C 
ATOM      4  N   UNL     1       2.240   6.211  20.512  0.00  0.00    +0.000 NA
ATOM      5  C   UNL     1       2.199   4.828  21.040  0.00  0.00    +0.000 C 
ATOM      6  C   UNL     1       1.977   3.692  20.023  0.00  0.00    +0.000 C 
ENDROOT
BRANCH   1   7
ATOM      7  S   UNL     1       4.204   2.965  18.560  0.00  0.00    +0.000 S 
ATOM      8  O   UNL     1       3.804   1.648  18.113  0.00  0.00    +0.000 OA
ATOM      9  O   UNL     1       4.981   3.075  19.784  0.00  0.00    +0.000 OA
BRANCH   7  15
ATOM     10  C   UNL     1       8.516   8.160  18.651  0.00  0.00    +0.000 C 
ATOM     11  C   UNL     1       7.744   6.944  18.238  0.00  0.00    +0.000 A 
ATOM     12  C   UNL     1       7.478   5.919  19.127  0.00  0.00    +0.000 A 
ATOM     13  N   UNL     1       6.695   4.846  18.849  0.00  0.00    +0.000 NA
ATOM     14  C   UNL     1       6.130   4.735  17.627  0.00  0.00    +0.000 A 
ATOM     15  C   UNL     1       5.194   3.747  17.284  0.00  0.00    +0.000 A 
ATOM     16  C   UNL     1       4.740   3.598  15.957  0.00  0.00    +0.000 A 
ATOM     17  C   UNL     1       5.176   4.463  14.960  0.00  0.00    +0.000 A 
ATOM     18  C   UNL     1       6.021   5.513  15.293  0.00  0.00    +0.000 A 
ATOM     19  C   UNL     1       6.488   5.668  16.608  0.00  0.00    +0.000 A 
ATOM     20  C   UNL     1       7.276   6.777  16.943  0.00  0.00    +0.000 A 
ENDBRANCH   7  15
ENDBRANCH   1   7
BRANCH   4  21
ATOM     21  C   UNL     1       0.897   6.803  20.408  0.00  0.00    +0.000 C 
BRANCH  21  22
ATOM     22  C   UNL     1       0.878   8.296  20.689  0.00  0.00    +0.000 A 
ATOM     23  C   UNL     1       0.665   8.770  22.007  0.00  0.00    +0.000 A 
ATOM     24  C   UNL     1       0.643  10.138  22.290  0.00  0.00    +0.000 A 
ATOM     25  C   UNL     1       0.874  11.011  21.250  0.00  0.00    +0.000 A 
ATOM     26  C   UNL     1       1.100  10.569  19.955  0.00  0.00    +0.000 A 
ATOM     27  C   UNL     1       1.081   9.218  19.648  0.00  0.00    +0.000 A 
ATOM     28  C   UNL     1       1.302  11.741  19.074  0.00  0.00    +0.000 C 
ATOM     29  C   UNL     1       1.558  12.796  20.152  0.00  0.00    +0.000 C 
ATOM     30  O   UNL     1       0.914  12.377  21.377  0.00  0.00    +0.000 OA
ENDBRANCH  21  22
ENDBRANCH   4  21
TORSDOF 4
ENDMDL
MODEL 4
REMARK VINA RESULT:      -8.0      4.182      9.530
REMARK  Name = 
REMARK  5 active torsions:
REMARK  status: ('A' for Active; 'I' for Inactive)
REMARK    1  A    between atoms: C_1  and  C_2
REMARK    2  A    between atoms: C_6  and  S_7
REMARK    3  A    between atoms: S_7  and  N_10
REMARK    4  A    between atoms: N_13  and  C_14
REMARK    5  A    between atoms: C_14  and  C_15
REMARK                            x       y       z     vdW  Elec       q    Type
REMARK                         _______ _______ _______ _____ _____    ______ ____
ROOT
ATOM      1  N   UNL     1       2.473   4.124  18.997  0.00  0.00    +0.000 NA
ATOM      2  C   UNL     1       2.200   5.431  18.379  0.00  0.00    +0.000 C 
ATOM      3  C   UNL     1       2.539   6.554  19.368  0.00  0.00    +0.000 C 
ATOM      4  N   UNL     1       1.857   6.469  20.681  0.00  0.00    +0.000 NA
ATOM      5  C   UNL     1       1.947   5.099  21.238  0.00  0.00    +0.000 C 
ATOM      6  C   UNL     1       1.738   3.926  20.261  0.00  0.00    +0.000 C 
ENDROOT
BRANCH   1   7
ATOM      7  S   UNL     1       3.911   3.317  18.668  0.00  0.00    +0.000 S 
ATOM      8  O   UNL     1       3.665   2.413  17.565  0.00  0.00    +0.000 OA
ATOM      9  O   UNL     1       4.359   2.759  19.934  0.00  0.00    +0.000 OA
BRANCH   7  15
ATOM     10  C   UNL     1       7.185   4.433  12.869  0.00  0.00    +0.000 C 
ATOM     11  C   UNL     1       6.631   4.577  14.253  0.00  0.00    +0.000 A 
ATOM     12  C   UNL     1       5.328   4.225  14.553  0.00  0.00    +0.000 A 
ATOM     13  N   UNL     1       4.800   4.227  15.803  0.00  0.00    +0.000 NA
ATOM     14  C   UNL     1       5.569   4.604  16.848  0.00  0.00    +0.000 A 
ATOM     15  C   UNL     1       5.169   4.505  18.189  0.00  0.00    +0.000 A 
ATOM     16  C   UNL     1       5.958   5.038  19.230  0.00  0.00    +0.000 A 
ATOM     17  C   UNL     1       7.183   5.633  18.952  0.00  0.00    +0.000 A 
ATOM     18  C   UNL     1       7.651   5.650  17.645  0.00  0.00    +0.000 A 
ATOM     19  C   UNL     1       6.871   5.132  16.599  0.00  0.00    +0.000 A 
ATOM     20  C   UNL     1       7.390   5.086  15.298  0.00  0.00    +0.000 A 
ENDBRANCH   7  15
ENDBRANCH   1   7
BRANCH   4  21
ATOM     21  C   UNL     1       0.471   6.965  20.654  0.00  0.00    +0.000 C 
BRANCH  21  22
ATOM     22  C   UNL     1       0.354   8.431  21.033  0.00  0.00    +0.000 A 
ATOM     23  C   UNL     1      -0.154   8.800  22.302  0.00  0.00    +0.000 A 
ATOM     24  C   UNL     1      -0.271  10.142  22.673  0.00  0.00    +0.000 A 
ATOM     25  C   UNL     1       0.160  11.094  21.776  0.00  0.00    +0.000 A 
ATOM     26  C   UNL     1       0.674  10.755  20.533  0.00  0.00    +0.000 A 
ATOM     27  C   UNL     1       0.757   9.432  20.132  0.00  0.00    +0.000 A 
ATOM     28  C   UNL     1       1.035  11.994  19.807  0.00  0.00    +0.000 C 
ATOM     29  C   UNL     1       1.022  12.965  20.989  0.00  0.00    +0.000 C 
ATOM     30  O   UNL     1       0.137  12.447  22.008  0.00  0.00    +0.000 OA
ENDBRANCH  21  22
ENDBRANCH   4  21
TORSDOF 4
ENDMDL
MODEL 5
REMARK VINA RESULT:      -7.9      4.182      9.508
REMARK  Name = 
REMARK  5 active torsions:
REMARK  status: ('A' for Active; 'I' for Inactive)
REMARK    1  A    between atoms: C_1  and  C_2
REMARK    2  A    between atoms: C_6  and  S_7
REMARK    3  A    between atoms: S_7  and  N_10
REMARK    4  A    between atoms: N_13  and  C_14
REMARK    5  A    between atoms: C_14  and  C_15
REMARK                            x       y       z     vdW  Elec       q    Type
REMARK                         _______ _______ _______ _____ _____    ______ ____
ROOT
ATOM      1  N   UNL     1       2.498   4.079  18.985  0.00  0.00    +0.000 NA
ATOM      2  C   UNL     1       2.226   5.386  18.366  0.00  0.00    +0.000 C 
ATOM      3  C   UNL     1       2.578   6.510  19.350  0.00  0.00    +0.000 C 
ATOM      4  N   UNL     1       1.906   6.431  20.668  0.00  0.00    +0.000 NA
ATOM      5  C   UNL     1       1.994   5.062  21.228  0.00  0.00    +0.000 C 
ATOM      6  C   UNL     1       1.773   3.887  20.255  0.00  0.00    +0.000 C 
ENDROOT
BRANCH   1   7
ATOM      7  S   UNL     1       3.930   3.266  18.646  0.00  0.00    +0.000 S 
ATOM      8  O   UNL     1       3.672   2.361  17.546  0.00  0.00    +0.000 OA
ATOM      9  O   UNL     1       4.385   2.707  19.910  0.00  0.00    +0.000 OA
BRANCH   7  15
ATOM     10  C   UNL     1       7.134   4.388  12.810  0.00  0.00    +0.000 C 
ATOM     11  C   UNL     1       6.600   4.528  14.202  0.00  0.00    +0.000 A 
ATOM     12  C   UNL     1       5.299   4.184  14.517  0.00  0.00    +0.000 A 
ATOM     13  N   UNL     1       4.787   4.184  15.774  0.00  0.00    +0.000 NA
ATOM     14  C   UNL     1       5.573   4.550  16.811  0.00  0.00    +0.000 A 
ATOM     15  C   UNL     1       5.190   4.447  18.157  0.00  0.00    +0.000 A 
ATOM     16  C   UNL     1       5.997   4.969  19.189  0.00  0.00    +0.000 A 
ATOM     17  C   UNL     1       7.222   5.557  18.898  0.00  0.00    +0.000 A 
ATOM     18  C   UNL     1       7.672   5.578  17.585  0.00  0.00    +0.000 A 
ATOM     19  C   UNL     1       6.875   5.070  16.547  0.00  0.00    +0.000 A 
ATOM     20  C   UNL     1       7.376   5.027  15.239  0.00  0.00    +0.000 A 
ENDBRANCH   7  15
ENDBRANCH   1   7
BRANCH   4  21
ATOM     21  C   UNL     1       0.523   6.933  20.651  0.00  0.00    +0.000 C 
BRANCH  21  22
ATOM     22  C   UNL     1       0.419   8.412  20.980  0.00  0.00    +0.000 A 
ATOM     23  C   UNL     1       1.133   9.365  20.212  0.00  0.00    +0.000 A 
ATOM     24  C   UNL     1       1.053  10.731  20.496  0.00  0.00    +0.000 A 
ATOM     25  C   UNL     1       0.225  11.123  21.525  0.00  0.00    +0.000 A 
ATOM     26  C   UNL     1      -0.495  10.209  22.280  0.00  0.00    +0.000 A 
ATOM     27  C   UNL     1      -0.393   8.849  22.041  0.00  0.00    +0.000 A 
ATOM     28  C   UNL     1      -1.274  10.939  23.305  0.00  0.00    +0.000 C 
ATOM     29  C   UNL     1      -1.177  12.345  22.709  0.00  0.00    +0.000 C 
ATOM     30  O   UNL     1       0.020  12.427  21.901  0.00  0.00    +0.000 OA
ENDBRANCH  21  22
ENDBRANCH   4  21
TORSDOF 4
ENDMDL
MODEL 6
REMARK VINA RESULT:      -7.8      4.073      9.568
REMARK  Name = 
REMARK  5 active torsions:
REMARK  status: ('A' for Active; 'I' for Inactive)
REMARK    1  A    between atoms: C_1  and  C_2
REMARK    2  A    between atoms: C_6  and  S_7
REMARK    3  A    between atoms: S_7  and  N_10
REMARK    4  A    between atoms: N_13  and  C_14
REMARK    5  A    between atoms: C_14  and  C_15
REMARK                            x       y       z     vdW  Elec       q    Type
REMARK                         _______ _______ _______ _____ _____    ______ ____
ROOT
ATOM      1  N   UNL     1       2.788   4.007  18.737  0.00  0.00    +0.000 NA
ATOM      2  C   UNL     1       2.680   5.307  18.058  0.00  0.00    +0.000 C 
ATOM      3  C   UNL     1       3.161   6.424  18.994  0.00  0.00    +0.000 C 
ATOM      4  N   UNL     1       2.478   6.487  20.307  0.00  0.00    +0.000 NA
ATOM      5  C   UNL     1       2.398   5.145  20.929  0.00  0.00    +0.000 C 
ATOM      6  C   UNL     1       2.040   3.962  20.007  0.00  0.00    +0.000 C 
ENDROOT
BRANCH   1   7
ATOM      7  S   UNL     1       4.112   3.011  18.449  0.00  0.00    +0.000 S 
ATOM      8  O   UNL     1       3.612   1.746  17.955  0.00  0.00    +0.000 OA
ATOM      9  O   UNL     1       4.893   3.015  19.676  0.00  0.00    +0.000 OA
BRANCH   7  15
ATOM     10  C   UNL     1       8.508   8.133  18.636  0.00  0.00    +0.000 C 
ATOM     11  C   UNL     1       7.731   6.925  18.210  0.00  0.00    +0.000 A 
ATOM     12  C   UNL     1       7.413   5.917  19.102  0.00  0.00    +0.000 A 
ATOM     13  N   UNL     1       6.623   4.853  18.808  0.00  0.00    +0.000 NA
ATOM     14  C   UNL     1       6.104   4.735  17.567  0.00  0.00    +0.000 A 
ATOM     15  C   UNL     1       5.164   3.759  17.201  0.00  0.00    +0.000 A 
ATOM     16  C   UNL     1       4.758   3.598  15.860  0.00  0.00    +0.000 A 
ATOM     17  C   UNL     1       5.247   4.442  14.869  0.00  0.00    +0.000 A 
ATOM     18  C   UNL     1       6.097   5.482  15.220  0.00  0.00    +0.000 A 
ATOM     19  C   UNL     1       6.516   5.648  16.550  0.00  0.00    +0.000 A 
ATOM     20  C   UNL     1       7.309   6.748  16.900  0.00  0.00    +0.000 A 
ENDBRANCH   7  15
ENDBRANCH   1   7
BRANCH   4  21
ATOM     21  C   UNL     1       1.166   7.151  20.254  0.00  0.00    +0.000 C 
BRANCH  21  22
ATOM     22  C   UNL     1       1.248   8.602  19.812  0.00  0.00    +0.000 A 
ATOM     23  C   UNL     1       1.680   8.924  18.501  0.00  0.00    +0.000 A 
ATOM     24  C   UNL     1       1.762  10.252  18.072  0.00  0.00    +0.000 A 
ATOM     25  C   UNL     1       1.374  11.235  18.954  0.00  0.00    +0.000 A 
ATOM     26  C   UNL     1       0.934  10.942  20.237  0.00  0.00    +0.000 A 
ATOM     27  C   UNL     1       0.887   9.635  20.694  0.00  0.00    +0.000 A 
ATOM     28  C   UNL     1       0.603  12.206  20.933  0.00  0.00    +0.000 C 
ATOM     29  C   UNL     1       0.539  13.129  19.715  0.00  0.00    +0.000 C 
ATOM     30  O   UNL     1       1.370  12.577  18.668  0.00  0.00    +0.000 OA
ENDBRANCH  21  22
ENDBRANCH   4  21
TORSDOF 4
ENDMDL
MODEL 7
REMARK VINA RESULT:      -7.7      1.036      1.895
REMARK  Name = 
REMARK  5 active torsions:
REMARK  status: ('A' for Active; 'I' for Inactive)
REMARK    1  A    between atoms: C_1  and  C_2
REMARK    2  A    between atoms: C_6  and  S_7
REMARK    3  A    between atoms: S_7  and  N_10
REMARK    4  A    between atoms: N_13  and  C_14
REMARK    5  A    between atoms: C_14  and  C_15
REMARK                            x       y       z     vdW  Elec       q    Type
REMARK                         _______ _______ _______ _____ _____    ______ ____
ROOT
ATOM      1  N   UNL     1       0.159  11.913  20.313  0.00  0.00    +0.000 NA
ATOM      2  C   UNL     1       1.390  11.579  19.579  0.00  0.00    +0.000 C 
ATOM      3  C   UNL     1       1.172  10.302  18.755  0.00  0.00    +0.000 C 
ATOM      4  N   UNL     1       0.712   9.123  19.525  0.00  0.00    +0.000 NA
ATOM      5  C   UNL     1      -0.407   9.481  20.427  0.00  0.00    +0.000 C 
ATOM      6  C   UNL     1      -0.300  10.817  21.187  0.00  0.00    +0.000 C 
ENDROOT
BRANCH   1   7
ATOM      7  S   UNL     1      -0.899  13.070  19.705  0.00  0.00    +0.000 S 
ATOM      8  O   UNL     1      -0.378  13.515  18.431  0.00  0.00    +0.000 OA
ATOM      9  O   UNL     1      -1.073  14.052  20.764  0.00  0.00    +0.000 OA
BRANCH   7  15
ATOM     10  C   UNL     1      -3.783  10.030  14.411  0.00  0.00    +0.000 C 
ATOM     11  C   UNL     1      -3.486  10.526  15.792  0.00  0.00    +0.000 A 
ATOM     12  C   UNL     1      -2.201  10.521  16.304  0.00  0.00    +0.000 A 
ATOM     13  N   UNL     1      -1.849  11.053  17.501  0.00  0.00    +0.000 NA
ATOM     14  C   UNL     1      -2.794  11.627  18.277  0.00  0.00    +0.000 A 
ATOM     15  C   UNL     1      -2.516  12.331  19.458  0.00  0.00    +0.000 A 
ATOM     16  C   UNL     1      -3.552  12.792  20.297  0.00  0.00    +0.000 A 
ATOM     17  C   UNL     1      -4.883  12.601  19.945  0.00  0.00    +0.000 A 
ATOM     18  C   UNL     1      -5.186  12.000  18.730  0.00  0.00    +0.000 A 
ATOM     19  C   UNL     1      -4.165  11.529  17.890  0.00  0.00    +0.000 A 
ATOM     20  C   UNL     1      -4.484  10.996  16.634  0.00  0.00    +0.000 A 
ENDBRANCH   7  15
ENDBRANCH   1   7
BRANCH   4  21
ATOM     21  C   UNL     1       1.797   8.430  20.238  0.00  0.00    +0.000 C 
BRANCH  21  22
ATOM     22  C   UNL     1       2.393   7.278  19.446  0.00  0.00    +0.000 A 
ATOM     23  C   UNL     1       1.992   5.947  19.713  0.00  0.00    +0.000 A 
ATOM     24  C   UNL     1       2.526   4.872  18.997  0.00  0.00    +0.000 A 
ATOM     25  C   UNL     1       3.430   5.155  17.997  0.00  0.00    +0.000 A 
ATOM     26  C   UNL     1       3.825   6.453  17.708  0.00  0.00    +0.000 A 
ATOM     27  C   UNL     1       3.339   7.526  18.436  0.00  0.00    +0.000 A 
ATOM     28  C   UNL     1       4.803   6.422  16.597  0.00  0.00    +0.000 C 
ATOM     29  C   UNL     1       4.538   5.001  16.097  0.00  0.00    +0.000 C 
ATOM     30  O   UNL     1       4.015   4.212  17.191  0.00  0.00    +0.000 OA
ENDBRANCH  21  22
ENDBRANCH   4  21
TORSDOF 4
ENDMDL
MODEL 8
REMARK VINA RESULT:      -7.6      3.991      9.702
REMARK  Name = 
REMARK  5 active torsions:
REMARK  status: ('A' for Active; 'I' for Inactive)
REMARK    1  A    between atoms: C_1  and  C_2
REMARK    2  A    between atoms: C_6  and  S_7
REMARK    3  A    between atoms: S_7  and  N_10
REMARK    4  A    between atoms: N_13  and  C_14
REMARK    5  A    between atoms: C_14  and  C_15
REMARK                            x       y       z     vdW  Elec       q    Type
REMARK                         _______ _______ _______ _____ _____    ______ ____
ROOT
ATOM      1  N   UNL     1       2.795   4.436  18.424  0.00  0.00    +0.000 NA
ATOM      2  C   UNL     1       3.011   5.704  17.711  0.00  0.00    +0.000 C 
ATOM      3  C   UNL     1       3.338   6.817  18.717  0.00  0.00    +0.000 C 
ATOM      4  N   UNL     1       2.338   7.011  19.793  0.00  0.00    +0.000 NA
ATOM      5  C   UNL     1       1.952   5.716  20.399  0.00  0.00    +0.000 C 
ATOM      6  C   UNL     1       1.732   4.527  19.443  0.00  0.00    +0.000 C 
ENDROOT
BRANCH   1   7
ATOM      7  S   UNL     1       4.035   3.305  18.530  0.00  0.00    +0.000 S 
ATOM      8  O   UNL     1       3.491   2.020  18.148  0.00  0.00    +0.000 OA
ATOM      9  O   UNL     1       4.598   3.449  19.863  0.00  0.00    +0.000 OA
BRANCH   7  15
ATOM     10  C   UNL     1       8.570   8.307  18.520  0.00  0.00    +0.000 C 
ATOM     11  C   UNL     1       7.831   7.041  18.211  0.00  0.00    +0.000 A 
ATOM     12  C   UNL     1       7.289   6.256  19.212  0.00  0.00    +0.000 A 
ATOM     13  N   UNL     1       6.518   5.160  18.996  0.00  0.00    +0.000 NA
ATOM     14  C   UNL     1       6.250   4.776  17.729  0.00  0.00    +0.000 A 
ATOM     15  C   UNL     1       5.352   3.751  17.395  0.00  0.00    +0.000 A 
ATOM     16  C   UNL     1       5.213   3.303  16.065  0.00  0.00    +0.000 A 
ATOM     17  C   UNL     1       5.933   3.905  15.039  0.00  0.00    +0.000 A 
ATOM     18  C   UNL     1       6.750   4.990  15.327  0.00  0.00    +0.000 A 
ATOM     19  C   UNL     1       6.904   5.440  16.648  0.00  0.00    +0.000 A 
ATOM     20  C   UNL     1       7.670   6.583  16.911  0.00  0.00    +0.000 A 
ENDBRANCH   7  15
ENDBRANCH   1   7
BRANCH   4  21
ATOM     21  C   UNL     1       1.166   7.794  19.369  0.00  0.00    +0.000 C 
BRANCH  21  22
ATOM     22  C   UNL     1       0.689   8.775  20.426  0.00  0.00    +0.000 A 
ATOM     23  C   UNL     1       0.909   8.506  21.799  0.00  0.00    +0.000 A 
ATOM     24  C   UNL     1       0.479   9.394  22.789  0.00  0.00    +0.000 A 
ATOM     25  C   UNL     1      -0.134  10.559  22.382  0.00  0.00    +0.000 A 
ATOM     26  C   UNL     1      -0.346  10.849  21.042  0.00  0.00    +0.000 A 
ATOM     27  C   UNL     1       0.034   9.961  20.050  0.00  0.00    +0.000 A 
ATOM     28  C   UNL     1      -1.029  12.158  20.936  0.00  0.00    +0.000 C 
ATOM     29  C   UNL     1      -0.763  12.672  22.353  0.00  0.00    +0.000 C 
ATOM     30  O   UNL     1      -0.582  11.538  23.232  0.00  0.00    +0.000 OA
ENDBRANCH  21  22
ENDBRANCH   4  21
TORSDOF 4
ENDMDL
MODEL 9
REMARK VINA RESULT:      -7.6      1.204      1.777
REMARK  Name = 
REMARK  5 active torsions:
REMARK  status: ('A' for Active; 'I' for Inactive)
REMARK    1  A    between atoms: C_1  and  C_2
REMARK    2  A    between atoms: C_6  and  S_7
REMARK    3  A    between atoms: S_7  and  N_10
REMARK    4  A    between atoms: N_13  and  C_14
REMARK    5  A    between atoms: C_14  and  C_15
REMARK                            x       y       z     vdW  Elec       q    Type
REMARK                         _______ _______ _______ _____ _____    ______ ____
ROOT
ATOM      1  N   UNL     1       0.736  12.082  19.949  0.00  0.00    +0.000 NA
ATOM      2  C   UNL     1       1.510  11.411  18.892  0.00  0.00    +0.000 C 
ATOM      3  C   UNL     1       0.880  10.048  18.573  0.00  0.00    +0.000 C 
ATOM      4  N   UNL     1       0.720   9.138  19.731  0.00  0.00    +0.000 NA
ATOM      5  C   UNL     1       0.120   9.847  20.885  0.00  0.00    +0.000 C 
ATOM      6  C   UNL     1       0.628  11.273  21.177  0.00  0.00    +0.000 C 
ENDROOT
BRANCH   1   7
ATOM      7  S   UNL     1      -0.405  13.250  19.548  0.00  0.00    +0.000 S 
ATOM      8  O   UNL     1      -0.739  13.076  18.151  0.00  0.00    +0.000 OA
ATOM      9  O   UNL     1       0.156  14.522  19.973  0.00  0.00    +0.000 OA
BRANCH   7  15
ATOM     10  C   UNL     1      -6.718  11.415  18.009  0.00  0.00    +0.000 C 
ATOM     11  C   UNL     1      -5.461  11.738  18.756  0.00  0.00    +0.000 A 
ATOM     12  C   UNL     1      -4.220  11.344  18.291  0.00  0.00    +0.000 A 
ATOM     13  N   UNL     1      -3.039  11.696  18.860  0.00  0.00    +0.000 NA
ATOM     14  C   UNL     1      -3.040  12.475  19.963  0.00  0.00    +0.000 A 
ATOM     15  C   UNL     1      -1.880  13.012  20.543  0.00  0.00    +0.000 A 
ATOM     16  C   UNL     1      -1.929  13.706  21.770  0.00  0.00    +0.000 A 
ATOM     17  C   UNL     1      -3.143  13.917  22.413  0.00  0.00    +0.000 A 
ATOM     18  C   UNL     1      -4.317  13.487  21.810  0.00  0.00    +0.000 A 
ATOM     19  C   UNL     1      -4.282  12.788  20.593  0.00  0.00    +0.000 A 
ATOM     20  C   UNL     1      -5.479  12.430  19.959  0.00  0.00    +0.000 A 
ENDBRANCH   7  15
ENDBRANCH   1   7
BRANCH   4  21
ATOM     21  C   UNL     1       1.959   8.434  20.098  0.00  0.00    +0.000 C 
BRANCH  21  22
ATOM     22  C   UNL     1       1.963   6.973  19.681  0.00  0.00    +0.000 A 
ATOM     23  C   UNL     1       2.361   6.606  18.373  0.00  0.00    +0.000 A 
ATOM     24  C   UNL     1       2.373   5.269  17.967  0.00  0.00    +0.000 A 
ATOM     25  C   UNL     1       2.021   4.315  18.896  0.00  0.00    +0.000 A 
ATOM     26  C   UNL     1       1.642   4.651  20.188  0.00  0.00    +0.000 A 
ATOM     27  C   UNL     1       1.583   5.973  20.594  0.00  0.00    +0.000 A 
ATOM     28  C   UNL     1       1.318   3.412  20.931  0.00  0.00    +0.000 C 
ATOM     29  C   UNL     1       1.972   2.400  19.988  0.00  0.00    +0.000 C 
ATOM     30  O   UNL     1       2.014   2.964  18.657  0.00  0.00    +0.000 OA
ENDBRANCH  21  22
ENDBRANCH   4  21
TORSDOF 4
ENDMDL
