MODEL 1
REMARK VINA RESULT:      -8.7      0.000      0.000
REMARK  Name = 
REMARK  6 active torsions:
REMARK  status: ('A' for Active; 'I' for Inactive)
REMARK    1  A    between atoms: C_1  and  C_2
REMARK    2  A    between atoms: C_6  and  C_7
REMARK    3  A    between atoms: N_9  and  C_10
REMARK    4  A    between atoms: C_10  and  C_11
REMARK    5  A    between atoms: C_10  and  C_17
REMARK    6  A    between atoms: N_25  and  C_26
REMARK                            x       y       z     vdW  Elec       q    Type
REMARK                         _______ _______ _______ _____ _____    ______ ____
ROOT
ATOM      1  C   UNL     1       3.345   6.115  19.362  0.00  0.00    +0.000 C 
ENDROOT
BRANCH   1   2
ATOM      2  C   UNL     1       4.406   6.114  18.287  0.00  0.00    +0.000 A 
ATOM      3  N   UNL     1       4.225   6.633  17.083  0.00  0.00    +0.000 NA
ATOM      4  C   UNL     1       5.182   6.055  16.312  0.00  0.00    +0.000 A 
ATOM      5  C   UNL     1       5.303   6.082  14.920  0.00  0.00    +0.000 A 
ATOM      6  C   UNL     1       5.688   4.836  14.430  0.00  0.00    +0.000 A 
ATOM      7  C   UNL     1       6.577   4.036  15.150  0.00  0.00    +0.000 A 
ATOM      8  C   UNL     1       6.903   4.336  16.479  0.00  0.00    +0.000 A 
ATOM      9  C   UNL     1       6.023   5.246  17.070  0.00  0.00    +0.000 A 
ATOM     10  N   UNL     1       5.666   5.559  18.359  0.00  0.00    +0.000 N 
ATOM     11  C   UNL     1       6.458   5.360  19.543  0.00  0.00    +0.000 C 
ENDBRANCH   1   2
BRANCH   1  12
ATOM     12  C   UNL     1       2.473   4.844  19.406  0.00  0.00    +0.000 A 
ATOM     13  C   UNL     1       2.089   4.145  18.249  0.00  0.00    +0.000 A 
ATOM     14  C   UNL     1       1.236   3.033  18.326  0.00  0.00    +0.000 A 
ATOM     15  C   UNL     1       0.735   2.621  19.553  0.00  0.00    +0.000 A 
ATOM     16  C   UNL     1       1.086   3.315  20.705  0.00  0.00    +0.000 A 
ATOM     17  C   UNL     1       1.953   4.407  20.633  0.00  0.00    +0.000 A 
ENDBRANCH   1  12
BRANCH   1  20
ATOM     18  C   UNL     1       1.824   8.020  19.911  0.00  0.00    +0.000 C 
ATOM     19  O   UNL     1       1.808   7.807  21.120  0.00  0.00    +0.000 OA
ATOM     20  N   UNL     1       2.511   7.250  19.023  0.00  0.00    +0.000 N 
ATOM     21  H   UNL     1       2.516   7.539  18.046  0.00  0.00    +0.000 HD
BRANCH  18  27
ATOM     22  C   UNL     1      -0.320  10.088  21.251  0.00  0.00    +0.000 C 
ATOM     23  C   UNL     1       0.196  10.056  19.860  0.00  0.00    +0.000 A 
ATOM     24  N   UNL     1      -0.171  10.963  18.950  0.00  0.00    +0.000 NA
ATOM     25  N   UNL     1       0.522  10.568  17.876  0.00  0.00    +0.000 N 
ATOM     26  N   UNL     1       1.314   9.497  17.994  0.00  0.00    +0.000 NA
ATOM     27  C   UNL     1       1.128   9.146  19.279  0.00  0.00    +0.000 A 
ATOM     28  H   UNL     1       0.458  11.079  16.994  0.00  0.00    +0.000 HD
ENDBRANCH  18  27
ENDBRANCH   1  20
TORSDOF 4
ENDMDL
MODEL 2
REMARK VINA RESULT:      -8.5      2.112      6.525
REMARK  Name = 
REMARK  6 active torsions:
REMARK  status: ('A' for Active; 'I' for Inactive)
REMARK    1  A    between atoms: C_1  and  C_2
REMARK    2  A    between atoms: C_6  and  C_7
REMARK    3  A    between atoms: N_9  and  C_10
REMARK    4  A    between atoms: C_10  and  C_11
REMARK    5  A    between atoms: C_10  and  C_17
REMARK    6  A    between atoms: N_25  and  C_26
REMARK                            x       y       z     vdW  Elec       q    Type
REMARK                         _______ _______ _______ _____ _____    ______ ____
ROOT
ATOM      1  C   UNL     1       2.628   6.220  18.700  0.00  0.00    +0.000 C 
ENDROOT
BRANCH   1   2
ATOM      2  C   UNL     1       2.212   7.459  19.457  0.00  0.00    +0.000 A 
ATOM      3  N   UNL     1       2.173   7.529  20.778  0.00  0.00    +0.000 NA
ATOM      4  C   UNL     1       1.356   8.580  21.044  0.00  0.00    +0.000 A 
ATOM      5  C   UNL     1       0.802   8.957  22.270  0.00  0.00    +0.000 A 
ATOM      6  C   UNL     1      -0.522   9.362  22.115  0.00  0.00    +0.000 A 
ATOM      7  C   UNL     1      -0.918  10.062  20.975  0.00  0.00    +0.000 A 
ATOM      8  C   UNL     1      -0.080  10.154  19.856  0.00  0.00    +0.000 A 
ATOM      9  C   UNL     1       0.965   9.227  19.875  0.00  0.00    +0.000 A 
ATOM     10  N   UNL     1       1.778   8.655  18.926  0.00  0.00    +0.000 N 
ATOM     11  C   UNL     1       2.118   9.205  17.641  0.00  0.00    +0.000 C 
ENDBRANCH   1   2
BRANCH   1  12
ATOM     12  C   UNL     1       1.905   4.929  19.133  0.00  0.00    +0.000 A 
ATOM     13  C   UNL     1       1.706   4.583  20.480  0.00  0.00    +0.000 A 
ATOM     14  C   UNL     1       1.107   3.364  20.832  0.00  0.00    +0.000 A 
ATOM     15  C   UNL     1       0.721   2.465  19.848  0.00  0.00    +0.000 A 
ATOM     16  C   UNL     1       0.930   2.782  18.511  0.00  0.00    +0.000 A 
ATOM     17  C   UNL     1       1.506   4.003  18.158  0.00  0.00    +0.000 A 
ENDBRANCH   1  12
BRANCH   1  20
ATOM     18  C   UNL     1       5.012   5.781  18.095  0.00  0.00    +0.000 C 
ATOM     19  O   UNL     1       4.785   5.530  16.915  0.00  0.00    +0.000 OA
ATOM     20  N   UNL     1       4.041   6.094  18.996  0.00  0.00    +0.000 N 
ATOM     21  H   UNL     1       4.330   6.347  19.940  0.00  0.00    +0.000 HD
BRANCH  18  27
ATOM     22  C   UNL     1       7.550   7.656  17.253  0.00  0.00    +0.000 C 
ATOM     23  C   UNL     1       7.470   6.621  18.313  0.00  0.00    +0.000 A 
ATOM     24  N   UNL     1       8.505   6.353  19.116  0.00  0.00    +0.000 NA
ATOM     25  N   UNL     1       7.999   5.393  19.899  0.00  0.00    +0.000 N 
ATOM     26  N   UNL     1       6.734   5.011  19.695  0.00  0.00    +0.000 NA
ATOM     27  C   UNL     1       6.361   5.801  18.672  0.00  0.00    +0.000 A 
ATOM     28  H   UNL     1       8.561   4.972  20.641  0.00  0.00    +0.000 HD
ENDBRANCH  18  27
ENDBRANCH   1  20
TORSDOF 4
ENDMDL
MODEL 3
REMARK VINA RESULT:      -8.3      2.065      6.397
REMARK  Name = 
REMARK  6 active torsions:
REMARK  status: ('A' for Active; 'I' for Inactive)
REMARK    1  A    between atoms: C_1  and  C_2
REMARK    2  A    between atoms: C_6  and  C_7
REMARK    3  A    between atoms: N_9  and  C_10
REMARK    4  A    between atoms: C_10  and  C_11
REMARK    5  A    between atoms: C_10  and  C_17
REMARK    6  A    between atoms: N_25  and  C_26
REMARK                            x       y       z     vdW  Elec       q    Type
REMARK                         _______ _______ _______ _____ _____    ______ ____
ROOT
ATOM      1  C   UNL     1       2.431   5.414  18.615  0.00  0.00    +0.000 C 
ENDROOT
BRANCH   1   2
ATOM      2  C   UNL     1       2.330   6.868  19.010  0.00  0.00    +0.000 A 
ATOM      3  N   UNL     1       1.882   7.275  20.188  0.00  0.00    +0.000 NA
ATOM      4  C   UNL     1       1.529   8.572  19.994  0.00  0.00    +0.000 A 
ATOM      5  C   UNL     1       0.802   9.407  20.845  0.00  0.00    +0.000 A 
ATOM      6  C   UNL     1      -0.105  10.183  20.126  0.00  0.00    +0.000 A 
ATOM      7  C   UNL     1       0.227  10.667  18.860  0.00  0.00    +0.000 A 
ATOM      8  C   UNL     1       1.351  10.187  18.175  0.00  0.00    +0.000 A 
ATOM      9  C   UNL     1       1.853   8.998  18.709  0.00  0.00    +0.000 A 
ATOM     10  N   UNL     1       2.628   7.968  18.233  0.00  0.00    +0.000 N 
ATOM     11  C   UNL     1       3.571   8.031  17.149  0.00  0.00    +0.000 C 
ENDBRANCH   1   2
BRANCH   1  12
ATOM     12  C   UNL     1       2.002   4.419  19.712  0.00  0.00    +0.000 A 
ATOM     13  C   UNL     1       2.638   4.344  20.963  0.00  0.00    +0.000 A 
ATOM     14  C   UNL     1       2.264   3.375  21.907  0.00  0.00    +0.000 A 
ATOM     15  C   UNL     1       1.271   2.454  21.606  0.00  0.00    +0.000 A 
ATOM     16  C   UNL     1       0.647   2.499  20.365  0.00  0.00    +0.000 A 
ATOM     17  C   UNL     1       1.001   3.476  19.433  0.00  0.00    +0.000 A 
ENDBRANCH   1  12
BRANCH   1  20
ATOM     18  C   UNL     1       4.374   4.215  17.601  0.00  0.00    +0.000 C 
ATOM     19  O   UNL     1       3.706   3.303  17.122  0.00  0.00    +0.000 OA
ATOM     20  N   UNL     1       3.840   5.231  18.333  0.00  0.00    +0.000 N 
ATOM     21  H   UNL     1       4.464   5.977  18.639  0.00  0.00    +0.000 HD
BRANCH  18  27
ATOM     22  C   UNL     1       6.071   4.295  14.812  0.00  0.00    +0.000 C 
ATOM     23  C   UNL     1       6.571   4.377  16.207  0.00  0.00    +0.000 A 
ATOM     24  N   UNL     1       7.868   4.537  16.483  0.00  0.00    +0.000 NA
ATOM     25  N   UNL     1       7.861   4.568  17.820  0.00  0.00    +0.000 N 
ATOM     26  N   UNL     1       6.685   4.453  18.449  0.00  0.00    +0.000 NA
ATOM     27  C   UNL     1       5.825   4.335  17.421  0.00  0.00    +0.000 A 
ATOM     28  H   UNL     1       8.727   4.689  18.347  0.00  0.00    +0.000 HD
ENDBRANCH  18  27
ENDBRANCH   1  20
TORSDOF 4
ENDMDL
MODEL 4
REMARK VINA RESULT:      -8.2      1.916      6.372
REMARK  Name = 
REMARK  6 active torsions:
REMARK  status: ('A' for Active; 'I' for Inactive)
REMARK    1  A    between atoms: C_1  and  C_2
REMARK    2  A    between atoms: C_6  and  C_7
REMARK    3  A    between atoms: N_9  and  C_10
REMARK    4  A    between atoms: C_10  and  C_11
REMARK    5  A    between atoms: C_10  and  C_17
REMARK    6  A    between atoms: N_25  and  C_26
REMARK                            x       y       z     vdW  Elec       q    Type
REMARK                         _______ _______ _______ _____ _____    ______ ____
ROOT
ATOM      1  C   UNL     1       2.203   6.188  18.750  0.00  0.00    +0.000 C 
ENDROOT
BRANCH   1   2
ATOM      2  C   UNL     1       1.985   7.468  19.522  0.00  0.00    +0.000 A 
ATOM      3  N   UNL     1       2.024   7.540  20.843  0.00  0.00    +0.000 NA
ATOM      4  C   UNL     1       1.361   8.685  21.147  0.00  0.00    +0.000 A 
ATOM      5  C   UNL     1       0.923   9.125  22.398  0.00  0.00    +0.000 A 
ATOM      6  C   UNL     1      -0.346   9.693  22.310  0.00  0.00    +0.000 A 
ATOM      7  C   UNL     1      -0.711  10.440  21.189  0.00  0.00    +0.000 A 
ATOM      8  C   UNL     1       0.073  10.428  20.028  0.00  0.00    +0.000 A 
ATOM      9  C   UNL     1       0.993   9.377  19.996  0.00  0.00    +0.000 A 
ATOM     10  N   UNL     1       1.677   8.710  19.009  0.00  0.00    +0.000 N 
ATOM     11  C   UNL     1       2.016   9.216  17.705  0.00  0.00    +0.000 C 
ENDBRANCH   1   2
BRANCH   1  12
ATOM     12  C   UNL     1       1.977   4.899  19.566  0.00  0.00    +0.000 A 
ATOM     13  C   UNL     1       1.120   3.870  19.140  0.00  0.00    +0.000 A 
ATOM     14  C   UNL     1       0.886   2.746  19.946  0.00  0.00    +0.000 A 
ATOM     15  C   UNL     1       1.482   2.645  21.195  0.00  0.00    +0.000 A 
ATOM     16  C   UNL     1       2.314   3.664  21.642  0.00  0.00    +0.000 A 
ATOM     17  C   UNL     1       2.566   4.773  20.833  0.00  0.00    +0.000 A 
ENDBRANCH   1  12
BRANCH   1  20
ATOM     18  C   UNL     1       4.197   5.450  17.437  0.00  0.00    +0.000 C 
ATOM     19  O   UNL     1       3.620   4.529  16.867  0.00  0.00    +0.000 OA
ATOM     20  N   UNL     1       3.594   6.259  18.352  0.00  0.00    +0.000 N 
ATOM     21  H   UNL     1       4.134   7.036  18.729  0.00  0.00    +0.000 HD
BRANCH  18  27
ATOM     22  C   UNL     1       6.714   5.385  19.516  0.00  0.00    +0.000 C 
ATOM     23  C   UNL     1       6.700   5.777  18.085  0.00  0.00    +0.000 A 
ATOM     24  N   UNL     1       7.814   6.143  17.443  0.00  0.00    +0.000 NA
ATOM     25  N   UNL     1       7.350   6.392  16.213  0.00  0.00    +0.000 N 
ATOM     26  N   UNL     1       6.044   6.217  15.982  0.00  0.00    +0.000 NA
ATOM     27  C   UNL     1       5.596   5.809  17.184  0.00  0.00    +0.000 A 
ATOM     28  H   UNL     1       7.978   6.694  15.467  0.00  0.00    +0.000 HD
ENDBRANCH  18  27
ENDBRANCH   1  20
TORSDOF 4
ENDMDL
MODEL 5
REMARK VINA RESULT:      -8.2      1.896      6.466
REMARK  Name = 
REMARK  6 active torsions:
REMARK  status: ('A' for Active; 'I' for Inactive)
REMARK    1  A    between atoms: C_1  and  C_2
REMARK    2  A    between atoms: C_6  and  C_7
REMARK    3  A    between atoms: N_9  and  C_10
REMARK    4  A    between atoms: C_10  and  C_11
REMARK    5  A    between atoms: C_10  and  C_17
REMARK    6  A    between atoms: N_25  and  C_26
REMARK                            x       y       z     vdW  Elec       q    Type
REMARK                         _______ _______ _______ _____ _____    ______ ____
ROOT
ATOM      1  C   UNL     1       2.361   5.788  18.848  0.00  0.00    +0.000 C 
ENDROOT
BRANCH   1   2
ATOM      2  C   UNL     1       2.140   7.125  19.514  0.00  0.00    +0.000 A 
ATOM      3  N   UNL     1       2.087   7.287  20.826  0.00  0.00    +0.000 NA
ATOM      4  C   UNL     1       1.451   8.473  21.003  0.00  0.00    +0.000 A 
ATOM      5  C   UNL     1       0.943   9.015  22.186  0.00  0.00    +0.000 A 
ATOM      6  C   UNL     1      -0.292   9.621  21.966  0.00  0.00    +0.000 A 
ATOM      7  C   UNL     1      -0.545  10.300  20.774  0.00  0.00    +0.000 A 
ATOM      8  C   UNL     1       0.319  10.179  19.677  0.00  0.00    +0.000 A 
ATOM      9  C   UNL     1       1.195   9.097  19.784  0.00  0.00    +0.000 A 
ATOM     10  N   UNL     1       1.921   8.339  18.897  0.00  0.00    +0.000 N 
ATOM     11  C   UNL     1       2.372   8.740  17.592  0.00  0.00    +0.000 C 
ENDBRANCH   1   2
BRANCH   1  12
ATOM     12  C   UNL     1       2.311   4.578  19.803  0.00  0.00    +0.000 A 
ATOM     13  C   UNL     1       3.452   3.836  20.151  0.00  0.00    +0.000 A 
ATOM     14  C   UNL     1       3.352   2.698  20.966  0.00  0.00    +0.000 A 
ATOM     15  C   UNL     1       2.114   2.272  21.423  0.00  0.00    +0.000 A 
ATOM     16  C   UNL     1       0.972   2.982  21.070  0.00  0.00    +0.000 A 
ATOM     17  C   UNL     1       1.071   4.126  20.278  0.00  0.00    +0.000 A 
ENDBRANCH   1  12
BRANCH   1  20
ATOM     18  C   UNL     1       4.180   5.156  17.255  0.00  0.00    +0.000 C 
ATOM     19  O   UNL     1       3.538   4.272  16.696  0.00  0.00    +0.000 OA
ATOM     20  N   UNL     1       3.693   5.897  18.290  0.00  0.00    +0.000 N 
ATOM     21  H   UNL     1       4.275   6.650  18.651  0.00  0.00    +0.000 HD
BRANCH  18  27
ATOM     22  C   UNL     1       5.856   4.244  14.605  0.00  0.00    +0.000 C 
ATOM     23  C   UNL     1       6.273   5.154  15.702  0.00  0.00    +0.000 A 
ATOM     24  N   UNL     1       7.461   5.765  15.698  0.00  0.00    +0.000 NA
ATOM     25  N   UNL     1       7.408   6.470  16.833  0.00  0.00    +0.000 N 
ATOM     26  N   UNL     1       6.299   6.389  17.577  0.00  0.00    +0.000 NA
ATOM     27  C   UNL     1       5.538   5.543  16.859  0.00  0.00    +0.000 A 
ATOM     28  H   UNL     1       8.188   7.065  17.118  0.00  0.00    +0.000 HD
ENDBRANCH  18  27
ENDBRANCH   1  20
TORSDOF 4
ENDMDL
MODEL 6
REMARK VINA RESULT:      -8.0      2.728      5.573
REMARK  Name = 
REMARK  6 active torsions:
REMARK  status: ('A' for Active; 'I' for Inactive)
REMARK    1  A    between atoms: C_1  and  C_2
REMARK    2  A    between atoms: C_6  and  C_7
REMARK    3  A    between atoms: N_9  and  C_10
REMARK    4  A    between atoms: C_10  and  C_11
REMARK    5  A    between atoms: C_10  and  C_17
REMARK    6  A    between atoms: N_25  and  C_26
REMARK                            x       y       z     vdW  Elec       q    Type
REMARK                         _______ _______ _______ _____ _____    ______ ____
ROOT
ATOM      1  C   UNL     1       2.923   6.080  18.081  0.00  0.00    +0.000 C 
ENDROOT
BRANCH   1   2
ATOM      2  C   UNL     1       4.416   6.024  17.858  0.00  0.00    +0.000 A 
ATOM      3  N   UNL     1       5.249   5.376  18.656  0.00  0.00    +0.000 NA
ATOM      4  C   UNL     1       6.466   5.919  18.398  0.00  0.00    +0.000 A 
ATOM      5  C   UNL     1       7.655   5.755  19.113  0.00  0.00    +0.000 A 
ATOM      6  C   UNL     1       8.343   6.962  19.219  0.00  0.00    +0.000 A 
ATOM      7  C   UNL     1       8.334   7.876  18.164  0.00  0.00    +0.000 A 
ATOM      8  C   UNL     1       7.443   7.732  17.093  0.00  0.00    +0.000 A 
ATOM      9  C   UNL     1       6.399   6.844  17.361  0.00  0.00    +0.000 A 
ATOM     10  N   UNL     1       5.135   6.648  16.860  0.00  0.00    +0.000 N 
ATOM     11  C   UNL     1       4.663   7.008  15.550  0.00  0.00    +0.000 C 
ENDBRANCH   1   2
BRANCH   1  12
ATOM     12  C   UNL     1       2.387   7.464  18.501  0.00  0.00    +0.000 A 
ATOM     13  C   UNL     1       1.919   7.737  19.797  0.00  0.00    +0.000 A 
ATOM     14  C   UNL     1       1.372   8.989  20.118  0.00  0.00    +0.000 A 
ATOM     15  C   UNL     1       1.263   9.974  19.147  0.00  0.00    +0.000 A 
ATOM     16  C   UNL     1       1.700   9.713  17.854  0.00  0.00    +0.000 A 
ATOM     17  C   UNL     1       2.265   8.476  17.538  0.00  0.00    +0.000 A 
ENDBRANCH   1  12
BRANCH   1  20
ATOM     18  C   UNL     1       2.030   3.957  19.051  0.00  0.00    +0.000 C 
ATOM     19  O   UNL     1       1.500   3.574  18.013  0.00  0.00    +0.000 OA
ATOM     20  N   UNL     1       2.700   5.138  19.159  0.00  0.00    +0.000 N 
ATOM     21  H   UNL     1       3.161   5.346  20.044  0.00  0.00    +0.000 HD
BRANCH  18  27
ATOM     22  C   UNL     1       4.470   2.220  20.353  0.00  0.00    +0.000 C 
ATOM     23  C   UNL     1       3.094   2.424  20.871  0.00  0.00    +0.000 A 
ATOM     24  N   UNL     1       2.693   1.900  22.033  0.00  0.00    +0.000 NA
ATOM     25  N   UNL     1       1.430   2.333  22.105  0.00  0.00    +0.000 N 
ATOM     26  N   UNL     1       0.965   3.096  21.110  0.00  0.00    +0.000 NA
ATOM     27  C   UNL     1       2.032   3.179  20.294  0.00  0.00    +0.000 A 
ATOM     28  H   UNL     1       0.840   2.098  22.905  0.00  0.00    +0.000 HD
ENDBRANCH  18  27
ENDBRANCH   1  20
TORSDOF 4
ENDMDL
MODEL 7
REMARK VINA RESULT:      -7.8      1.989      6.319
REMARK  Name = 
REMARK  6 active torsions:
REMARK  status: ('A' for Active; 'I' for Inactive)
REMARK    1  A    between atoms: C_1  and  C_2
REMARK    2  A    between atoms: C_6  and  C_7
REMARK    3  A    between atoms: N_9  and  C_10
REMARK    4  A    between atoms: C_10  and  C_11
REMARK    5  A    between atoms: C_10  and  C_17
REMARK    6  A    between atoms: N_25  and  C_26
REMARK                            x       y       z     vdW  Elec       q    Type
REMARK                         _______ _______ _______ _____ _____    ______ ____
ROOT
ATOM      1  C   UNL     1       2.236   5.730  18.872  0.00  0.00    +0.000 C 
ENDROOT
BRANCH   1   2
ATOM      2  C   UNL     1       2.079   7.080  19.530  0.00  0.00    +0.000 A 
ATOM      3  N   UNL     1       2.049   7.254  20.842  0.00  0.00    +0.000 NA
ATOM      4  C   UNL     1       1.464   8.467  21.016  0.00  0.00    +0.000 A 
ATOM      5  C   UNL     1       0.993   9.038  22.201  0.00  0.00    +0.000 A 
ATOM      6  C   UNL     1      -0.219   9.692  21.991  0.00  0.00    +0.000 A 
ATOM      7  C   UNL     1      -0.457  10.373  20.796  0.00  0.00    +0.000 A 
ATOM      8  C   UNL     1       0.388  10.208  19.691  0.00  0.00    +0.000 A 
ATOM      9  C   UNL     1       1.220   9.091  19.797  0.00  0.00    +0.000 A 
ATOM     10  N   UNL     1       1.903   8.298  18.907  0.00  0.00    +0.000 N 
ATOM     11  C   UNL     1       2.355   8.670  17.593  0.00  0.00    +0.000 C 
ENDBRANCH   1   2
BRANCH   1  12
ATOM     12  C   UNL     1       2.258   4.537  19.850  0.00  0.00    +0.000 A 
ATOM     13  C   UNL     1       3.441   3.875  20.216  0.00  0.00    +0.000 A 
ATOM     14  C   UNL     1       3.410   2.748  21.051  0.00  0.00    +0.000 A 
ATOM     15  C   UNL     1       2.198   2.254  21.512  0.00  0.00    +0.000 A 
ATOM     16  C   UNL     1       1.015   2.883  21.141  0.00  0.00    +0.000 A 
ATOM     17  C   UNL     1       1.046   4.017  20.328  0.00  0.00    +0.000 A 
ENDBRANCH   1  12
BRANCH   1  20
ATOM     18  C   UNL     1       3.955   4.990  17.217  0.00  0.00    +0.000 C 
ATOM     19  O   UNL     1       3.308   4.033  16.802  0.00  0.00    +0.000 OA
ATOM     20  N   UNL     1       3.519   5.820  18.205  0.00  0.00    +0.000 N 
ATOM     21  H   UNL     1       4.098   6.624  18.442  0.00  0.00    +0.000 HD
BRANCH  18  27
ATOM     22  C   UNL     1       6.741   5.501  18.842  0.00  0.00    +0.000 C 
ATOM     23  C   UNL     1       6.486   5.592  17.383  0.00  0.00    +0.000 A 
ATOM     24  N   UNL     1       7.458   5.885  16.514  0.00  0.00    +0.000 NA
ATOM     25  N   UNL     1       6.802   5.850  15.349  0.00  0.00    +0.000 N 
ATOM     26  N   UNL     1       5.497   5.555  15.367  0.00  0.00    +0.000 NA
ATOM     27  C   UNL     1       5.266   5.373  16.680  0.00  0.00    +0.000 A 
ATOM     28  H   UNL     1       7.286   6.032  14.469  0.00  0.00    +0.000 HD
ENDBRANCH  18  27
ENDBRANCH   1  20
TORSDOF 4
ENDMDL
MODEL 8
REMARK VINA RESULT:      -7.8      0.709      1.217
REMARK  Name = 
REMARK  6 active torsions:
REMARK  status: ('A' for Active; 'I' for Inactive)
REMARK    1  A    between atoms: C_1  and  C_2
REMARK    2  A    between atoms: C_6  and  C_7
REMARK    3  A    between atoms: N_9  and  C_10
REMARK    4  A    between atoms: C_10  and  C_11
REMARK    5  A    between atoms: C_10  and  C_17
REMARK    6  A    between atoms: N_25  and  C_26
REMARK                            x       y       z     vdW  Elec       q    Type
REMARK                         _______ _______ _______ _____ _____    ______ ____
ROOT
ATOM      1  C   UNL     1       3.375   5.938  19.553  0.00  0.00    +0.000 C 
ENDROOT
BRANCH   1   2
ATOM      2  C   UNL     1       4.401   6.036  18.449  0.00  0.00    +0.000 A 
ATOM      3  N   UNL     1       4.144   6.552  17.258  0.00  0.00    +0.000 NA
ATOM      4  C   UNL     1       5.121   6.064  16.452  0.00  0.00    +0.000 A 
ATOM      5  C   UNL     1       5.200   6.116  15.058  0.00  0.00    +0.000 A 
ATOM      6  C   UNL     1       5.670   4.912  14.540  0.00  0.00    +0.000 A 
ATOM      7  C   UNL     1       6.642   4.179  15.223  0.00  0.00    +0.000 A 
ATOM      8  C   UNL     1       6.981   4.489  16.547  0.00  0.00    +0.000 A 
ATOM      9  C   UNL     1       6.047   5.317  17.175  0.00  0.00    +0.000 A 
ATOM     10  N   UNL     1       5.703   5.585  18.477  0.00  0.00    +0.000 N 
ATOM     11  C   UNL     1       6.543   5.438  19.636  0.00  0.00    +0.000 C 
ENDBRANCH   1   2
BRANCH   1  12
ATOM     12  C   UNL     1       2.488   4.678  19.496  0.00  0.00    +0.000 A 
ATOM     13  C   UNL     1       1.918   4.202  18.303  0.00  0.00    +0.000 A 
ATOM     14  C   UNL     1       1.059   3.092  18.306  0.00  0.00    +0.000 A 
ATOM     15  C   UNL     1       0.737   2.460  19.498  0.00  0.00    +0.000 A 
ATOM     16  C   UNL     1       1.274   2.932  20.690  0.00  0.00    +0.000 A 
ATOM     17  C   UNL     1       2.147   4.021  20.688  0.00  0.00    +0.000 A 
ENDBRANCH   1  12
BRANCH   1  20
ATOM     18  C   UNL     1       1.778   7.703  20.315  0.00  0.00    +0.000 C 
ATOM     19  O   UNL     1       1.676   7.275  21.460  0.00  0.00    +0.000 OA
ATOM     20  N   UNL     1       2.546   7.110  19.359  0.00  0.00    +0.000 N 
ATOM     21  H   UNL     1       2.618   7.570  18.452  0.00  0.00    +0.000 HD
BRANCH  18  27
ATOM     22  C   UNL     1       2.282   9.347  17.538  0.00  0.00    +0.000 C 
ATOM     23  C   UNL     1       1.319   9.639  18.630  0.00  0.00    +0.000 A 
ATOM     24  N   UNL     1       0.471  10.669  18.565  0.00  0.00    +0.000 NA
ATOM     25  N   UNL     1      -0.193  10.547  19.720  0.00  0.00    +0.000 N 
ATOM     26  N   UNL     1       0.130   9.534  20.532  0.00  0.00    +0.000 NA
ATOM     27  C   UNL     1       1.108   8.920  19.842  0.00  0.00    +0.000 A 
ATOM     28  H   UNL     1      -0.935  11.203  19.970  0.00  0.00    +0.000 HD
ENDBRANCH  18  27
ENDBRANCH   1  20
TORSDOF 4
ENDMDL
MODEL 9
REMARK VINA RESULT:      -7.7      1.995      4.460
REMARK  Name = 
REMARK  6 active torsions:
REMARK  status: ('A' for Active; 'I' for Inactive)
REMARK    1  A    between atoms: C_1  and  C_2
REMARK    2  A    between atoms: C_6  and  C_7
REMARK    3  A    between atoms: N_9  and  C_10
REMARK    4  A    between atoms: C_10  and  C_11
REMARK    5  A    between atoms: C_10  and  C_17
REMARK    6  A    between atoms: N_25  and  C_26
REMARK                            x       y       z     vdW  Elec       q    Type
REMARK                         _______ _______ _______ _____ _____    ______ ____
ROOT
ATOM      1  C   UNL     1       3.859   6.601  17.562  0.00  0.00    +0.000 C 
ENDROOT
BRANCH   1   2
ATOM      2  C   UNL     1       3.218   5.237  17.471  0.00  0.00    +0.000 A 
ATOM      3  N   UNL     1       1.985   4.981  17.877  0.00  0.00    +0.000 NA
ATOM      4  C   UNL     1       1.949   3.635  18.049  0.00  0.00    +0.000 A 
ATOM      5  C   UNL     1       0.960   2.868  18.670  0.00  0.00    +0.000 A 
ATOM      6  C   UNL     1       1.527   1.864  19.452  0.00  0.00    +0.000 A 
ATOM      7  C   UNL     1       2.693   1.218  19.038  0.00  0.00    +0.000 A 
ATOM      8  C   UNL     1       3.460   1.722  17.979  0.00  0.00    +0.000 A 
ATOM      9  C   UNL     1       3.144   3.042  17.651  0.00  0.00    +0.000 A 
ATOM     10  N   UNL     1       3.796   4.071  17.016  0.00  0.00    +0.000 N 
ATOM     11  C   UNL     1       4.861   3.951  16.055  0.00  0.00    +0.000 C 
ENDBRANCH   1   2
BRANCH   1  12
ATOM     12  C   UNL     1       5.343   6.587  17.980  0.00  0.00    +0.000 A 
ATOM     13  C   UNL     1       6.336   7.301  17.287  0.00  0.00    +0.000 A 
ATOM     14  C   UNL     1       7.686   7.204  17.657  0.00  0.00    +0.000 A 
ATOM     15  C   UNL     1       8.066   6.378  18.705  0.00  0.00    +0.000 A 
ATOM     16  C   UNL     1       7.100   5.648  19.387  0.00  0.00    +0.000 A 
ATOM     17  C   UNL     1       5.754   5.759  19.035  0.00  0.00    +0.000 A 
ENDBRANCH   1  12
BRANCH   1  20
ATOM     18  C   UNL     1       2.264   8.345  18.373  0.00  0.00    +0.000 C 
ATOM     19  O   UNL     1       2.117   8.881  17.278  0.00  0.00    +0.000 OA
ATOM     20  N   UNL     1       3.085   7.278  18.581  0.00  0.00    +0.000 N 
ATOM     21  H   UNL     1       3.097   6.861  19.511  0.00  0.00    +0.000 HD
BRANCH  18  27
ATOM     22  C   UNL     1       0.671  11.145  18.911  0.00  0.00    +0.000 C 
ATOM     23  C   UNL     1       0.850   9.986  19.822  0.00  0.00    +0.000 A 
ATOM     24  N   UNL     1       0.306   9.959  21.042  0.00  0.00    +0.000 NA
ATOM     25  N   UNL     1       0.703   8.762  21.490  0.00  0.00    +0.000 N 
ATOM     26  N   UNL     1       1.447   7.999  20.681  0.00  0.00    +0.000 NA
ATOM     27  C   UNL     1       1.552   8.769  19.583  0.00  0.00    +0.000 A 
ATOM     28  H   UNL     1       0.436   8.435  22.420  0.00  0.00    +0.000 HD
ENDBRANCH  18  27
ENDBRANCH   1  20
TORSDOF 4
ENDMDL
