MODEL 1
REMARK VINA RESULT:      -9.1      0.000      0.000
REMARK  Name = 
REMARK  7 active torsions:
REMARK  status: ('A' for Active; 'I' for Inactive)
REMARK    1  A    between atoms: C_1  and  N_2
REMARK    2  A    between atoms: N_5  and  C_6
REMARK    3  A    between atoms: C_6  and  C_7
REMARK    4  A    between atoms: C_7  and  C_8
REMARK    5  A    between atoms: C_12  and  N_13
REMARK    6  A    between atoms: C_18  and  N_19
REMARK    7  A    between atoms: C_25  and  C_26
REMARK                            x       y       z     vdW  Elec       q    Type
REMARK                         _______ _______ _______ _____ _____    ______ ____
ROOT
ATOM      1  N   UNL     1       4.099   4.658  19.231  0.00  0.00    +0.000 N 
ATOM      2  C   UNL     1       5.419   5.322  19.371  0.00  0.00    +0.000 C 
ATOM      3  C   UNL     1       6.000   5.171  17.999  0.00  0.00    +0.000 A 
ATOM      4  C   UNL     1       5.417   4.046  17.420  0.00  0.00    +0.000 A 
ATOM      5  C   UNL     1       5.630   3.675  16.103  0.00  0.00    +0.000 A 
ATOM      6  C   UNL     1       6.476   4.463  15.309  0.00  0.00    +0.000 A 
ATOM      7  C   UNL     1       7.058   5.615  15.907  0.00  0.00    +0.000 A 
ATOM      8  C   UNL     1       6.824   5.996  17.250  0.00  0.00    +0.000 A 
ATOM      9  C   UNL     1       4.296   3.618  18.287  0.00  0.00    +0.000 C 
ATOM     10  O   UNL     1       3.586   2.656  18.053  0.00  0.00    +0.000 OA
ENDROOT
BRANCH   1  15
ATOM     11  C   UNL     1       2.005   7.564  19.879  0.00  0.00    +0.000 A 
ATOM     12  C   UNL     1       2.427   8.312  18.768  0.00  0.00    +0.000 A 
ATOM     13  C   UNL     1       2.944   7.690  17.640  0.00  0.00    +0.000 A 
ATOM     14  C   UNL     1       3.197   6.329  17.667  0.00  0.00    +0.000 A 
ATOM     15  C   UNL     1       3.076   5.636  18.882  0.00  0.00    +0.000 A 
ATOM     16  C   UNL     1       2.329   6.204  19.921  0.00  0.00    +0.000 A 
BRANCH  11  17
ATOM     17  C   UNL     1       1.344   8.215  21.079  0.00  0.00    +0.000 C 
BRANCH  17  18
ATOM     18  C   UNL     1       0.343   9.310  20.671  0.00  0.00    +0.000 C 
BRANCH  18  23
ATOM     19  C   UNL     1      -0.590  12.979  18.533  0.00  0.00    +0.000 C 
ATOM     20  N   UNL     1      -0.517  11.844  19.436  0.00  0.00    +0.000 NA
ATOM     21  C   UNL     1      -1.242  12.060  20.690  0.00  0.00    +0.000 C 
ATOM     22  C   UNL     1      -0.418  11.310  21.746  0.00  0.00    +0.000 C 
ATOM     23  N   UNL     1       0.718  10.689  21.028  0.00  0.00    +0.000 NA
ATOM     24  C   UNL     1       0.846  11.537  19.838  0.00  0.00    +0.000 C 
ENDBRANCH  18  23
ENDBRANCH  17  18
ENDBRANCH  11  17
ENDBRANCH   1  15
BRANCH   6  25
ATOM     25  N   UNL     1       6.708   4.155  13.943  0.00  0.00    +0.000 N 
ATOM     26  C   UNL     1       7.426   4.867  13.025  0.00  0.00    +0.000 C 
ATOM     27  C   UNL     1       7.287   4.372  11.790  0.00  0.00    +0.000 C 
ATOM     28  C   UNL     1       6.375   3.205  11.872  0.00  0.00    +0.000 C 
ATOM     29  N   UNL     1       6.059   3.049  13.315  0.00  0.00    +0.000 NA
ATOM     30  H   UNL     1       6.522   2.197  13.635  0.00  0.00    +0.000 HD
ENDBRANCH   6  25
BRANCH   8  31
ATOM     31  C   UNL     1       7.386   7.304  17.742  0.00  0.00    +0.000 C 
ATOM     32  F   UNL     1       8.112   7.200  18.891  0.00  0.00    +0.000 F 
ATOM     33  F   UNL     1       8.215   7.885  16.838  0.00  0.00    +0.000 F 
ATOM     34  F   UNL     1       6.412   8.220  18.003  0.00  0.00    +0.000 F 
ENDBRANCH   8  31
TORSDOF 6
ENDMDL
MODEL 2
REMARK VINA RESULT:      -9.1      0.674      1.230
REMARK  Name = 
REMARK  7 active torsions:
REMARK  status: ('A' for Active; 'I' for Inactive)
REMARK    1  A    between atoms: C_1  and  N_2
REMARK    2  A    between atoms: N_5  and  C_6
REMARK    3  A    between atoms: C_6  and  C_7
REMARK    4  A    between atoms: C_7  and  C_8
REMARK    5  A    between atoms: C_12  and  N_13
REMARK    6  A    between atoms: C_18  and  N_19
REMARK    7  A    between atoms: C_25  and  C_26
REMARK                            x       y       z     vdW  Elec       q    Type
REMARK                         _______ _______ _______ _____ _____    ______ ____
ROOT
ATOM      1  N   UNL     1       4.152   4.632  19.246  0.00  0.00    +0.000 N 
ATOM      2  C   UNL     1       5.465   5.313  19.373  0.00  0.00    +0.000 C 
ATOM      3  C   UNL     1       6.034   5.169  17.996  0.00  0.00    +0.000 A 
ATOM      4  C   UNL     1       5.461   4.037  17.422  0.00  0.00    +0.000 A 
ATOM      5  C   UNL     1       5.666   3.669  16.103  0.00  0.00    +0.000 A 
ATOM      6  C   UNL     1       6.493   4.468  15.301  0.00  0.00    +0.000 A 
ATOM      7  C   UNL     1       7.066   5.628  15.893  0.00  0.00    +0.000 A 
ATOM      8  C   UNL     1       6.841   6.006  17.239  0.00  0.00    +0.000 A 
ATOM      9  C   UNL     1       4.353   3.594  18.299  0.00  0.00    +0.000 C 
ATOM     10  O   UNL     1       3.654   2.623  18.072  0.00  0.00    +0.000 OA
ENDROOT
BRANCH   1  15
ATOM     11  C   UNL     1       1.906   7.401  19.977  0.00  0.00    +0.000 A 
ATOM     12  C   UNL     1       2.363   8.248  18.954  0.00  0.00    +0.000 A 
ATOM     13  C   UNL     1       2.972   7.734  17.818  0.00  0.00    +0.000 A 
ATOM     14  C   UNL     1       3.279   6.385  17.758  0.00  0.00    +0.000 A 
ATOM     15  C   UNL     1       3.113   5.596  18.907  0.00  0.00    +0.000 A 
ATOM     16  C   UNL     1       2.282   6.054  19.936  0.00  0.00    +0.000 A 
BRANCH  11  17
ATOM     17  C   UNL     1       1.148   7.932  21.178  0.00  0.00    +0.000 C 
BRANCH  17  18
ATOM     18  C   UNL     1       1.056   9.469  21.177  0.00  0.00    +0.000 C 
BRANCH  18  23
ATOM     19  C   UNL     1      -0.372  13.414  22.316  0.00  0.00    +0.000 C 
ATOM     20  N   UNL     1       0.121  12.224  21.645  0.00  0.00    +0.000 NA
ATOM     21  C   UNL     1      -0.013  12.289  20.188  0.00  0.00    +0.000 C 
ATOM     22  C   UNL     1      -0.302  10.843  19.763  0.00  0.00    +0.000 C 
ATOM     23  N   UNL     1      -0.293  10.031  21.001  0.00  0.00    +0.000 NA
ATOM     24  C   UNL     1      -0.602  11.024  22.036  0.00  0.00    +0.000 C 
ENDBRANCH  18  23
ENDBRANCH  17  18
ENDBRANCH  11  17
ENDBRANCH   1  15
BRANCH   6  25
ATOM     25  N   UNL     1       6.716   4.164  13.933  0.00  0.00    +0.000 N 
ATOM     26  C   UNL     1       7.419   4.884  13.009  0.00  0.00    +0.000 C 
ATOM     27  C   UNL     1       7.274   4.388  11.775  0.00  0.00    +0.000 C 
ATOM     28  C   UNL     1       6.373   3.213  11.863  0.00  0.00    +0.000 C 
ATOM     29  N   UNL     1       6.072   3.053  13.310  0.00  0.00    +0.000 NA
ATOM     30  H   UNL     1       6.545   2.205  13.625  0.00  0.00    +0.000 HD
ENDBRANCH   6  25
BRANCH   8  31
ATOM     31  C   UNL     1       7.390   7.320  17.726  0.00  0.00    +0.000 C 
ATOM     32  F   UNL     1       8.221   7.939  16.840  0.00  0.00    +0.000 F 
ATOM     33  F   UNL     1       6.412   8.222  17.999  0.00  0.00    +0.000 F 
ATOM     34  F   UNL     1       8.110   7.187  18.875  0.00  0.00    +0.000 F 
ENDBRANCH   8  31
TORSDOF 6
ENDMDL
MODEL 3
REMARK VINA RESULT:      -8.9      0.563      1.037
REMARK  Name = 
REMARK  7 active torsions:
REMARK  status: ('A' for Active; 'I' for Inactive)
REMARK    1  A    between atoms: C_1  and  N_2
REMARK    2  A    between atoms: N_5  and  C_6
REMARK    3  A    between atoms: C_6  and  C_7
REMARK    4  A    between atoms: C_7  and  C_8
REMARK    5  A    between atoms: C_12  and  N_13
REMARK    6  A    between atoms: C_18  and  N_19
REMARK    7  A    between atoms: C_25  and  C_26
REMARK                            x       y       z     vdW  Elec       q    Type
REMARK                         _______ _______ _______ _____ _____    ______ ____
ROOT
ATOM      1  N   UNL     1       3.977   4.602  19.169  0.00  0.00    +0.000 N 
ATOM      2  C   UNL     1       5.312   5.234  19.323  0.00  0.00    +0.000 C 
ATOM      3  C   UNL     1       5.868   5.150  17.936  0.00  0.00    +0.000 A 
ATOM      4  C   UNL     1       5.256   4.070  17.305  0.00  0.00    +0.000 A 
ATOM      5  C   UNL     1       5.441   3.769  15.966  0.00  0.00    +0.000 A 
ATOM      6  C   UNL     1       6.288   4.585  15.203  0.00  0.00    +0.000 A 
ATOM      7  C   UNL     1       6.900   5.691  15.854  0.00  0.00    +0.000 A 
ATOM      8  C   UNL     1       6.696   6.001  17.219  0.00  0.00    +0.000 A 
ATOM      9  C   UNL     1       4.140   3.613  18.165  0.00  0.00    +0.000 C 
ATOM     10  O   UNL     1       3.409   2.679  17.890  0.00  0.00    +0.000 OA
ENDROOT
BRANCH   1  15
ATOM     11  C   UNL     1       1.938   7.495  20.018  0.00  0.00    +0.000 A 
ATOM     12  C   UNL     1       2.361   8.304  18.952  0.00  0.00    +0.000 A 
ATOM     13  C   UNL     1       2.857   7.745  17.782  0.00  0.00    +0.000 A 
ATOM     14  C   UNL     1       3.088   6.381  17.721  0.00  0.00    +0.000 A 
ATOM     15  C   UNL     1       2.967   5.616  18.892  0.00  0.00    +0.000 A 
ATOM     16  C   UNL     1       2.240   6.130  19.972  0.00  0.00    +0.000 A 
BRANCH  11  17
ATOM     17  C   UNL     1       1.300   8.080  21.263  0.00  0.00    +0.000 C 
BRANCH  17  18
ATOM     18  C   UNL     1       0.399   9.287  20.945  0.00  0.00    +0.000 C 
BRANCH  18  23
ATOM     19  C   UNL     1      -0.615  13.360  19.812  0.00  0.00    +0.000 C 
ATOM     20  N   UNL     1      -0.522  12.031  20.390  0.00  0.00    +0.000 NA
ATOM     21  C   UNL     1      -1.278  11.892  21.636  0.00  0.00    +0.000 C 
ATOM     22  C   UNL     1      -0.449  10.915  22.482  0.00  0.00    +0.000 C 
ATOM     23  N   UNL     1       0.721  10.534  21.659  0.00  0.00    +0.000 NA
ATOM     24  C   UNL     1       0.843  11.667  20.734  0.00  0.00    +0.000 C 
ENDBRANCH  18  23
ENDBRANCH  17  18
ENDBRANCH  11  17
ENDBRANCH   1  15
BRANCH   6  25
ATOM     25  N   UNL     1       6.493   4.350  13.818  0.00  0.00    +0.000 N 
ATOM     26  C   UNL     1       5.967   3.359  13.040  0.00  0.00    +0.000 C 
ATOM     27  C   UNL     1       6.515   3.339  11.820  0.00  0.00    +0.000 C 
ATOM     28  C   UNL     1       7.524   4.424  11.760  0.00  0.00    +0.000 C 
ATOM     29  N   UNL     1       7.442   5.114  13.073  0.00  0.00    +0.000 NA
ATOM     30  H   UNL     1       7.034   6.035  12.906  0.00  0.00    +0.000 HD
ENDBRANCH   6  25
BRANCH   8  31
ATOM     31  C   UNL     1       7.289   7.269  17.774  0.00  0.00    +0.000 C 
ATOM     32  F   UNL     1       8.173   7.882  16.937  0.00  0.00    +0.000 F 
ATOM     33  F   UNL     1       6.345   8.203  18.056  0.00  0.00    +0.000 F 
ATOM     34  F   UNL     1       7.968   7.057  18.936  0.00  0.00    +0.000 F 
ENDBRANCH   8  31
TORSDOF 6
ENDMDL
MODEL 4
REMARK VINA RESULT:      -8.7      3.730      6.989
REMARK  Name = 
REMARK  7 active torsions:
REMARK  status: ('A' for Active; 'I' for Inactive)
REMARK    1  A    between atoms: C_1  and  N_2
REMARK    2  A    between atoms: N_5  and  C_6
REMARK    3  A    between atoms: C_6  and  C_7
REMARK    4  A    between atoms: C_7  and  C_8
REMARK    5  A    between atoms: C_12  and  N_13
REMARK    6  A    between atoms: C_18  and  N_19
REMARK    7  A    between atoms: C_25  and  C_26
REMARK                            x       y       z     vdW  Elec       q    Type
REMARK                         _______ _______ _______ _____ _____    ______ ____
ROOT
ATOM      1  N   UNL     1       6.086   5.425  15.690  0.00  0.00    +0.000 N 
ATOM      2  C   UNL     1       4.966   6.396  15.763  0.00  0.00    +0.000 C 
ATOM      3  C   UNL     1       4.121   5.828  16.861  0.00  0.00    +0.000 A 
ATOM      4  C   UNL     1       4.361   4.457  16.906  0.00  0.00    +0.000 A 
ATOM      5  C   UNL     1       3.839   3.628  17.885  0.00  0.00    +0.000 A 
ATOM      6  C   UNL     1       3.026   4.189  18.880  0.00  0.00    +0.000 A 
ATOM      7  C   UNL     1       2.796   5.592  18.831  0.00  0.00    +0.000 A 
ATOM      8  C   UNL     1       3.344   6.435  17.835  0.00  0.00    +0.000 A 
ATOM      9  C   UNL     1       5.522   4.169  16.033  0.00  0.00    +0.000 C 
ATOM     10  O   UNL     1       5.979   3.054  15.858  0.00  0.00    +0.000 OA
ENDROOT
BRANCH   1  15
ATOM     11  C   UNL     1       7.844   7.839  17.770  0.00  0.00    +0.000 A 
ATOM     12  C   UNL     1       7.915   7.034  18.918  0.00  0.00    +0.000 A 
ATOM     13  C   UNL     1       7.864   5.651  18.827  0.00  0.00    +0.000 A 
ATOM     14  C   UNL     1       7.579   5.056  17.609  0.00  0.00    +0.000 A 
ATOM     15  C   UNL     1       7.193   5.865  16.529  0.00  0.00    +0.000 A 
ATOM     16  C   UNL     1       7.489   7.233  16.560  0.00  0.00    +0.000 A 
BRANCH  11  17
ATOM     17  C   UNL     1       8.001   9.346  17.836  0.00  0.00    +0.000 C 
BRANCH  17  18
ATOM     18  C   UNL     1       9.072   9.777  18.854  0.00  0.00    +0.000 C 
BRANCH  18  23
ATOM     19  C   UNL     1       8.583  13.989  19.811  0.00  0.00    +0.000 C 
ATOM     20  N   UNL     1       8.964  12.591  19.723  0.00  0.00    +0.000 NA
ATOM     21  C   UNL     1      10.229  12.296  20.400  0.00  0.00    +0.000 C 
ATOM     22  C   UNL     1      10.873  11.193  19.549  0.00  0.00    +0.000 C 
ATOM     23  N   UNL     1       9.927  10.905  18.447  0.00  0.00    +0.000 NA
ATOM     24  C   UNL     1       9.161  12.153  18.350  0.00  0.00    +0.000 C 
ENDBRANCH  18  23
ENDBRANCH  17  18
ENDBRANCH  11  17
ENDBRANCH   1  15
BRANCH   6  25
ATOM     25  N   UNL     1       2.489   3.399  19.930  0.00  0.00    +0.000 N 
ATOM     26  C   UNL     1       1.210   3.385  20.409  0.00  0.00    +0.000 C 
ATOM     27  C   UNL     1       1.102   2.646  21.519  0.00  0.00    +0.000 C 
ATOM     28  C   UNL     1       2.447   2.106  21.835  0.00  0.00    +0.000 C 
ATOM     29  N   UNL     1       3.328   2.569  20.732  0.00  0.00    +0.000 NA
ATOM     30  H   UNL     1       3.574   1.749  20.177  0.00  0.00    +0.000 HD
ENDBRANCH   6  25
BRANCH   8  31
ATOM     31  C   UNL     1       3.143   7.923  17.953  0.00  0.00    +0.000 C 
ATOM     32  F   UNL     1       2.334   8.453  16.992  0.00  0.00    +0.000 F 
ATOM     33  F   UNL     1       2.584   8.279  19.137  0.00  0.00    +0.000 F 
ATOM     34  F   UNL     1       4.316   8.612  17.868  0.00  0.00    +0.000 F 
ENDBRANCH   8  31
TORSDOF 6
ENDMDL
MODEL 5
REMARK VINA RESULT:      -8.5      1.269      1.746
REMARK  Name = 
REMARK  7 active torsions:
REMARK  status: ('A' for Active; 'I' for Inactive)
REMARK    1  A    between atoms: C_1  and  N_2
REMARK    2  A    between atoms: N_5  and  C_6
REMARK    3  A    between atoms: C_6  and  C_7
REMARK    4  A    between atoms: C_7  and  C_8
REMARK    5  A    between atoms: C_12  and  N_13
REMARK    6  A    between atoms: C_18  and  N_19
REMARK    7  A    between atoms: C_25  and  C_26
REMARK                            x       y       z     vdW  Elec       q    Type
REMARK                         _______ _______ _______ _____ _____    ______ ____
ROOT
ATOM      1  N   UNL     1       3.019   3.853  18.907  0.00  0.00    +0.000 N 
ATOM      2  C   UNL     1       4.404   4.032  19.412  0.00  0.00    +0.000 C 
ATOM      3  C   UNL     1       5.191   4.163  18.145  0.00  0.00    +0.000 A 
ATOM      4  C   UNL     1       4.488   3.496  17.145  0.00  0.00    +0.000 A 
ATOM      5  C   UNL     1       4.862   3.517  15.811  0.00  0.00    +0.000 A 
ATOM      6  C   UNL     1       6.007   4.239  15.444  0.00  0.00    +0.000 A 
ATOM      7  C   UNL     1       6.712   4.925  16.471  0.00  0.00    +0.000 A 
ATOM      8  C   UNL     1       6.315   4.912  17.830  0.00  0.00    +0.000 A 
ATOM      9  C   UNL     1       3.150   3.155  17.679  0.00  0.00    +0.000 C 
ATOM     10  O   UNL     1       2.296   2.562  17.045  0.00  0.00    +0.000 OA
ENDROOT
BRANCH   1  15
ATOM     11  C   UNL     1       1.971   7.078  20.230  0.00  0.00    +0.000 A 
ATOM     12  C   UNL     1       2.558   7.860  19.222  0.00  0.00    +0.000 A 
ATOM     13  C   UNL     1       2.806   7.334  17.962  0.00  0.00    +0.000 A 
ATOM     14  C   UNL     1       2.621   5.980  17.738  0.00  0.00    +0.000 A 
ATOM     15  C   UNL     1       2.340   5.140  18.827  0.00  0.00    +0.000 A 
ATOM     16  C   UNL     1       1.854   5.701  20.014  0.00  0.00    +0.000 A 
BRANCH  11  17
ATOM     17  C   UNL     1       1.599   7.660  21.580  0.00  0.00    +0.000 C 
BRANCH  17  18
ATOM     18  C   UNL     1       1.210   9.146  21.488  0.00  0.00    +0.000 C 
BRANCH  18  23
ATOM     19  C   UNL     1      -0.872  12.733  22.793  0.00  0.00    +0.000 C 
ATOM     20  N   UNL     1      -0.210  11.663  22.068  0.00  0.00    +0.000 NA
ATOM     21  C   UNL     1      -0.471  11.697  20.628  0.00  0.00    +0.000 C 
ATOM     22  C   UNL     1      -0.502  10.221  20.206  0.00  0.00    +0.000 C 
ATOM     23  N   UNL     1      -0.234   9.430  21.428  0.00  0.00    +0.000 NA
ATOM     24  C   UNL     1      -0.648  10.344  22.499  0.00  0.00    +0.000 C 
ENDBRANCH  18  23
ENDBRANCH  17  18
ENDBRANCH  11  17
ENDBRANCH   1  15
BRANCH   6  25
ATOM     25  N   UNL     1       6.424   4.327  14.091  0.00  0.00    +0.000 N 
ATOM     26  C   UNL     1       6.110   3.499  13.052  0.00  0.00    +0.000 C 
ATOM     27  C   UNL     1       6.822   3.782  11.955  0.00  0.00    +0.000 C 
ATOM     28  C   UNL     1       7.721   4.916  12.280  0.00  0.00    +0.000 C 
ATOM     29  N   UNL     1       7.390   5.295  13.679  0.00  0.00    +0.000 NA
ATOM     30  H   UNL     1       6.924   6.202  13.644  0.00  0.00    +0.000 HD
ENDBRANCH   6  25
BRANCH   8  31
ATOM     31  C   UNL     1       7.058   5.778  18.813  0.00  0.00    +0.000 C 
ATOM     32  F   UNL     1       8.316   5.340  19.100  0.00  0.00    +0.000 F 
ATOM     33  F   UNL     1       7.206   7.053  18.371  0.00  0.00    +0.000 F 
ATOM     34  F   UNL     1       6.416   5.867  20.012  0.00  0.00    +0.000 F 
ENDBRANCH   8  31
TORSDOF 6
ENDMDL
MODEL 6
REMARK VINA RESULT:      -8.5      3.556      8.862
REMARK  Name = 
REMARK  7 active torsions:
REMARK  status: ('A' for Active; 'I' for Inactive)
REMARK    1  A    between atoms: C_1  and  N_2
REMARK    2  A    between atoms: N_5  and  C_6
REMARK    3  A    between atoms: C_6  and  C_7
REMARK    4  A    between atoms: C_7  and  C_8
REMARK    5  A    between atoms: C_12  and  N_13
REMARK    6  A    between atoms: C_18  and  N_19
REMARK    7  A    between atoms: C_25  and  C_26
REMARK                            x       y       z     vdW  Elec       q    Type
REMARK                         _______ _______ _______ _____ _____    ______ ____
ROOT
ATOM      1  N   UNL     1       2.561   7.774  19.352  0.00  0.00    +0.000 N 
ATOM      2  C   UNL     1       2.169   8.562  20.547  0.00  0.00    +0.000 C 
ATOM      3  C   UNL     1       0.954   9.292  20.064  0.00  0.00    +0.000 A 
ATOM      4  C   UNL     1       1.063   9.416  18.681  0.00  0.00    +0.000 A 
ATOM      5  C   UNL     1       0.055   9.933  17.884  0.00  0.00    +0.000 A 
ATOM      6  C   UNL     1      -1.135  10.356  18.493  0.00  0.00    +0.000 A 
ATOM      7  C   UNL     1      -1.240  10.216  19.904  0.00  0.00    +0.000 A 
ATOM      8  C   UNL     1      -0.211   9.674  20.711  0.00  0.00    +0.000 A 
ATOM      9  C   UNL     1       2.192   8.568  18.236  0.00  0.00    +0.000 C 
ATOM     10  O   UNL     1       2.545   8.463  17.075  0.00  0.00    +0.000 OA
ENDROOT
BRANCH   1  15
ATOM     11  C   UNL     1       2.458   4.209  18.625  0.00  0.00    +0.000 A 
ATOM     12  C   UNL     1       2.376   3.779  19.959  0.00  0.00    +0.000 A 
ATOM     13  C   UNL     1       1.866   4.608  20.948  0.00  0.00    +0.000 A 
ATOM     14  C   UNL     1       1.581   5.930  20.652  0.00  0.00    +0.000 A 
ATOM     15  C   UNL     1       1.961   6.447  19.403  0.00  0.00    +0.000 A 
ATOM     16  C   UNL     1       2.233   5.563  18.352  0.00  0.00    +0.000 A 
BRANCH  11  17
ATOM     17  C   UNL     1       2.916   3.286  17.512  0.00  0.00    +0.000 C 
BRANCH  17  18
ATOM     18  C   UNL     1       4.443   3.313  17.322  0.00  0.00    +0.000 C 
BRANCH  18  23
ATOM     19  C   UNL     1       7.695   5.646  19.020  0.00  0.00    +0.000 C 
ATOM     20  N   UNL     1       6.832   4.769  18.249  0.00  0.00    +0.000 NA
ATOM     21  C   UNL     1       7.410   4.382  16.960  0.00  0.00    +0.000 C 
ATOM     22  C   UNL     1       6.205   4.272  16.015  0.00  0.00    +0.000 C 
ATOM     23  N   UNL     1       5.005   4.581  16.827  0.00  0.00    +0.000 NA
ATOM     24  C   UNL     1       5.558   5.388  17.920  0.00  0.00    +0.000 C 
ENDBRANCH  18  23
ENDBRANCH  17  18
ENDBRANCH  11  17
ENDBRANCH   1  15
BRANCH   6  25
ATOM     25  N   UNL     1      -2.219  10.864  17.729  0.00  0.00    +0.000 N 
ATOM     26  C   UNL     1      -3.397  11.388  18.176  0.00  0.00    +0.000 C 
ATOM     27  C   UNL     1      -4.259  11.604  17.175  0.00  0.00    +0.000 C 
ATOM     28  C   UNL     1      -3.603  11.175  15.915  0.00  0.00    +0.000 C 
ATOM     29  N   UNL     1      -2.234  10.750  16.306  0.00  0.00    +0.000 NA
ATOM     30  H   UNL     1      -1.584  11.444  15.934  0.00  0.00    +0.000 HD
ENDBRANCH   6  25
BRANCH   8  31
ATOM     31  C   UNL     1      -0.478   9.450  22.176  0.00  0.00    +0.000 C 
ATOM     32  F   UNL     1      -1.007   8.227  22.465  0.00  0.00    +0.000 F 
ATOM     33  F   UNL     1       0.647   9.548  22.929  0.00  0.00    +0.000 F 
ATOM     34  F   UNL     1      -1.354  10.360  22.688  0.00  0.00    +0.000 F 
ENDBRANCH   8  31
TORSDOF 6
ENDMDL
MODEL 7
REMARK VINA RESULT:      -8.4      1.037      1.329
REMARK  Name = 
REMARK  7 active torsions:
REMARK  status: ('A' for Active; 'I' for Inactive)
REMARK    1  A    between atoms: C_1  and  N_2
REMARK    2  A    between atoms: N_5  and  C_6
REMARK    3  A    between atoms: C_6  and  C_7
REMARK    4  A    between atoms: C_7  and  C_8
REMARK    5  A    between atoms: C_12  and  N_13
REMARK    6  A    between atoms: C_18  and  N_19
REMARK    7  A    between atoms: C_25  and  C_26
REMARK                            x       y       z     vdW  Elec       q    Type
REMARK                         _______ _______ _______ _____ _____    ______ ____
ROOT
ATOM      1  N   UNL     1       2.978   3.948  18.902  0.00  0.00    +0.000 N 
ATOM      2  C   UNL     1       4.372   4.116  19.386  0.00  0.00    +0.000 C 
ATOM      3  C   UNL     1       5.146   4.199  18.107  0.00  0.00    +0.000 A 
ATOM      4  C   UNL     1       4.420   3.518  17.134  0.00  0.00    +0.000 A 
ATOM      5  C   UNL     1       4.780   3.496  15.796  0.00  0.00    +0.000 A 
ATOM      6  C   UNL     1       5.932   4.188  15.397  0.00  0.00    +0.000 A 
ATOM      7  C   UNL     1       6.661   4.888  16.397  0.00  0.00    +0.000 A 
ATOM      8  C   UNL     1       6.280   4.918  17.760  0.00  0.00    +0.000 A 
ATOM      9  C   UNL     1       3.083   3.215  17.692  0.00  0.00    +0.000 C 
ATOM     10  O   UNL     1       2.212   2.620  17.083  0.00  0.00    +0.000 OA
ENDROOT
BRANCH   1  15
ATOM     11  C   UNL     1       1.971   7.211  20.162  0.00  0.00    +0.000 A 
ATOM     12  C   UNL     1       2.580   7.966  19.146  0.00  0.00    +0.000 A 
ATOM     13  C   UNL     1       2.830   7.416  17.897  0.00  0.00    +0.000 A 
ATOM     14  C   UNL     1       2.625   6.062  17.694  0.00  0.00    +0.000 A 
ATOM     15  C   UNL     1       2.321   5.244  18.795  0.00  0.00    +0.000 A 
ATOM     16  C   UNL     1       1.834   5.832  19.968  0.00  0.00    +0.000 A 
BRANCH  11  17
ATOM     17  C   UNL     1       1.597   7.821  21.499  0.00  0.00    +0.000 C 
BRANCH  17  18
ATOM     18  C   UNL     1       0.441   8.831  21.376  0.00  0.00    +0.000 C 
BRANCH  18  23
ATOM     19  C   UNL     1      -0.333  12.405  19.025  0.00  0.00    +0.000 C 
ATOM     20  N   UNL     1      -0.330  11.305  19.974  0.00  0.00    +0.000 NA
ATOM     21  C   UNL     1      -1.166  11.559  21.149  0.00  0.00    +0.000 C 
ATOM     22  C   UNL     1      -0.431  10.859  22.302  0.00  0.00    +0.000 C 
ATOM     23  N   UNL     1       0.770  10.226  21.712  0.00  0.00    +0.000 NA
ATOM     24  C   UNL     1       0.995  11.031  20.506  0.00  0.00    +0.000 C 
ENDBRANCH  18  23
ENDBRANCH  17  18
ENDBRANCH  11  17
ENDBRANCH   1  15
BRANCH   6  25
ATOM     25  N   UNL     1       6.336   4.232  14.037  0.00  0.00    +0.000 N 
ATOM     26  C   UNL     1       5.962   3.406  13.016  0.00  0.00    +0.000 C 
ATOM     27  C   UNL     1       6.674   3.633  11.905  0.00  0.00    +0.000 C 
ATOM     28  C   UNL     1       7.638   4.720  12.201  0.00  0.00    +0.000 C 
ATOM     29  N   UNL     1       7.348   5.138  13.597  0.00  0.00    +0.000 NA
ATOM     30  H   UNL     1       6.931   6.069  13.554  0.00  0.00    +0.000 HD
ENDBRANCH   6  25
BRANCH   8  31
ATOM     31  C   UNL     1       7.049   5.798  18.711  0.00  0.00    +0.000 C 
ATOM     32  F   UNL     1       8.324   5.379  18.947  0.00  0.00    +0.000 F 
ATOM     33  F   UNL     1       7.161   7.073  18.262  0.00  0.00    +0.000 F 
ATOM     34  F   UNL     1       6.455   5.880  19.935  0.00  0.00    +0.000 F 
ENDBRANCH   8  31
TORSDOF 6
ENDMDL
MODEL 8
REMARK VINA RESULT:      -8.4      1.166      1.570
REMARK  Name = 
REMARK  7 active torsions:
REMARK  status: ('A' for Active; 'I' for Inactive)
REMARK    1  A    between atoms: C_1  and  N_2
REMARK    2  A    between atoms: N_5  and  C_6
REMARK    3  A    between atoms: C_6  and  C_7
REMARK    4  A    between atoms: C_7  and  C_8
REMARK    5  A    between atoms: C_12  and  N_13
REMARK    6  A    between atoms: C_18  and  N_19
REMARK    7  A    between atoms: C_25  and  C_26
REMARK                            x       y       z     vdW  Elec       q    Type
REMARK                         _______ _______ _______ _____ _____    ______ ____
ROOT
ATOM      1  N   UNL     1       3.082   3.868  18.940  0.00  0.00    +0.000 N 
ATOM      2  C   UNL     1       4.461   4.052  19.457  0.00  0.00    +0.000 C 
ATOM      3  C   UNL     1       5.269   4.105  18.197  0.00  0.00    +0.000 A 
ATOM      4  C   UNL     1       4.571   3.397  17.222  0.00  0.00    +0.000 A 
ATOM      5  C   UNL     1       4.967   3.341  15.896  0.00  0.00    +0.000 A 
ATOM      6  C   UNL     1       6.127   4.026  15.510  0.00  0.00    +0.000 A 
ATOM      7  C   UNL     1       6.828   4.755  16.511  0.00  0.00    +0.000 A 
ATOM      8  C   UNL     1       6.410   4.819  17.862  0.00  0.00    +0.000 A 
ATOM      9  C   UNL     1       3.220   3.104  17.753  0.00  0.00    +0.000 C 
ATOM     10  O   UNL     1       2.367   2.491  17.136  0.00  0.00    +0.000 OA
ENDROOT
BRANCH   1  15
ATOM     11  C   UNL     1       1.885   7.089  20.139  0.00  0.00    +0.000 A 
ATOM     12  C   UNL     1       2.601   7.874  19.221  0.00  0.00    +0.000 A 
ATOM     13  C   UNL     1       3.008   7.355  18.000  0.00  0.00    +0.000 A 
ATOM     14  C   UNL     1       2.847   6.004  17.744  0.00  0.00    +0.000 A 
ATOM     15  C   UNL     1       2.424   5.158  18.782  0.00  0.00    +0.000 A 
ATOM     16  C   UNL     1       1.791   5.714  19.900  0.00  0.00    +0.000 A 
BRANCH  11  17
ATOM     17  C   UNL     1       1.344   7.664  21.433  0.00  0.00    +0.000 C 
BRANCH  17  18
ATOM     18  C   UNL     1       1.206   9.196  21.379  0.00  0.00    +0.000 C 
BRANCH  18  23
ATOM     19  C   UNL     1      -0.653  12.982  22.437  0.00  0.00    +0.000 C 
ATOM     20  N   UNL     1       0.035  11.866  21.810  0.00  0.00    +0.000 NA
ATOM     21  C   UNL     1       0.197  12.029  20.364  0.00  0.00    +0.000 C 
ATOM     22  C   UNL     1       0.086  10.606  19.801  0.00  0.00    +0.000 C 
ATOM     23  N   UNL     1      -0.110   9.709  20.962  0.00  0.00    +0.000 NA
ATOM     24  C   UNL     1      -0.680  10.610  21.970  0.00  0.00    +0.000 C 
ENDBRANCH  18  23
ENDBRANCH  17  18
ENDBRANCH  11  17
ENDBRANCH   1  15
BRANCH   6  25
ATOM     25  N   UNL     1       6.567   4.037  14.161  0.00  0.00    +0.000 N 
ATOM     26  C   UNL     1       7.325   4.978  13.525  0.00  0.00    +0.000 C 
ATOM     27  C   UNL     1       7.400   4.751  12.208  0.00  0.00    +0.000 C 
ATOM     28  C   UNL     1       6.605   3.534  11.913  0.00  0.00    +0.000 C 
ATOM     29  N   UNL     1       6.120   3.050  13.232  0.00  0.00    +0.000 NA
ATOM     30  H   UNL     1       6.618   2.183  13.438  0.00  0.00    +0.000 HD
ENDBRANCH   6  25
BRANCH   8  31
ATOM     31  C   UNL     1       7.151   5.724  18.810  0.00  0.00    +0.000 C 
ATOM     32  F   UNL     1       6.516   5.924  20.000  0.00  0.00    +0.000 F 
ATOM     33  F   UNL     1       8.381   5.247  19.128  0.00  0.00    +0.000 F 
ATOM     34  F   UNL     1       7.353   6.967  18.287  0.00  0.00    +0.000 F 
ENDBRANCH   8  31
TORSDOF 6
ENDMDL
MODEL 9
REMARK VINA RESULT:      -8.3      0.914      1.358
REMARK  Name = 
REMARK  7 active torsions:
REMARK  status: ('A' for Active; 'I' for Inactive)
REMARK    1  A    between atoms: C_1  and  N_2
REMARK    2  A    between atoms: N_5  and  C_6
REMARK    3  A    between atoms: C_6  and  C_7
REMARK    4  A    between atoms: C_7  and  C_8
REMARK    5  A    between atoms: C_12  and  N_13
REMARK    6  A    between atoms: C_18  and  N_19
REMARK    7  A    between atoms: C_25  and  C_26
REMARK                            x       y       z     vdW  Elec       q    Type
REMARK                         _______ _______ _______ _____ _____    ______ ____
ROOT
ATOM      1  N   UNL     1       3.649   4.693  19.283  0.00  0.00    +0.000 N 
ATOM      2  C   UNL     1       5.031   5.233  19.328  0.00  0.00    +0.000 C 
ATOM      3  C   UNL     1       5.504   5.021  17.924  0.00  0.00    +0.000 A 
ATOM      4  C   UNL     1       4.784   3.951  17.397  0.00  0.00    +0.000 A 
ATOM      5  C   UNL     1       4.875   3.554  16.074  0.00  0.00    +0.000 A 
ATOM      6  C   UNL     1       5.735   4.256  15.217  0.00  0.00    +0.000 A 
ATOM      7  C   UNL     1       6.458   5.353  15.762  0.00  0.00    +0.000 A 
ATOM      8  C   UNL     1       6.349   5.763  17.112  0.00  0.00    +0.000 A 
ATOM      9  C   UNL     1       3.688   3.633  18.340  0.00  0.00    +0.000 C 
ATOM     10  O   UNL     1       2.880   2.739  18.165  0.00  0.00    +0.000 OA
ENDROOT
BRANCH   1  15
ATOM     11  C   UNL     1       1.870   7.777  20.035  0.00  0.00    +0.000 A 
ATOM     12  C   UNL     1       2.288   8.482  18.894  0.00  0.00    +0.000 A 
ATOM     13  C   UNL     1       2.676   7.812  17.742  0.00  0.00    +0.000 A 
ATOM     14  C   UNL     1       2.807   6.434  17.763  0.00  0.00    +0.000 A 
ATOM     15  C   UNL     1       2.699   5.758  18.989  0.00  0.00    +0.000 A 
ATOM     16  C   UNL     1       2.072   6.393  20.067  0.00  0.00    +0.000 A 
BRANCH  11  17
ATOM     17  C   UNL     1       1.346   8.488  21.267  0.00  0.00    +0.000 C 
BRANCH  17  18
ATOM     18  C   UNL     1       0.034   9.244  20.992  0.00  0.00    +0.000 C 
BRANCH  18  23
ATOM     19  C   UNL     1      -2.472  12.796  21.070  0.00  0.00    +0.000 C 
ATOM     20  N   UNL     1      -1.434  11.789  21.213  0.00  0.00    +0.000 NA
ATOM     21  C   UNL     1      -0.149  12.345  21.640  0.00  0.00    +0.000 C 
ATOM     22  C   UNL     1       0.901  11.475  20.936  0.00  0.00    +0.000 C 
ATOM     23  N   UNL     1       0.153  10.456  20.165  0.00  0.00    +0.000 NA
ATOM     24  C   UNL     1      -1.150  11.100  19.964  0.00  0.00    +0.000 C 
ENDBRANCH  18  23
ENDBRANCH  17  18
ENDBRANCH  11  17
ENDBRANCH   1  15
BRANCH   6  25
ATOM     25  N   UNL     1       5.848   3.921  13.843  0.00  0.00    +0.000 N 
ATOM     26  C   UNL     1       4.860   3.545  12.979  0.00  0.00    +0.000 C 
ATOM     27  C   UNL     1       5.353   3.134  11.805  0.00  0.00    +0.000 C 
ATOM     28  C   UNL     1       6.831   3.231  11.877  0.00  0.00    +0.000 C 
ATOM     29  N   UNL     1       7.125   3.814  13.212  0.00  0.00    +0.000 NA
ATOM     30  H   UNL     1       7.474   4.761  13.059  0.00  0.00    +0.000 HD
ENDBRANCH   6  25
BRANCH   8  31
ATOM     31  C   UNL     1       7.059   7.016  17.551  0.00  0.00    +0.000 C 
ATOM     32  F   UNL     1       6.234   8.085  17.742  0.00  0.00    +0.000 F 
ATOM     33  F   UNL     1       7.722   6.853  18.724  0.00  0.00    +0.000 F 
ATOM     34  F   UNL     1       7.991   7.427  16.646  0.00  0.00    +0.000 F 
ENDBRANCH   8  31
TORSDOF 6
ENDMDL
