MODEL 1
REMARK VINA RESULT:      -8.8      0.000      0.000
REMARK  Name = 
REMARK  6 active torsions:
REMARK  status: ('A' for Active; 'I' for Inactive)
REMARK    1  A    between atoms: C_2  and  C_3
REMARK    2  A    between atoms: C_3  and  O_4
REMARK    3  A    between atoms: O_4  and  C_5
REMARK    4  A    between atoms: C_8  and  O_9
REMARK    5  A    between atoms: O_9  and  C_10
REMARK    6  A    between atoms: C_21  and  C_22
REMARK                            x       y       z     vdW  Elec       q    Type
REMARK                         _______ _______ _______ _____ _____    ______ ____
ROOT
ATOM      1  O   UNL     1       2.769   4.425  17.548  0.00  0.00    +0.000 OA
ATOM      2  C   UNL     1       3.182   5.193  18.412  0.00  0.00    +0.000 C 
ATOM      3  N   UNL     1       4.415   5.810  18.448  0.00  0.00    +0.000 N 
ATOM      4  C   UNL     1       5.320   5.666  17.430  0.00  0.00    +0.000 A 
ATOM      5  N   UNL     1       5.210   4.998  16.306  0.00  0.00    +0.000 NA
ATOM      6  C   UNL     1       6.388   5.242  15.638  0.00  0.00    +0.000 A 
ATOM      7  N   UNL     1       7.243   6.018  16.326  0.00  0.00    +0.000 NA
ATOM      8  N   UNL     1       6.545   6.271  17.442  0.00  0.00    +0.000 N 
ATOM      9  H   UNL     1       4.620   6.399  19.250  0.00  0.00    +0.000 HD
ATOM     10  H   UNL     1       6.950   6.870  18.151  0.00  0.00    +0.000 HD
ENDROOT
BRANCH   6  11
ATOM     11  C   UNL     1       6.636   4.750  14.284  0.00  0.00    +0.000 A 
ATOM     12  C   UNL     1       5.860   3.710  13.753  0.00  0.00    +0.000 A 
ATOM     13  C   UNL     1       6.047   3.284  12.435  0.00  0.00    +0.000 A 
ATOM     14  C   UNL     1       7.018   3.887  11.637  0.00  0.00    +0.000 A 
ATOM     15  C   UNL     1       7.810   4.908  12.159  0.00  0.00    +0.000 A 
ATOM     16  C   UNL     1       7.621   5.336  13.475  0.00  0.00    +0.000 A 
ENDBRANCH   6  11
BRANCH   2  17
ATOM     17  C   UNL     1       2.274   5.559  19.586  0.00  0.00    +0.000 C 
BRANCH  17  18
ATOM     18  O   UNL     1       2.603   6.779  20.246  0.00  0.00    +0.000 OA
BRANCH  18  19
ATOM     19  C   UNL     1       1.942   7.887  19.769  0.00  0.00    +0.000 A 
ATOM     20  C   UNL     1       2.076   8.409  18.480  0.00  0.00    +0.000 A 
ATOM     21  C   UNL     1       1.366   9.550  18.100  0.00  0.00    +0.000 A 
ATOM     22  C   UNL     1       0.468  10.153  18.980  0.00  0.00    +0.000 A 
ATOM     23  C   UNL     1       0.343   9.651  20.276  0.00  0.00    +0.000 A 
ATOM     24  C   UNL     1       1.080   8.522  20.667  0.00  0.00    +0.000 A 
BRANCH  22  25
ATOM     25  O   UNL     1      -0.271  11.273  18.659  0.00  0.00    +0.000 OA
BRANCH  25  26
ATOM     26  C   UNL     1      -1.604  11.091  18.303  0.00  0.00    +0.000 A 
ATOM     27  C   UNL     1      -1.883  10.093  17.380  0.00  0.00    +0.000 A 
ATOM     28  C   UNL     1      -3.213   9.881  17.023  0.00  0.00    +0.000 A 
ATOM     29  C   UNL     1      -4.210  10.661  17.602  0.00  0.00    +0.000 A 
ATOM     30  C   UNL     1      -3.835  11.639  18.505  0.00  0.00    +0.000 A 
ATOM     31  N   UNL     1      -2.556  11.885  18.847  0.00  0.00    +0.000 NA
ENDBRANCH  25  26
ENDBRANCH  22  25
ENDBRANCH  18  19
ENDBRANCH  17  18
ENDBRANCH   2  17
TORSDOF 6
ENDMDL
MODEL 2
REMARK VINA RESULT:      -8.5      2.891     10.789
REMARK  Name = 
REMARK  6 active torsions:
REMARK  status: ('A' for Active; 'I' for Inactive)
REMARK    1  A    between atoms: C_2  and  C_3
REMARK    2  A    between atoms: C_3  and  O_4
REMARK    3  A    between atoms: O_4  and  C_5
REMARK    4  A    between atoms: C_8  and  O_9
REMARK    5  A    between atoms: O_9  and  C_10
REMARK    6  A    between atoms: C_21  and  C_22
REMARK                            x       y       z     vdW  Elec       q    Type
REMARK                         _______ _______ _______ _____ _____    ______ ____
ROOT
ATOM      1  O   UNL     1       0.650  10.258  18.133  0.00  0.00    +0.000 OA
ATOM      2  C   UNL     1       1.371   9.433  18.686  0.00  0.00    +0.000 C 
ATOM      3  N   UNL     1       1.479   9.206  20.042  0.00  0.00    +0.000 N 
ATOM      4  C   UNL     1       0.696   9.875  20.946  0.00  0.00    +0.000 A 
ATOM      5  N   UNL     1      -0.244  10.766  20.736  0.00  0.00    +0.000 NA
ATOM      6  C   UNL     1      -0.734  11.059  21.988  0.00  0.00    +0.000 A 
ATOM      7  N   UNL     1      -0.105  10.400  22.977  0.00  0.00    +0.000 NA
ATOM      8  N   UNL     1       0.782   9.664  22.293  0.00  0.00    +0.000 N 
ATOM      9  H   UNL     1       2.146   8.504  20.348  0.00  0.00    +0.000 HD
ATOM     10  H   UNL     1       1.392   9.034  22.799  0.00  0.00    +0.000 HD
ENDROOT
BRANCH   6  11
ATOM     11  C   UNL     1      -1.872  11.952  22.193  0.00  0.00    +0.000 A 
ATOM     12  C   UNL     1      -2.269  12.841  21.184  0.00  0.00    +0.000 A 
ATOM     13  C   UNL     1      -3.399  13.647  21.349  0.00  0.00    +0.000 A 
ATOM     14  C   UNL     1      -4.139  13.579  22.528  0.00  0.00    +0.000 A 
ATOM     15  C   UNL     1      -3.744  12.715  23.548  0.00  0.00    +0.000 A 
ATOM     16  C   UNL     1      -2.616  11.907  23.382  0.00  0.00    +0.000 A 
ENDBRANCH   6  11
BRANCH   2  17
ATOM     17  C   UNL     1       2.251   8.518  17.835  0.00  0.00    +0.000 C 
BRANCH  17  18
ATOM     18  O   UNL     1       2.284   7.155  18.252  0.00  0.00    +0.000 OA
BRANCH  18  19
ATOM     19  C   UNL     1       3.367   6.440  17.794  0.00  0.00    +0.000 A 
ATOM     20  C   UNL     1       3.555   5.067  17.968  0.00  0.00    +0.000 A 
ATOM     21  C   UNL     1       4.700   4.441  17.473  0.00  0.00    +0.000 A 
ATOM     22  C   UNL     1       5.646   5.162  16.745  0.00  0.00    +0.000 A 
ATOM     23  C   UNL     1       5.477   6.538  16.583  0.00  0.00    +0.000 A 
ATOM     24  C   UNL     1       4.340   7.173  17.108  0.00  0.00    +0.000 A 
BRANCH  22  25
ATOM     25  O   UNL     1       6.789   4.597  16.220  0.00  0.00    +0.000 OA
BRANCH  25  26
ATOM     26  C   UNL     1       6.910   4.544  14.834  0.00  0.00    +0.000 A 
ATOM     27  C   UNL     1       6.024   3.722  14.152  0.00  0.00    +0.000 A 
ATOM     28  C   UNL     1       6.114   3.669  12.763  0.00  0.00    +0.000 A 
ATOM     29  C   UNL     1       7.074   4.437  12.109  0.00  0.00    +0.000 A 
ATOM     30  C   UNL     1       7.920   5.217  12.874  0.00  0.00    +0.000 A 
ATOM     31  N   UNL     1       7.875   5.268  14.219  0.00  0.00    +0.000 NA
ENDBRANCH  25  26
ENDBRANCH  22  25
ENDBRANCH  18  19
ENDBRANCH  17  18
ENDBRANCH   2  17
TORSDOF 6
ENDMDL
MODEL 3
REMARK VINA RESULT:      -8.5      1.172      1.779
REMARK  Name = 
REMARK  6 active torsions:
REMARK  status: ('A' for Active; 'I' for Inactive)
REMARK    1  A    between atoms: C_2  and  C_3
REMARK    2  A    between atoms: C_3  and  O_4
REMARK    3  A    between atoms: O_4  and  C_5
REMARK    4  A    between atoms: C_8  and  O_9
REMARK    5  A    between atoms: O_9  and  C_10
REMARK    6  A    between atoms: C_21  and  C_22
REMARK                            x       y       z     vdW  Elec       q    Type
REMARK                         _______ _______ _______ _____ _____    ______ ____
ROOT
ATOM      1  O   UNL     1       4.044   4.079  17.708  0.00  0.00    +0.000 OA
ATOM      2  C   UNL     1       4.694   5.024  18.146  0.00  0.00    +0.000 C 
ATOM      3  N   UNL     1       5.768   5.641  17.539  0.00  0.00    +0.000 N 
ATOM      4  C   UNL     1       6.192   5.277  16.289  0.00  0.00    +0.000 A 
ATOM      5  N   UNL     1       5.703   4.372  15.473  0.00  0.00    +0.000 NA
ATOM      6  C   UNL     1       6.479   4.467  14.340  0.00  0.00    +0.000 A 
ATOM      7  N   UNL     1       7.458   5.383  14.437  0.00  0.00    +0.000 NA
ATOM      8  N   UNL     1       7.250   5.876  15.666  0.00  0.00    +0.000 N 
ATOM      9  H   UNL     1       6.221   6.396  18.046  0.00  0.00    +0.000 HD
ATOM     10  H   UNL     1       7.846   6.621  16.004  0.00  0.00    +0.000 HD
ENDROOT
BRANCH   6  11
ATOM     11  C   UNL     1       6.204   3.684  13.137  0.00  0.00    +0.000 A 
ATOM     12  C   UNL     1       4.893   3.554  12.658  0.00  0.00    +0.000 A 
ATOM     13  C   UNL     1       4.635   2.865  11.469  0.00  0.00    +0.000 A 
ATOM     14  C   UNL     1       5.684   2.293  10.751  0.00  0.00    +0.000 A 
ATOM     15  C   UNL     1       6.990   2.398  11.227  0.00  0.00    +0.000 A 
ATOM     16  C   UNL     1       7.249   3.089  12.413  0.00  0.00    +0.000 A 
ENDBRANCH   6  11
BRANCH   2  17
ATOM     17  C   UNL     1       4.307   5.639  19.491  0.00  0.00    +0.000 C 
BRANCH  17  18
ATOM     18  O   UNL     1       2.906   5.711  19.741  0.00  0.00    +0.000 OA
BRANCH  18  19
ATOM     19  C   UNL     1       2.348   6.950  19.528  0.00  0.00    +0.000 A 
ATOM     20  C   UNL     1       1.681   7.708  20.494  0.00  0.00    +0.000 A 
ATOM     21  C   UNL     1       1.139   8.952  20.169  0.00  0.00    +0.000 A 
ATOM     22  C   UNL     1       1.303   9.486  18.891  0.00  0.00    +0.000 A 
ATOM     23  C   UNL     1       1.948   8.728  17.913  0.00  0.00    +0.000 A 
ATOM     24  C   UNL     1       2.467   7.463  18.233  0.00  0.00    +0.000 A 
BRANCH  22  25
ATOM     25  O   UNL     1       0.801  10.714  18.514  0.00  0.00    +0.000 OA
BRANCH  25  26
ATOM     26  C   UNL     1      -0.581  10.848  18.412  0.00  0.00    +0.000 A 
ATOM     27  C   UNL     1      -1.233  10.012  17.518  0.00  0.00    +0.000 A 
ATOM     28  C   UNL     1      -2.619  10.115  17.413  0.00  0.00    +0.000 A 
ATOM     29  C   UNL     1      -3.298  11.038  18.205  0.00  0.00    +0.000 A 
ATOM     30  C   UNL     1      -2.561  11.835  19.059  0.00  0.00    +0.000 A 
ATOM     31  N   UNL     1      -1.219  11.777  19.161  0.00  0.00    +0.000 NA
ENDBRANCH  25  26
ENDBRANCH  22  25
ENDBRANCH  18  19
ENDBRANCH  17  18
ENDBRANCH   2  17
TORSDOF 6
ENDMDL
MODEL 4
REMARK VINA RESULT:      -8.4      1.362      2.234
REMARK  Name = 
REMARK  6 active torsions:
REMARK  status: ('A' for Active; 'I' for Inactive)
REMARK    1  A    between atoms: C_2  and  C_3
REMARK    2  A    between atoms: C_3  and  O_4
REMARK    3  A    between atoms: O_4  and  C_5
REMARK    4  A    between atoms: C_8  and  O_9
REMARK    5  A    between atoms: O_9  and  C_10
REMARK    6  A    between atoms: C_21  and  C_22
REMARK                            x       y       z     vdW  Elec       q    Type
REMARK                         _______ _______ _______ _____ _____    ______ ____
ROOT
ATOM      1  O   UNL     1       4.065   3.810  17.615  0.00  0.00    +0.000 OA
ATOM      2  C   UNL     1       4.717   4.743  18.073  0.00  0.00    +0.000 C 
ATOM      3  N   UNL     1       5.774   5.388  17.466  0.00  0.00    +0.000 N 
ATOM      4  C   UNL     1       6.174   5.072  16.194  0.00  0.00    +0.000 A 
ATOM      5  N   UNL     1       5.674   4.193  15.358  0.00  0.00    +0.000 NA
ATOM      6  C   UNL     1       6.424   4.334  14.213  0.00  0.00    +0.000 A 
ATOM      7  N   UNL     1       7.399   5.252  14.322  0.00  0.00    +0.000 NA
ATOM      8  N   UNL     1       7.215   5.700  15.572  0.00  0.00    +0.000 N 
ATOM      9  H   UNL     1       6.233   6.128  17.989  0.00  0.00    +0.000 HD
ATOM     10  H   UNL     1       7.813   6.437  15.923  0.00  0.00    +0.000 HD
ENDROOT
BRANCH   6  11
ATOM     11  C   UNL     1       6.129   3.592  12.988  0.00  0.00    +0.000 A 
ATOM     12  C   UNL     1       7.136   2.867  12.336  0.00  0.00    +0.000 A 
ATOM     13  C   UNL     1       6.842   2.100  11.205  0.00  0.00    +0.000 A 
ATOM     14  C   UNL     1       5.540   2.058  10.709  0.00  0.00    +0.000 A 
ATOM     15  C   UNL     1       4.534   2.791  11.335  0.00  0.00    +0.000 A 
ATOM     16  C   UNL     1       4.827   3.555  12.468  0.00  0.00    +0.000 A 
ENDBRANCH   6  11
BRANCH   2  17
ATOM     17  C   UNL     1       4.356   5.307  19.446  0.00  0.00    +0.000 C 
BRANCH  17  18
ATOM     18  O   UNL     1       2.958   5.422  19.702  0.00  0.00    +0.000 OA
BRANCH  18  19
ATOM     19  C   UNL     1       2.438   6.679  19.496  0.00  0.00    +0.000 A 
ATOM     20  C   UNL     1       1.788   7.448  20.465  0.00  0.00    +0.000 A 
ATOM     21  C   UNL     1       1.285   8.711  20.146  0.00  0.00    +0.000 A 
ATOM     22  C   UNL     1       1.474   9.250  18.874  0.00  0.00    +0.000 A 
ATOM     23  C   UNL     1       2.104   8.481  17.894  0.00  0.00    +0.000 A 
ATOM     24  C   UNL     1       2.582   7.200  18.207  0.00  0.00    +0.000 A 
BRANCH  22  25
ATOM     25  O   UNL     1       1.012  10.496  18.503  0.00  0.00    +0.000 OA
BRANCH  25  26
ATOM     26  C   UNL     1      -0.366  10.685  18.438  0.00  0.00    +0.000 A 
ATOM     27  C   UNL     1      -0.920  11.609  19.312  0.00  0.00    +0.000 A 
ATOM     28  C   UNL     1      -2.295  11.828  19.251  0.00  0.00    +0.000 A 
ATOM     29  C   UNL     1      -3.060  11.126  18.324  0.00  0.00    +0.000 A 
ATOM     30  C   UNL     1      -2.420  10.217  17.502  0.00  0.00    +0.000 A 
ATOM     31  N   UNL     1      -1.098   9.965  17.556  0.00  0.00    +0.000 NA
ENDBRANCH  25  26
ENDBRANCH  22  25
ENDBRANCH  18  19
ENDBRANCH  17  18
ENDBRANCH   2  17
TORSDOF 6
ENDMDL
MODEL 5
REMARK VINA RESULT:      -8.4      1.179      1.825
REMARK  Name = 
REMARK  6 active torsions:
REMARK  status: ('A' for Active; 'I' for Inactive)
REMARK    1  A    between atoms: C_2  and  C_3
REMARK    2  A    between atoms: C_3  and  O_4
REMARK    3  A    between atoms: O_4  and  C_5
REMARK    4  A    between atoms: C_8  and  O_9
REMARK    5  A    between atoms: O_9  and  C_10
REMARK    6  A    between atoms: C_21  and  C_22
REMARK                            x       y       z     vdW  Elec       q    Type
REMARK                         _______ _______ _______ _____ _____    ______ ____
ROOT
ATOM      1  O   UNL     1       3.809   4.366  17.625  0.00  0.00    +0.000 OA
ATOM      2  C   UNL     1       4.530   5.234  18.107  0.00  0.00    +0.000 C 
ATOM      3  N   UNL     1       5.690   5.742  17.561  0.00  0.00    +0.000 N 
ATOM      4  C   UNL     1       6.135   5.348  16.326  0.00  0.00    +0.000 A 
ATOM      5  N   UNL     1       5.595   4.508  15.475  0.00  0.00    +0.000 NA
ATOM      6  C   UNL     1       6.430   4.533  14.381  0.00  0.00    +0.000 A 
ATOM      7  N   UNL     1       7.492   5.341  14.538  0.00  0.00    +0.000 NA
ATOM      8  N   UNL     1       7.278   5.841  15.764  0.00  0.00    +0.000 N 
ATOM      9  H   UNL     1       6.194   6.440  18.100  0.00  0.00    +0.000 HD
ATOM     10  H   UNL     1       7.930   6.516  16.140  0.00  0.00    +0.000 HD
ENDROOT
BRANCH   6  11
ATOM     11  C   UNL     1       6.134   3.796  13.155  0.00  0.00    +0.000 A 
ATOM     12  C   UNL     1       7.160   3.157  12.444  0.00  0.00    +0.000 A 
ATOM     13  C   UNL     1       6.872   2.394  11.310  0.00  0.00    +0.000 A 
ATOM     14  C   UNL     1       5.555   2.267  10.869  0.00  0.00    +0.000 A 
ATOM     15  C   UNL     1       4.528   2.913  11.554  0.00  0.00    +0.000 A 
ATOM     16  C   UNL     1       4.816   3.675  12.690  0.00  0.00    +0.000 A 
ENDBRANCH   6  11
BRANCH   2  17
ATOM     17  C   UNL     1       4.145   5.872  19.442  0.00  0.00    +0.000 C 
BRANCH  17  18
ATOM     18  O   UNL     1       2.745   6.032  19.652  0.00  0.00    +0.000 OA
BRANCH  18  19
ATOM     19  C   UNL     1       2.254   7.276  19.329  0.00  0.00    +0.000 A 
ATOM     20  C   UNL     1       2.367   7.884  18.076  0.00  0.00    +0.000 A 
ATOM     21  C   UNL     1       1.842   9.159  17.859  0.00  0.00    +0.000 A 
ATOM     22  C   UNL     1       1.146   9.823  18.868  0.00  0.00    +0.000 A 
ATOM     23  C   UNL     1       1.046   9.233  20.128  0.00  0.00    +0.000 A 
ATOM     24  C   UNL     1       1.600   7.963  20.356  0.00  0.00    +0.000 A 
BRANCH  22  25
ATOM     25  O   UNL     1       0.595  11.078  18.709  0.00  0.00    +0.000 OA
BRANCH  25  26
ATOM     26  C   UNL     1      -0.788  11.167  18.581  0.00  0.00    +0.000 A 
ATOM     27  C   UNL     1      -1.452  12.012  19.460  0.00  0.00    +0.000 A 
ATOM     28  C   UNL     1      -2.834  12.132  19.338  0.00  0.00    +0.000 A 
ATOM     29  C   UNL     1      -3.499  11.415  18.346  0.00  0.00    +0.000 A 
ATOM     30  C   UNL     1      -2.754  10.590  17.524  0.00  0.00    +0.000 A 
ATOM     31  N   UNL     1      -1.422  10.433  17.636  0.00  0.00    +0.000 NA
ENDBRANCH  25  26
ENDBRANCH  22  25
ENDBRANCH  18  19
ENDBRANCH  17  18
ENDBRANCH   2  17
TORSDOF 6
ENDMDL
MODEL 6
REMARK VINA RESULT:      -8.3      1.020      1.440
REMARK  Name = 
REMARK  6 active torsions:
REMARK  status: ('A' for Active; 'I' for Inactive)
REMARK    1  A    between atoms: C_2  and  C_3
REMARK    2  A    between atoms: C_3  and  O_4
REMARK    3  A    between atoms: O_4  and  C_5
REMARK    4  A    between atoms: C_8  and  O_9
REMARK    5  A    between atoms: O_9  and  C_10
REMARK    6  A    between atoms: C_21  and  C_22
REMARK                            x       y       z     vdW  Elec       q    Type
REMARK                         _______ _______ _______ _____ _____    ______ ____
ROOT
ATOM      1  O   UNL     1       3.789   4.747  17.524  0.00  0.00    +0.000 OA
ATOM      2  C   UNL     1       4.586   5.572  17.962  0.00  0.00    +0.000 C 
ATOM      3  N   UNL     1       5.791   5.936  17.400  0.00  0.00    +0.000 N 
ATOM      4  C   UNL     1       6.205   5.428  16.197  0.00  0.00    +0.000 A 
ATOM      5  N   UNL     1       5.594   4.592  15.391  0.00  0.00    +0.000 NA
ATOM      6  C   UNL     1       6.435   4.472  14.308  0.00  0.00    +0.000 A 
ATOM      7  N   UNL     1       7.568   5.186  14.429  0.00  0.00    +0.000 NA
ATOM      8  N   UNL     1       7.393   5.777  15.619  0.00  0.00    +0.000 N 
ATOM      9  H   UNL     1       6.355   6.616  17.902  0.00  0.00    +0.000 HD
ATOM     10  H   UNL     1       8.103   6.411  15.963  0.00  0.00    +0.000 HD
ENDROOT
BRANCH   6  11
ATOM     11  C   UNL     1       6.080   3.693  13.124  0.00  0.00    +0.000 A 
ATOM     12  C   UNL     1       4.768   3.709  12.629  0.00  0.00    +0.000 A 
ATOM     13  C   UNL     1       4.440   3.021  11.458  0.00  0.00    +0.000 A 
ATOM     14  C   UNL     1       5.418   2.302  10.773  0.00  0.00    +0.000 A 
ATOM     15  C   UNL     1       6.722   2.261  11.265  0.00  0.00    +0.000 A 
ATOM     16  C   UNL     1       7.050   2.951  12.434  0.00  0.00    +0.000 A 
ENDBRANCH   6  11
BRANCH   2  17
ATOM     17  C   UNL     1       4.253   6.323  19.251  0.00  0.00    +0.000 C 
BRANCH  17  18
ATOM     18  O   UNL     1       2.870   6.349  19.594  0.00  0.00    +0.000 OA
BRANCH  18  19
ATOM     19  C   UNL     1       2.225   7.525  19.288  0.00  0.00    +0.000 A 
ATOM     20  C   UNL     1       2.215   8.133  18.030  0.00  0.00    +0.000 A 
ATOM     21  C   UNL     1       1.537   9.336  17.831  0.00  0.00    +0.000 A 
ATOM     22  C   UNL     1       0.810   9.923  18.866  0.00  0.00    +0.000 A 
ATOM     23  C   UNL     1       0.831   9.334  20.132  0.00  0.00    +0.000 A 
ATOM     24  C   UNL     1       1.538   8.140  20.340  0.00  0.00    +0.000 A 
BRANCH  22  25
ATOM     25  O   UNL     1       0.110  11.103  18.727  0.00  0.00    +0.000 OA
BRANCH  25  26
ATOM     26  C   UNL     1      -1.248  11.022  18.433  0.00  0.00    +0.000 A 
ATOM     27  C   UNL     1      -1.651  10.009  17.574  0.00  0.00    +0.000 A 
ATOM     28  C   UNL     1      -3.008   9.897  17.282  0.00  0.00    +0.000 A 
ATOM     29  C   UNL     1      -3.909  10.790  17.858  0.00  0.00    +0.000 A 
ATOM     30  C   UNL     1      -3.412  11.773  18.693  0.00  0.00    +0.000 A 
ATOM     31  N   UNL     1      -2.103  11.922  18.972  0.00  0.00    +0.000 NA
ENDBRANCH  25  26
ENDBRANCH  22  25
ENDBRANCH  18  19
ENDBRANCH  17  18
ENDBRANCH   2  17
TORSDOF 6
ENDMDL
MODEL 7
REMARK VINA RESULT:      -8.3      6.055      8.864
REMARK  Name = 
REMARK  6 active torsions:
REMARK  status: ('A' for Active; 'I' for Inactive)
REMARK    1  A    between atoms: C_2  and  C_3
REMARK    2  A    between atoms: C_3  and  O_4
REMARK    3  A    between atoms: O_4  and  C_5
REMARK    4  A    between atoms: C_8  and  O_9
REMARK    5  A    between atoms: O_9  and  C_10
REMARK    6  A    between atoms: C_21  and  C_22
REMARK                            x       y       z     vdW  Elec       q    Type
REMARK                         _______ _______ _______ _____ _____    ______ ____
ROOT
ATOM      1  O   UNL     1       8.210   9.265  17.053  0.00  0.00    +0.000 OA
ATOM      2  C   UNL     1       8.368   8.644  18.100  0.00  0.00    +0.000 C 
ATOM      3  N   UNL     1       8.958   9.110  19.256  0.00  0.00    +0.000 N 
ATOM      4  C   UNL     1       9.387  10.406  19.371  0.00  0.00    +0.000 A 
ATOM      5  N   UNL     1       9.314  11.387  18.503  0.00  0.00    +0.000 NA
ATOM      6  C   UNL     1       9.843  12.475  19.160  0.00  0.00    +0.000 A 
ATOM      7  N   UNL     1      10.272  12.193  20.403  0.00  0.00    +0.000 NA
ATOM      8  N   UNL     1       9.969  10.891  20.507  0.00  0.00    +0.000 N 
ATOM      9  H   UNL     1       9.041   8.461  20.033  0.00  0.00    +0.000 HD
ATOM     10  H   UNL     1      10.167  10.408  21.374  0.00  0.00    +0.000 HD
ENDROOT
BRANCH   6  11
ATOM     11  C   UNL     1       9.864  13.812  18.570  0.00  0.00    +0.000 A 
ATOM     12  C   UNL     1       8.911  14.770  18.944  0.00  0.00    +0.000 A 
ATOM     13  C   UNL     1       8.969  16.069  18.434  0.00  0.00    +0.000 A 
ATOM     14  C   UNL     1       9.977  16.423  17.538  0.00  0.00    +0.000 A 
ATOM     15  C   UNL     1      10.919  15.476  17.142  0.00  0.00    +0.000 A 
ATOM     16  C   UNL     1      10.862  14.177  17.654  0.00  0.00    +0.000 A 
ENDBRANCH   6  11
BRANCH   2  17
ATOM     17  C   UNL     1       7.862   7.205  18.201  0.00  0.00    +0.000 C 
BRANCH  17  18
ATOM     18  O   UNL     1       7.565   6.581  16.955  0.00  0.00    +0.000 OA
BRANCH  18  19
ATOM     19  C   UNL     1       6.456   5.766  16.970  0.00  0.00    +0.000 A 
ATOM     20  C   UNL     1       6.364   4.523  16.339  0.00  0.00    +0.000 A 
ATOM     21  C   UNL     1       5.185   3.779  16.408  0.00  0.00    +0.000 A 
ATOM     22  C   UNL     1       4.099   4.236  17.154  0.00  0.00    +0.000 A 
ATOM     23  C   UNL     1       4.174   5.486  17.771  0.00  0.00    +0.000 A 
ATOM     24  C   UNL     1       5.350   6.247  17.677  0.00  0.00    +0.000 A 
BRANCH  22  25
ATOM     25  O   UNL     1       2.913   3.542  17.270  0.00  0.00    +0.000 OA
BRANCH  25  26
ATOM     26  C   UNL     1       2.426   3.297  18.551  0.00  0.00    +0.000 A 
ATOM     27  C   UNL     1       3.328   2.816  19.490  0.00  0.00    +0.000 A 
ATOM     28  C   UNL     1       2.867   2.582  20.783  0.00  0.00    +0.000 A 
ATOM     29  C   UNL     1       1.534   2.841  21.093  0.00  0.00    +0.000 A 
ATOM     30  C   UNL     1       0.708   3.309  20.088  0.00  0.00    +0.000 A 
ATOM     31  N   UNL     1       1.119   3.518  18.823  0.00  0.00    +0.000 NA
ENDBRANCH  25  26
ENDBRANCH  22  25
ENDBRANCH  18  19
ENDBRANCH  17  18
ENDBRANCH   2  17
TORSDOF 6
ENDMDL
MODEL 8
REMARK VINA RESULT:      -8.3      6.413      9.310
REMARK  Name = 
REMARK  6 active torsions:
REMARK  status: ('A' for Active; 'I' for Inactive)
REMARK    1  A    between atoms: C_2  and  C_3
REMARK    2  A    between atoms: C_3  and  O_4
REMARK    3  A    between atoms: O_4  and  C_5
REMARK    4  A    between atoms: C_8  and  O_9
REMARK    5  A    between atoms: O_9  and  C_10
REMARK    6  A    between atoms: C_21  and  C_22
REMARK                            x       y       z     vdW  Elec       q    Type
REMARK                         _______ _______ _______ _____ _____    ______ ____
ROOT
ATOM      1  O   UNL     1       8.571   9.901  17.337  0.00  0.00    +0.000 OA
ATOM      2  C   UNL     1       8.538   9.169  18.321  0.00  0.00    +0.000 C 
ATOM      3  N   UNL     1       8.934   9.488  19.602  0.00  0.00    +0.000 N 
ATOM      4  C   UNL     1       9.364  10.747  19.928  0.00  0.00    +0.000 A 
ATOM      5  N   UNL     1       9.459  11.817  19.174  0.00  0.00    +0.000 NA
ATOM      6  C   UNL     1       9.891  12.808  20.025  0.00  0.00    +0.000 A 
ATOM      7  N   UNL     1      10.098  12.381  21.282  0.00  0.00    +0.000 NA
ATOM      8  N   UNL     1       9.756  11.088  21.192  0.00  0.00    +0.000 N 
ATOM      9  H   UNL     1       8.872   8.759  20.307  0.00  0.00    +0.000 HD
ATOM     10  H   UNL     1       9.794  10.510  22.021  0.00  0.00    +0.000 HD
ENDROOT
BRANCH   6  11
ATOM     11  C   UNL     1      10.038  14.198  19.596  0.00  0.00    +0.000 A 
ATOM     12  C   UNL     1      10.189  15.222  20.542  0.00  0.00    +0.000 A 
ATOM     13  C   UNL     1      10.400  16.542  20.134  0.00  0.00    +0.000 A 
ATOM     14  C   UNL     1      10.454  16.853  18.777  0.00  0.00    +0.000 A 
ATOM     15  C   UNL     1      10.286  15.849  17.826  0.00  0.00    +0.000 A 
ATOM     16  C   UNL     1      10.078  14.528  18.233  0.00  0.00    +0.000 A 
ENDBRANCH   6  11
BRANCH   2  17
ATOM     17  C   UNL     1       7.993   7.748  18.179  0.00  0.00    +0.000 C 
BRANCH  17  18
ATOM     18  O   UNL     1       6.999   7.581  17.171  0.00  0.00    +0.000 OA
BRANCH  18  19
ATOM     19  C   UNL     1       6.222   6.455  17.311  0.00  0.00    +0.000 A 
ATOM     20  C   UNL     1       5.471   5.864  16.292  0.00  0.00    +0.000 A 
ATOM     21  C   UNL     1       4.704   4.725  16.545  0.00  0.00    +0.000 A 
ATOM     22  C   UNL     1       4.720   4.124  17.804  0.00  0.00    +0.000 A 
ATOM     23  C   UNL     1       5.450   4.719  18.833  0.00  0.00    +0.000 A 
ATOM     24  C   UNL     1       6.197   5.881  18.586  0.00  0.00    +0.000 A 
BRANCH  22  25
ATOM     25  O   UNL     1       3.994   2.992  18.111  0.00  0.00    +0.000 OA
BRANCH  25  26
ATOM     26  C   UNL     1       3.121   3.055  19.194  0.00  0.00    +0.000 A 
ATOM     27  C   UNL     1       1.884   3.643  18.976  0.00  0.00    +0.000 A 
ATOM     28  C   UNL     1       0.987   3.699  20.041  0.00  0.00    +0.000 A 
ATOM     29  C   UNL     1       1.352   3.164  21.273  0.00  0.00    +0.000 A 
ATOM     30  C   UNL     1       2.612   2.607  21.397  0.00  0.00    +0.000 A 
ATOM     31  N   UNL     1       3.509   2.564  20.394  0.00  0.00    +0.000 NA
ENDBRANCH  25  26
ENDBRANCH  22  25
ENDBRANCH  18  19
ENDBRANCH  17  18
ENDBRANCH   2  17
TORSDOF 6
ENDMDL
MODEL 9
REMARK VINA RESULT:      -8.3      2.428      4.618
REMARK  Name = 
REMARK  6 active torsions:
REMARK  status: ('A' for Active; 'I' for Inactive)
REMARK    1  A    between atoms: C_2  and  C_3
REMARK    2  A    between atoms: C_3  and  O_4
REMARK    3  A    between atoms: O_4  and  C_5
REMARK    4  A    between atoms: C_8  and  O_9
REMARK    5  A    between atoms: O_9  and  C_10
REMARK    6  A    between atoms: C_21  and  C_22
REMARK                            x       y       z     vdW  Elec       q    Type
REMARK                         _______ _______ _______ _____ _____    ______ ____
ROOT
ATOM      1  O   UNL     1       1.951   9.232  17.622  0.00  0.00    +0.000 OA
ATOM      2  C   UNL     1       1.517   9.110  18.763  0.00  0.00    +0.000 C 
ATOM      3  N   UNL     1       1.768   8.073  19.636  0.00  0.00    +0.000 N 
ATOM      4  C   UNL     1       2.629   7.056  19.315  0.00  0.00    +0.000 A 
ATOM      5  N   UNL     1       3.343   6.882  18.228  0.00  0.00    +0.000 NA
ATOM      6  C   UNL     1       4.063   5.732  18.464  0.00  0.00    +0.000 A 
ATOM      7  N   UNL     1       3.794   5.167  19.653  0.00  0.00    +0.000 NA
ATOM      8  N   UNL     1       2.896   6.021  20.165  0.00  0.00    +0.000 N 
ATOM      9  H   UNL     1       1.309   8.101  20.542  0.00  0.00    +0.000 HD
ATOM     10  H   UNL     1       2.527   5.849  21.091  0.00  0.00    +0.000 HD
ENDROOT
BRANCH   6  11
ATOM     11  C   UNL     1       5.065   5.231  17.525  0.00  0.00    +0.000 A 
ATOM     12  C   UNL     1       6.422   5.210  17.878  0.00  0.00    +0.000 A 
ATOM     13  C   UNL     1       7.375   4.667  17.012  0.00  0.00    +0.000 A 
ATOM     14  C   UNL     1       6.982   4.147  15.779  0.00  0.00    +0.000 A 
ATOM     15  C   UNL     1       5.639   4.180  15.407  0.00  0.00    +0.000 A 
ATOM     16  C   UNL     1       4.686   4.720  16.275  0.00  0.00    +0.000 A 
ENDBRANCH   6  11
BRANCH   2  17
ATOM     17  C   UNL     1       0.615  10.200  19.342  0.00  0.00    +0.000 C 
BRANCH  17  18
ATOM     18  O   UNL     1       0.073  11.106  18.384  0.00  0.00    +0.000 OA
BRANCH  18  19
ATOM     19  C   UNL     1      -1.299  11.090  18.291  0.00  0.00    +0.000 A 
ATOM     20  C   UNL     1      -2.161  11.958  18.967  0.00  0.00    +0.000 A 
ATOM     21  C   UNL     1      -3.543  11.848  18.811  0.00  0.00    +0.000 A 
ATOM     22  C   UNL     1      -4.087  10.910  17.934  0.00  0.00    +0.000 A 
ATOM     23  C   UNL     1      -3.236  10.025  17.270  0.00  0.00    +0.000 A 
ATOM     24  C   UNL     1      -1.847  10.116  17.450  0.00  0.00    +0.000 A 
BRANCH  22  25
ATOM     25  O   UNL     1      -5.443  10.762  17.728  0.00  0.00    +0.000 OA
BRANCH  25  26
ATOM     26  C   UNL     1      -6.255  11.876  17.928  0.00  0.00    +0.000 A 
ATOM     27  C   UNL     1      -6.262  12.841  16.931  0.00  0.00    +0.000 A 
ATOM     28  C   UNL     1      -7.082  13.954  17.101  0.00  0.00    +0.000 A 
ATOM     29  C   UNL     1      -7.864  14.060  18.248  0.00  0.00    +0.000 A 
ATOM     30  C   UNL     1      -7.782  13.052  19.191  0.00  0.00    +0.000 A 
ATOM     31  N   UNL     1      -6.979  11.979  19.067  0.00  0.00    +0.000 NA
ENDBRANCH  25  26
ENDBRANCH  22  25
ENDBRANCH  18  19
ENDBRANCH  17  18
ENDBRANCH   2  17
TORSDOF 6
ENDMDL
