MODEL 1
REMARK VINA RESULT:      -9.2      0.000      0.000
REMARK  Name = 
REMARK  5 active torsions:
REMARK  status: ('A' for Active; 'I' for Inactive)
REMARK    1  A    between atoms: C_1  and  C_2
REMARK    2  A    between atoms: C_5  and  C_6
REMARK    3  A    between atoms: C_12  and  N_13
REMARK    4  A    between atoms: C_14  and  C_16
REMARK    5  A    between atoms: C_20  and  C_21
REMARK                            x       y       z     vdW  Elec       q    Type
REMARK                         _______ _______ _______ _____ _____    ______ ____
ROOT
ATOM      1  N   UNL     1       3.048   5.681  20.084  0.00  0.00    +0.000 N 
ATOM      2  C   UNL     1       2.317   6.273  19.069  0.00  0.00    +0.000 C 
ATOM      3  O   UNL     1       2.121   5.821  17.949  0.00  0.00    +0.000 OA
ATOM      4  H   UNL     1       3.451   6.305  20.773  0.00  0.00    +0.000 HD
ENDROOT
BRANCH   1  10
ATOM      5  C   UNL     1       2.209   2.653  20.992  0.00  0.00    +0.000 C 
ATOM      6  C   UNL     1       3.383   3.152  20.235  0.00  0.00    +0.000 A 
ATOM      7  N   UNL     1       4.352   2.291  19.891  0.00  0.00    +0.000 NA
ATOM      8  N   UNL     1       5.280   3.063  19.316  0.00  0.00    +0.000 N 
ATOM      9  C   UNL     1       5.003   4.408  19.336  0.00  0.00    +0.000 A 
ATOM     10  C   UNL     1       3.735   4.488  19.891  0.00  0.00    +0.000 A 
ATOM     11  H   UNL     1       6.094   2.609  18.917  0.00  0.00    +0.000 HD
BRANCH   9  12
ATOM     12  C   UNL     1       5.900   5.398  18.737  0.00  0.00    +0.000 A 
ATOM     13  C   UNL     1       5.534   6.098  17.580  0.00  0.00    +0.000 A 
ATOM     14  C   UNL     1       6.390   7.043  17.010  0.00  0.00    +0.000 A 
ATOM     15  C   UNL     1       7.635   7.290  17.585  0.00  0.00    +0.000 A 
ATOM     16  C   UNL     1       8.025   6.585  18.720  0.00  0.00    +0.000 A 
ATOM     17  C   UNL     1       7.160   5.647  19.297  0.00  0.00    +0.000 A 
ENDBRANCH   9  12
ENDBRANCH   1  10
BRANCH   2  18
ATOM     18  C   UNL     1       1.857   7.655  19.374  0.00  0.00    +0.000 A 
ATOM     19  C   UNL     1       1.911   8.659  18.402  0.00  0.00    +0.000 A 
ATOM     20  C   UNL     1       1.462   9.944  18.709  0.00  0.00    +0.000 A 
ATOM     21  C   UNL     1       0.948  10.225  19.976  0.00  0.00    +0.000 A 
ATOM     22  C   UNL     1       0.881   9.226  20.961  0.00  0.00    +0.000 A 
ATOM     23  C   UNL     1       1.357   7.940  20.653  0.00  0.00    +0.000 A 
BRANCH  22  24
ATOM     24  C   UNL     1       0.297   9.515  22.324  0.00  0.00    +0.000 C 
ATOM     25  F   UNL     1      -0.114  10.805  22.475  0.00  0.00    +0.000 F 
ATOM     26  F   UNL     1      -0.796   8.746  22.590  0.00  0.00    +0.000 F 
ATOM     27  F   UNL     1       1.177   9.282  23.334  0.00  0.00    +0.000 F 
ENDBRANCH  22  24
ENDBRANCH   2  18
TORSDOF 4
ENDMDL
MODEL 2
REMARK VINA RESULT:      -9.2      0.022      1.223
REMARK  Name = 
REMARK  5 active torsions:
REMARK  status: ('A' for Active; 'I' for Inactive)
REMARK    1  A    between atoms: C_1  and  C_2
REMARK    2  A    between atoms: C_5  and  C_6
REMARK    3  A    between atoms: C_12  and  N_13
REMARK    4  A    between atoms: C_14  and  C_16
REMARK    5  A    between atoms: C_20  and  C_21
REMARK                            x       y       z     vdW  Elec       q    Type
REMARK                         _______ _______ _______ _____ _____    ______ ____
ROOT
ATOM      1  N   UNL     1       3.062   5.672  20.072  0.00  0.00    +0.000 N 
ATOM      2  C   UNL     1       2.320   6.257  19.061  0.00  0.00    +0.000 C 
ATOM      3  O   UNL     1       2.113   5.798  17.947  0.00  0.00    +0.000 OA
ATOM      4  H   UNL     1       3.472   6.301  20.753  0.00  0.00    +0.000 HD
ENDROOT
BRANCH   1  10
ATOM      5  C   UNL     1       2.216   2.646  20.980  0.00  0.00    +0.000 C 
ATOM      6  C   UNL     1       3.392   3.143  20.224  0.00  0.00    +0.000 A 
ATOM      7  N   UNL     1       4.359   2.280  19.881  0.00  0.00    +0.000 NA
ATOM      8  N   UNL     1       5.289   3.050  19.307  0.00  0.00    +0.000 N 
ATOM      9  C   UNL     1       5.015   4.395  19.327  0.00  0.00    +0.000 A 
ATOM     10  C   UNL     1       3.746   4.479  19.880  0.00  0.00    +0.000 A 
ATOM     11  H   UNL     1       6.104   2.595  18.910  0.00  0.00    +0.000 HD
BRANCH   9  12
ATOM     12  C   UNL     1       5.914   5.384  18.729  0.00  0.00    +0.000 A 
ATOM     13  C   UNL     1       7.168   5.656  19.292  0.00  0.00    +0.000 A 
ATOM     14  C   UNL     1       8.025   6.598  18.721  0.00  0.00    +0.000 A 
ATOM     15  C   UNL     1       7.630   7.297  17.581  0.00  0.00    +0.000 A 
ATOM     16  C   UNL     1       6.378   7.057  17.023  0.00  0.00    +0.000 A 
ATOM     17  C   UNL     1       5.525   6.103  17.590  0.00  0.00    +0.000 A 
ENDBRANCH   9  12
ENDBRANCH   1  10
BRANCH   2  18
ATOM     18  C   UNL     1       1.863   7.642  19.362  0.00  0.00    +0.000 A 
ATOM     19  C   UNL     1       1.921   8.643  18.387  0.00  0.00    +0.000 A 
ATOM     20  C   UNL     1       1.475   9.930  18.690  0.00  0.00    +0.000 A 
ATOM     21  C   UNL     1       0.960  10.216  19.955  0.00  0.00    +0.000 A 
ATOM     22  C   UNL     1       0.889   9.220  20.943  0.00  0.00    +0.000 A 
ATOM     23  C   UNL     1       1.362   7.931  20.639  0.00  0.00    +0.000 A 
BRANCH  22  24
ATOM     24  C   UNL     1       0.303   9.513  22.304  0.00  0.00    +0.000 C 
ATOM     25  F   UNL     1       1.174   9.292  23.328  0.00  0.00    +0.000 F 
ATOM     26  F   UNL     1      -0.089  10.812  22.428  0.00  0.00    +0.000 F 
ATOM     27  F   UNL     1      -0.796   8.760  22.579  0.00  0.00    +0.000 F 
ENDBRANCH  22  24
ENDBRANCH   2  18
TORSDOF 4
ENDMDL
MODEL 3
REMARK VINA RESULT:      -9.0      1.830      2.083
REMARK  Name = 
REMARK  5 active torsions:
REMARK  status: ('A' for Active; 'I' for Inactive)
REMARK    1  A    between atoms: C_1  and  C_2
REMARK    2  A    between atoms: C_5  and  C_6
REMARK    3  A    between atoms: C_12  and  N_13
REMARK    4  A    between atoms: C_14  and  C_16
REMARK    5  A    between atoms: C_20  and  C_21
REMARK                            x       y       z     vdW  Elec       q    Type
REMARK                         _______ _______ _______ _____ _____    ______ ____
ROOT
ATOM      1  N   UNL     1       2.462   5.174  18.111  0.00  0.00    +0.000 N 
ATOM      2  C   UNL     1       3.005   6.044  19.040  0.00  0.00    +0.000 C 
ATOM      3  O   UNL     1       3.872   5.786  19.863  0.00  0.00    +0.000 OA
ATOM      4  H   UNL     1       1.525   5.385  17.788  0.00  0.00    +0.000 HD
ENDROOT
BRANCH   1  10
ATOM      5  C   UNL     1       0.890   2.604  19.385  0.00  0.00    +0.000 C 
ATOM      6  C   UNL     1       2.135   2.683  18.581  0.00  0.00    +0.000 A 
ATOM      7  N   UNL     1       2.840   1.565  18.357  0.00  0.00    +0.000 NA
ATOM      8  N   UNL     1       3.922   1.993  17.699  0.00  0.00    +0.000 N 
ATOM      9  C   UNL     1       4.003   3.355  17.547  0.00  0.00    +0.000 A 
ATOM     10  C   UNL     1       2.812   3.830  18.075  0.00  0.00    +0.000 A 
ATOM     11  H   UNL     1       4.582   1.298  17.367  0.00  0.00    +0.000 HD
BRANCH   9  12
ATOM     12  C   UNL     1       5.111   3.997  16.837  0.00  0.00    +0.000 A 
ATOM     13  C   UNL     1       5.121   4.081  15.438  0.00  0.00    +0.000 A 
ATOM     14  C   UNL     1       6.177   4.695  14.762  0.00  0.00    +0.000 A 
ATOM     15  C   UNL     1       7.251   5.220  15.479  0.00  0.00    +0.000 A 
ATOM     16  C   UNL     1       7.268   5.123  16.867  0.00  0.00    +0.000 A 
ATOM     17  C   UNL     1       6.202   4.519  17.544  0.00  0.00    +0.000 A 
ENDBRANCH   9  12
ENDBRANCH   1  10
BRANCH   2  18
ATOM     18  C   UNL     1       2.340   7.374  19.093  0.00  0.00    +0.000 A 
ATOM     19  C   UNL     1       2.358   8.229  17.986  0.00  0.00    +0.000 A 
ATOM     20  C   UNL     1       1.716   9.466  18.056  0.00  0.00    +0.000 A 
ATOM     21  C   UNL     1       1.046   9.845  19.221  0.00  0.00    +0.000 A 
ATOM     22  C   UNL     1       1.013   8.995  20.339  0.00  0.00    +0.000 A 
ATOM     23  C   UNL     1       1.683   7.761  20.270  0.00  0.00    +0.000 A 
BRANCH  22  24
ATOM     24  C   UNL     1       0.264   9.385  21.591  0.00  0.00    +0.000 C 
ATOM     25  F   UNL     1      -0.700   8.490  21.946  0.00  0.00    +0.000 F 
ATOM     26  F   UNL     1       1.085   9.490  22.673  0.00  0.00    +0.000 F 
ATOM     27  F   UNL     1      -0.365  10.586  21.477  0.00  0.00    +0.000 F 
ENDBRANCH  22  24
ENDBRANCH   2  18
TORSDOF 4
ENDMDL
MODEL 4
REMARK VINA RESULT:      -9.0      1.830      2.149
REMARK  Name = 
REMARK  5 active torsions:
REMARK  status: ('A' for Active; 'I' for Inactive)
REMARK    1  A    between atoms: C_1  and  C_2
REMARK    2  A    between atoms: C_5  and  C_6
REMARK    3  A    between atoms: C_12  and  N_13
REMARK    4  A    between atoms: C_14  and  C_16
REMARK    5  A    between atoms: C_20  and  C_21
REMARK                            x       y       z     vdW  Elec       q    Type
REMARK                         _______ _______ _______ _____ _____    ______ ____
ROOT
ATOM      1  N   UNL     1       2.475   5.103  18.151  0.00  0.00    +0.000 N 
ATOM      2  C   UNL     1       3.029   5.999  19.049  0.00  0.00    +0.000 C 
ATOM      3  O   UNL     1       3.919   5.768  19.856  0.00  0.00    +0.000 OA
ATOM      4  H   UNL     1       1.528   5.297  17.847  0.00  0.00    +0.000 HD
ENDROOT
BRANCH   1  10
ATOM      5  C   UNL     1       0.971   2.542  19.522  0.00  0.00    +0.000 C 
ATOM      6  C   UNL     1       2.193   2.620  18.683  0.00  0.00    +0.000 A 
ATOM      7  N   UNL     1       2.905   1.505  18.463  0.00  0.00    +0.000 NA
ATOM      8  N   UNL     1       3.963   1.932  17.766  0.00  0.00    +0.000 N 
ATOM      9  C   UNL     1       4.022   3.291  17.583  0.00  0.00    +0.000 A 
ATOM     10  C   UNL     1       2.841   3.763  18.135  0.00  0.00    +0.000 A 
ATOM     11  H   UNL     1       4.623   1.238  17.431  0.00  0.00    +0.000 HD
BRANCH   9  12
ATOM     12  C   UNL     1       5.102   3.932  16.829  0.00  0.00    +0.000 A 
ATOM     13  C   UNL     1       6.237   4.435  17.477  0.00  0.00    +0.000 A 
ATOM     14  C   UNL     1       7.267   5.044  16.757  0.00  0.00    +0.000 A 
ATOM     15  C   UNL     1       7.165   5.173  15.373  0.00  0.00    +0.000 A 
ATOM     16  C   UNL     1       6.033   4.701  14.716  0.00  0.00    +0.000 A 
ATOM     17  C   UNL     1       5.008   4.079  15.439  0.00  0.00    +0.000 A 
ENDBRANCH   9  12
ENDBRANCH   1  10
BRANCH   2  18
ATOM     18  C   UNL     1       2.349   7.322  19.091  0.00  0.00    +0.000 A 
ATOM     19  C   UNL     1       2.353   8.165  17.977  0.00  0.00    +0.000 A 
ATOM     20  C   UNL     1       1.697   9.396  18.037  0.00  0.00    +0.000 A 
ATOM     21  C   UNL     1       1.027   9.778  19.201  0.00  0.00    +0.000 A 
ATOM     22  C   UNL     1       1.008   8.940  20.327  0.00  0.00    +0.000 A 
ATOM     23  C   UNL     1       1.691   7.712  20.267  0.00  0.00    +0.000 A 
BRANCH  22  24
ATOM     24  C   UNL     1       0.259   9.333  21.578  0.00  0.00    +0.000 C 
ATOM     25  F   UNL     1      -0.396  10.523  21.466  0.00  0.00    +0.000 F 
ATOM     26  F   UNL     1      -0.693   8.419  21.918  0.00  0.00    +0.000 F 
ATOM     27  F   UNL     1       1.071   9.453  22.662  0.00  0.00    +0.000 F 
ENDBRANCH  22  24
ENDBRANCH   2  18
TORSDOF 4
ENDMDL
MODEL 5
REMARK VINA RESULT:      -8.7      3.771      5.535
REMARK  Name = 
REMARK  5 active torsions:
REMARK  status: ('A' for Active; 'I' for Inactive)
REMARK    1  A    between atoms: C_1  and  C_2
REMARK    2  A    between atoms: C_5  and  C_6
REMARK    3  A    between atoms: C_12  and  N_13
REMARK    4  A    between atoms: C_14  and  C_16
REMARK    5  A    between atoms: C_20  and  C_21
REMARK                            x       y       z     vdW  Elec       q    Type
REMARK                         _______ _______ _______ _____ _____    ______ ____
ROOT
ATOM      1  N   UNL     1       5.128   3.615  15.829  0.00  0.00    +0.000 N 
ATOM      2  C   UNL     1       4.294   4.349  16.655  0.00  0.00    +0.000 C 
ATOM      3  O   UNL     1       4.199   5.567  16.701  0.00  0.00    +0.000 OA
ATOM      4  H   UNL     1       5.392   2.694  16.157  0.00  0.00    +0.000 HD
ENDROOT
BRANCH   1  10
ATOM      5  C   UNL     1       5.500   3.267  12.598  0.00  0.00    +0.000 C 
ATOM      6  C   UNL     1       6.209   4.133  13.572  0.00  0.00    +0.000 A 
ATOM      7  N   UNL     1       7.243   4.876  13.153  0.00  0.00    +0.000 NA
ATOM      8  N   UNL     1       7.701   5.451  14.270  0.00  0.00    +0.000 N 
ATOM      9  C   UNL     1       7.065   5.058  15.422  0.00  0.00    +0.000 A 
ATOM     10  C   UNL     1       6.044   4.228  14.984  0.00  0.00    +0.000 A 
ATOM     11  H   UNL     1       8.461   6.117  14.184  0.00  0.00    +0.000 HD
BRANCH   9  12
ATOM     12  C   UNL     1       7.424   5.597  16.735  0.00  0.00    +0.000 A 
ATOM     13  C   UNL     1       7.542   6.978  16.942  0.00  0.00    +0.000 A 
ATOM     14  C   UNL     1       7.883   7.491  18.194  0.00  0.00    +0.000 A 
ATOM     15  C   UNL     1       8.129   6.625  19.258  0.00  0.00    +0.000 A 
ATOM     16  C   UNL     1       8.041   5.250  19.063  0.00  0.00    +0.000 A 
ATOM     17  C   UNL     1       7.686   4.737  17.810  0.00  0.00    +0.000 A 
ENDBRANCH   9  12
ENDBRANCH   1  10
BRANCH   2  18
ATOM     18  C   UNL     1       3.561   3.534  17.662  0.00  0.00    +0.000 A 
ATOM     19  C   UNL     1       3.548   2.138  17.582  0.00  0.00    +0.000 A 
ATOM     20  C   UNL     1       2.863   1.396  18.545  0.00  0.00    +0.000 A 
ATOM     21  C   UNL     1       2.205   2.042  19.593  0.00  0.00    +0.000 A 
ATOM     22  C   UNL     1       2.214   3.443  19.691  0.00  0.00    +0.000 A 
ATOM     23  C   UNL     1       2.885   4.186  18.704  0.00  0.00    +0.000 A 
BRANCH  22  24
ATOM     24  C   UNL     1       1.531   4.148  20.839  0.00  0.00    +0.000 C 
ATOM     25  F   UNL     1       1.370   3.361  21.940  0.00  0.00    +0.000 F 
ATOM     26  F   UNL     1       2.229   5.238  21.264  0.00  0.00    +0.000 F 
ATOM     27  F   UNL     1       0.288   4.598  20.517  0.00  0.00    +0.000 F 
ENDBRANCH  22  24
ENDBRANCH   2  18
TORSDOF 4
ENDMDL
MODEL 6
REMARK VINA RESULT:      -8.7      3.781      5.527
REMARK  Name = 
REMARK  5 active torsions:
REMARK  status: ('A' for Active; 'I' for Inactive)
REMARK    1  A    between atoms: C_1  and  C_2
REMARK    2  A    between atoms: C_5  and  C_6
REMARK    3  A    between atoms: C_12  and  N_13
REMARK    4  A    between atoms: C_14  and  C_16
REMARK    5  A    between atoms: C_20  and  C_21
REMARK                            x       y       z     vdW  Elec       q    Type
REMARK                         _______ _______ _______ _____ _____    ______ ____
ROOT
ATOM      1  N   UNL     1       5.123   3.605  15.832  0.00  0.00    +0.000 N 
ATOM      2  C   UNL     1       4.289   4.337  16.659  0.00  0.00    +0.000 C 
ATOM      3  O   UNL     1       4.188   5.555  16.702  0.00  0.00    +0.000 OA
ATOM      4  H   UNL     1       5.392   2.686  16.162  0.00  0.00    +0.000 HD
ENDROOT
BRANCH   1  10
ATOM      5  C   UNL     1       5.466   3.271  12.596  0.00  0.00    +0.000 C 
ATOM      6  C   UNL     1       6.186   4.130  13.568  0.00  0.00    +0.000 A 
ATOM      7  N   UNL     1       7.218   4.873  13.143  0.00  0.00    +0.000 NA
ATOM      8  N   UNL     1       7.687   5.442  14.259  0.00  0.00    +0.000 N 
ATOM      9  C   UNL     1       7.060   5.045  15.414  0.00  0.00    +0.000 A 
ATOM     10  C   UNL     1       6.033   4.220  14.981  0.00  0.00    +0.000 A 
ATOM     11  H   UNL     1       8.447   6.106  14.170  0.00  0.00    +0.000 HD
BRANCH   9  12
ATOM     12  C   UNL     1       7.431   5.578  16.727  0.00  0.00    +0.000 A 
ATOM     13  C   UNL     1       7.678   4.725  17.810  0.00  0.00    +0.000 A 
ATOM     14  C   UNL     1       8.033   5.234  19.061  0.00  0.00    +0.000 A 
ATOM     15  C   UNL     1       8.131   6.612  19.249  0.00  0.00    +0.000 A 
ATOM     16  C   UNL     1       7.865   7.474  18.189  0.00  0.00    +0.000 A 
ATOM     17  C   UNL     1       7.521   6.961  16.933  0.00  0.00    +0.000 A 
ENDBRANCH   9  12
ENDBRANCH   1  10
BRANCH   2  18
ATOM     18  C   UNL     1       3.563   3.522  17.671  0.00  0.00    +0.000 A 
ATOM     19  C   UNL     1       3.554   2.126  17.594  0.00  0.00    +0.000 A 
ATOM     20  C   UNL     1       2.877   1.383  18.562  0.00  0.00    +0.000 A 
ATOM     21  C   UNL     1       2.221   2.030  19.611  0.00  0.00    +0.000 A 
ATOM     22  C   UNL     1       2.225   3.431  19.706  0.00  0.00    +0.000 A 
ATOM     23  C   UNL     1       2.890   4.174  18.714  0.00  0.00    +0.000 A 
BRANCH  22  24
ATOM     24  C   UNL     1       1.545   4.136  20.856  0.00  0.00    +0.000 C 
ATOM     25  F   UNL     1       0.372   4.735  20.507  0.00  0.00    +0.000 F 
ATOM     26  F   UNL     1       1.234   3.283  21.873  0.00  0.00    +0.000 F 
ATOM     27  F   UNL     1       2.315   5.113  21.405  0.00  0.00    +0.000 F 
ENDBRANCH  22  24
ENDBRANCH   2  18
TORSDOF 4
ENDMDL
MODEL 7
REMARK VINA RESULT:      -8.6      5.213      7.479
REMARK  Name = 
REMARK  5 active torsions:
REMARK  status: ('A' for Active; 'I' for Inactive)
REMARK    1  A    between atoms: C_1  and  C_2
REMARK    2  A    between atoms: C_5  and  C_6
REMARK    3  A    between atoms: C_12  and  N_13
REMARK    4  A    between atoms: C_14  and  C_16
REMARK    5  A    between atoms: C_20  and  C_21
REMARK                            x       y       z     vdW  Elec       q    Type
REMARK                         _______ _______ _______ _____ _____    ______ ____
ROOT
ATOM      1  N   UNL     1       4.369   4.934  18.347  0.00  0.00    +0.000 N 
ATOM      2  C   UNL     1       4.128   4.293  17.145  0.00  0.00    +0.000 C 
ATOM      3  O   UNL     1       3.190   3.551  16.887  0.00  0.00    +0.000 OA
ATOM      4  H   UNL     1       5.333   5.173  18.546  0.00  0.00    +0.000 HD
ENDROOT
BRANCH   1  10
ATOM      5  C   UNL     1       4.151   2.280  20.247  0.00  0.00    +0.000 C 
ATOM      6  C   UNL     1       3.476   3.598  20.335  0.00  0.00    +0.000 A 
ATOM      7  N   UNL     1       2.547   3.794  21.281  0.00  0.00    +0.000 NA
ATOM      8  N   UNL     1       2.085   5.023  21.030  0.00  0.00    +0.000 N 
ATOM      9  C   UNL     1       2.611   5.618  19.910  0.00  0.00    +0.000 A 
ATOM     10  C   UNL     1       3.569   4.720  19.463  0.00  0.00    +0.000 A 
ATOM     11  H   UNL     1       1.401   5.413  21.670  0.00  0.00    +0.000 HD
BRANCH   9  12
ATOM     12  C   UNL     1       2.232   6.970  19.494  0.00  0.00    +0.000 A 
ATOM     13  C   UNL     1       1.611   7.854  20.385  0.00  0.00    +0.000 A 
ATOM     14  C   UNL     1       1.251   9.143  19.987  0.00  0.00    +0.000 A 
ATOM     15  C   UNL     1       1.495   9.561  18.680  0.00  0.00    +0.000 A 
ATOM     16  C   UNL     1       2.089   8.686  17.774  0.00  0.00    +0.000 A 
ATOM     17  C   UNL     1       2.460   7.399  18.179  0.00  0.00    +0.000 A 
ENDBRANCH   9  12
ENDBRANCH   1  10
BRANCH   2  18
ATOM     18  C   UNL     1       5.217   4.447  16.142  0.00  0.00    +0.000 A 
ATOM     19  C   UNL     1       6.435   5.037  16.491  0.00  0.00    +0.000 A 
ATOM     20  C   UNL     1       7.445   5.158  15.537  0.00  0.00    +0.000 A 
ATOM     21  C   UNL     1       7.247   4.679  14.240  0.00  0.00    +0.000 A 
ATOM     22  C   UNL     1       6.032   4.078  13.875  0.00  0.00    +0.000 A 
ATOM     23  C   UNL     1       5.010   3.981  14.835  0.00  0.00    +0.000 A 
BRANCH  22  24
ATOM     24  C   UNL     1       5.822   3.529  12.483  0.00  0.00    +0.000 C 
ATOM     25  F   UNL     1       4.566   3.742  12.000  0.00  0.00    +0.000 F 
ATOM     26  F   UNL     1       6.666   4.092  11.574  0.00  0.00    +0.000 F 
ATOM     27  F   UNL     1       6.029   2.187  12.409  0.00  0.00    +0.000 F 
ENDBRANCH  22  24
ENDBRANCH   2  18
TORSDOF 4
ENDMDL
MODEL 8
REMARK VINA RESULT:      -8.4      2.035      3.840
REMARK  Name = 
REMARK  5 active torsions:
REMARK  status: ('A' for Active; 'I' for Inactive)
REMARK    1  A    between atoms: C_1  and  C_2
REMARK    2  A    between atoms: C_5  and  C_6
REMARK    3  A    between atoms: C_12  and  N_13
REMARK    4  A    between atoms: C_14  and  C_16
REMARK    5  A    between atoms: C_20  and  C_21
REMARK                            x       y       z     vdW  Elec       q    Type
REMARK                         _______ _______ _______ _____ _____    ______ ____
ROOT
ATOM      1  N   UNL     1       3.308   6.102  17.484  0.00  0.00    +0.000 N 
ATOM      2  C   UNL     1       3.341   6.699  18.732  0.00  0.00    +0.000 C 
ATOM      3  O   UNL     1       4.003   6.341  19.697  0.00  0.00    +0.000 OA
ATOM      4  H   UNL     1       2.465   6.240  16.940  0.00  0.00    +0.000 HD
ENDROOT
BRANCH   1  10
ATOM      5  C   UNL     1       5.523   5.506  15.151  0.00  0.00    +0.000 C 
ATOM      6  C   UNL     1       4.998   4.644  16.240  0.00  0.00    +0.000 A 
ATOM      7  N   UNL     1       5.391   3.364  16.304  0.00  0.00    +0.000 NA
ATOM      8  N   UNL     1       4.680   2.860  17.318  0.00  0.00    +0.000 N 
ATOM      9  C   UNL     1       3.776   3.730  17.876  0.00  0.00    +0.000 A 
ATOM     10  C   UNL     1       4.002   4.928  17.216  0.00  0.00    +0.000 A 
ATOM     11  H   UNL     1       4.859   1.900  17.593  0.00  0.00    +0.000 HD
BRANCH   9  12
ATOM     12  C   UNL     1       2.925   3.353  19.007  0.00  0.00    +0.000 A 
ATOM     13  C   UNL     1       1.529   3.420  18.915  0.00  0.00    +0.000 A 
ATOM     14  C   UNL     1       0.719   3.059  19.993  0.00  0.00    +0.000 A 
ATOM     15  C   UNL     1       1.298   2.640  21.189  0.00  0.00    +0.000 A 
ATOM     16  C   UNL     1       2.685   2.592  21.306  0.00  0.00    +0.000 A 
ATOM     17  C   UNL     1       3.495   2.942  20.219  0.00  0.00    +0.000 A 
ENDBRANCH   9  12
ENDBRANCH   1  10
BRANCH   2  18
ATOM     18  C   UNL     1       2.354   7.799  18.909  0.00  0.00    +0.000 A 
ATOM     19  C   UNL     1       2.018   8.639  17.844  0.00  0.00    +0.000 A 
ATOM     20  C   UNL     1       1.081   9.655  18.032  0.00  0.00    +0.000 A 
ATOM     21  C   UNL     1       0.468   9.825  19.275  0.00  0.00    +0.000 A 
ATOM     22  C   UNL     1       0.789   8.985  20.354  0.00  0.00    +0.000 A 
ATOM     23  C   UNL     1       1.753   7.979  20.164  0.00  0.00    +0.000 A 
BRANCH  22  24
ATOM     24  C   UNL     1       0.108   9.142  21.693  0.00  0.00    +0.000 C 
ATOM     25  F   UNL     1      -0.556  10.325  21.828  0.00  0.00    +0.000 F 
ATOM     26  F   UNL     1      -0.820   8.171  21.917  0.00  0.00    +0.000 F 
ATOM     27  F   UNL     1       0.978   9.081  22.737  0.00  0.00    +0.000 F 
ENDBRANCH  22  24
ENDBRANCH   2  18
TORSDOF 4
ENDMDL
MODEL 9
REMARK VINA RESULT:      -8.3      1.463      1.667
REMARK  Name = 
REMARK  5 active torsions:
REMARK  status: ('A' for Active; 'I' for Inactive)
REMARK    1  A    between atoms: C_1  and  C_2
REMARK    2  A    between atoms: C_5  and  C_6
REMARK    3  A    between atoms: C_12  and  N_13
REMARK    4  A    between atoms: C_14  and  C_16
REMARK    5  A    between atoms: C_20  and  C_21
REMARK                            x       y       z     vdW  Elec       q    Type
REMARK                         _______ _______ _______ _____ _____    ______ ____
ROOT
ATOM      1  N   UNL     1       2.865   6.395  18.518  0.00  0.00    +0.000 N 
ATOM      2  C   UNL     1       2.419   6.617  19.808  0.00  0.00    +0.000 C 
ATOM      3  O   UNL     1       2.459   5.828  20.742  0.00  0.00    +0.000 OA
ATOM      4  H   UNL     1       2.427   6.944  17.787  0.00  0.00    +0.000 HD
ENDROOT
BRANCH   1  10
ATOM      5  C   UNL     1       1.224   3.635  17.889  0.00  0.00    +0.000 C 
ATOM      6  C   UNL     1       2.671   3.951  17.796  0.00  0.00    +0.000 A 
ATOM      7  N   UNL     1       3.532   2.973  17.479  0.00  0.00    +0.000 NA
ATOM      8  N   UNL     1       4.731   3.559  17.569  0.00  0.00    +0.000 N 
ATOM      9  C   UNL     1       4.705   4.859  18.008  0.00  0.00    +0.000 A 
ATOM     10  C   UNL     1       3.355   5.158  18.116  0.00  0.00    +0.000 A 
ATOM     11  H   UNL     1       5.546   3.014  17.310  0.00  0.00    +0.000 HD
BRANCH   9  12
ATOM     12  C   UNL     1       5.923   5.660  18.150  0.00  0.00    +0.000 A 
ATOM     13  C   UNL     1       6.203   6.712  17.268  0.00  0.00    +0.000 A 
ATOM     14  C   UNL     1       7.364   7.475  17.405  0.00  0.00    +0.000 A 
ATOM     15  C   UNL     1       8.273   7.184  18.421  0.00  0.00    +0.000 A 
ATOM     16  C   UNL     1       8.022   6.126  19.290  0.00  0.00    +0.000 A 
ATOM     17  C   UNL     1       6.851   5.371  19.159  0.00  0.00    +0.000 A 
ENDBRANCH   9  12
ENDBRANCH   1  10
BRANCH   2  18
ATOM     18  C   UNL     1       1.706   7.910  19.994  0.00  0.00    +0.000 A 
ATOM     19  C   UNL     1       1.542   8.797  18.926  0.00  0.00    +0.000 A 
ATOM     20  C   UNL     1       0.858   9.998  19.122  0.00  0.00    +0.000 A 
ATOM     21  C   UNL     1       0.328  10.308  20.376  0.00  0.00    +0.000 A 
ATOM     22  C   UNL     1       0.478   9.424  21.457  0.00  0.00    +0.000 A 
ATOM     23  C   UNL     1       1.189   8.228  21.258  0.00  0.00    +0.000 A 
BRANCH  22  24
ATOM     24  C   UNL     1      -0.120   9.738  22.808  0.00  0.00    +0.000 C 
ATOM     25  F   UNL     1      -1.264   9.045  23.069  0.00  0.00    +0.000 F 
ATOM     26  F   UNL     1       0.731   9.443  23.830  0.00  0.00    +0.000 F 
ATOM     27  F   UNL     1      -0.439  11.053  22.951  0.00  0.00    +0.000 F 
ENDBRANCH  22  24
ENDBRANCH   2  18
TORSDOF 4
ENDMDL
