MODEL 1
REMARK VINA RESULT:      -8.9      0.000      0.000
REMARK  Name = 
REMARK  4 active torsions:
REMARK  status: ('A' for Active; 'I' for Inactive)
REMARK    1  A    between atoms: C_2  and  C_20
REMARK    2  A    between atoms: N_3  and  C_4
REMARK    3  A    between atoms: C_7  and  C_8
REMARK    4  A    between atoms: C_23  and  N_24
REMARK                            x       y       z     vdW  Elec       q    Type
REMARK                         _______ _______ _______ _____ _____    ______ ____
ROOT
ATOM      1  C   UNL     1       0.277   9.671  19.805  0.00  0.00    +0.000 A 
ATOM      2  C   UNL     1       0.654   9.819  18.469  0.00  0.00    +0.000 A 
ATOM      3  C   UNL     1       1.622   8.984  17.906  0.00  0.00    +0.000 A 
ATOM      4  C   UNL     1       2.239   7.987  18.666  0.00  0.00    +0.000 A 
ATOM      5  C   UNL     1       1.921   7.903  20.028  0.00  0.00    +0.000 A 
ATOM      6  C   UNL     1       0.938   8.725  20.590  0.00  0.00    +0.000 A 
ENDROOT
BRANCH   4   7
ATOM      7  C   UNL     1       3.190   7.081  18.018  0.00  0.00    +0.000 A 
ATOM      8  N   UNL     1       4.256   7.466  17.340  0.00  0.00    +0.000 NA
ATOM      9  N   UNL     1       4.916   6.356  16.889  0.00  0.00    +0.000 NA
ATOM     10  C   UNL     1       4.242   5.292  17.269  0.00  0.00    +0.000 A 
ATOM     11  N   UNL     1       3.111   5.705  17.936  0.00  0.00    +0.000 N 
ATOM     12  C   UNL     1       2.026   4.870  18.412  0.00  0.00    +0.000 C 
ATOM     13  C   UNL     1       1.699   3.678  17.524  0.00  0.00    +0.000 C 
ATOM     14  C   UNL     1       2.642   2.493  17.713  0.00  0.00    +0.000 C 
ATOM     15  C   UNL     1       4.107   2.853  17.958  0.00  0.00    +0.000 C 
ATOM     16  C   UNL     1       4.649   3.887  16.980  0.00  0.00    +0.000 C 
ENDBRANCH   4   7
BRANCH   1  19
ATOM     17  O   UNL     1       0.507  11.740  21.882  0.00  0.00    +0.000 OA
ATOM     18  C   UNL     1      -0.560  11.371  21.403  0.00  0.00    +0.000 C 
ATOM     19  N   UNL     1      -0.744  10.427  20.411  0.00  0.00    +0.000 N 
ATOM     20  H   UNL     1      -1.658  10.375  19.983  0.00  0.00    +0.000 HD
BRANCH  18  21
ATOM     21  C   UNL     1      -1.788  12.053  21.876  0.00  0.00    +0.000 A 
ATOM     22  C   UNL     1      -2.104  11.949  23.236  0.00  0.00    +0.000 A 
ATOM     23  C   UNL     1      -3.278  12.513  23.734  0.00  0.00    +0.000 A 
ATOM     24  C   UNL     1      -4.153  13.175  22.863  0.00  0.00    +0.000 A 
ATOM     25  C   UNL     1      -3.833  13.281  21.498  0.00  0.00    +0.000 A 
ATOM     26  C   UNL     1      -2.650  12.721  21.004  0.00  0.00    +0.000 A 
BRANCH  24  27
ATOM     27  N   UNL     1      -5.368  13.717  23.343  0.00  0.00    +0.000 N 
ATOM     28  C   UNL     1      -5.775  15.026  23.402  0.00  0.00    +0.000 A 
ATOM     29  N   UNL     1      -6.972  15.084  23.938  0.00  0.00    +0.000 NA
ATOM     30  N   UNL     1      -7.319  13.789  24.215  0.00  0.00    +0.000 NA
ATOM     31  N   UNL     1      -6.359  12.950  23.851  0.00  0.00    +0.000 NA
ENDBRANCH  24  27
ENDBRANCH  18  21
ENDBRANCH   1  19
TORSDOF 4
ENDMDL
MODEL 2
REMARK VINA RESULT:      -8.7      0.596      1.084
REMARK  Name = 
REMARK  4 active torsions:
REMARK  status: ('A' for Active; 'I' for Inactive)
REMARK    1  A    between atoms: C_2  and  C_20
REMARK    2  A    between atoms: N_3  and  C_4
REMARK    3  A    between atoms: C_7  and  C_8
REMARK    4  A    between atoms: C_23  and  N_24
REMARK                            x       y       z     vdW  Elec       q    Type
REMARK                         _______ _______ _______ _____ _____    ______ ____
ROOT
ATOM      1  C   UNL     1       0.454   9.631  19.851  0.00  0.00    +0.000 A 
ATOM      2  C   UNL     1       0.845   9.786  18.520  0.00  0.00    +0.000 A 
ATOM      3  C   UNL     1       1.760   8.904  17.940  0.00  0.00    +0.000 A 
ATOM      4  C   UNL     1       2.308   7.852  18.679  0.00  0.00    +0.000 A 
ATOM      5  C   UNL     1       1.981   7.757  20.037  0.00  0.00    +0.000 A 
ATOM      6  C   UNL     1       1.050   8.627  20.616  0.00  0.00    +0.000 A 
ENDROOT
BRANCH   4   7
ATOM      7  C   UNL     1       3.202   6.903  18.012  0.00  0.00    +0.000 A 
ATOM      8  N   UNL     1       4.259   7.238  17.294  0.00  0.00    +0.000 NA
ATOM      9  N   UNL     1       4.861   6.098  16.837  0.00  0.00    +0.000 NA
ATOM     10  C   UNL     1       4.159   5.065  17.252  0.00  0.00    +0.000 A 
ATOM     11  N   UNL     1       3.068   5.529  17.950  0.00  0.00    +0.000 N 
ATOM     12  C   UNL     1       1.969   4.742  18.473  0.00  0.00    +0.000 C 
ATOM     13  C   UNL     1       1.566   3.554  17.612  0.00  0.00    +0.000 C 
ATOM     14  C   UNL     1       2.470   2.336  17.786  0.00  0.00    +0.000 C 
ATOM     15  C   UNL     1       3.955   2.642  17.977  0.00  0.00    +0.000 C 
ATOM     16  C   UNL     1       4.503   3.643  16.968  0.00  0.00    +0.000 C 
ENDBRANCH   4   7
BRANCH   1  19
ATOM     17  O   UNL     1       0.839  12.012  21.533  0.00  0.00    +0.000 OA
ATOM     18  C   UNL     1      -0.260  11.533  21.272  0.00  0.00    +0.000 C 
ATOM     19  N   UNL     1      -0.519  10.437  20.473  0.00  0.00    +0.000 N 
ATOM     20  H   UNL     1      -1.478  10.284  20.191  0.00  0.00    +0.000 HD
BRANCH  18  21
ATOM     21  C   UNL     1      -1.450  12.237  21.804  0.00  0.00    +0.000 A 
ATOM     22  C   UNL     1      -1.955  13.311  21.063  0.00  0.00    +0.000 A 
ATOM     23  C   UNL     1      -3.033  14.055  21.540  0.00  0.00    +0.000 A 
ATOM     24  C   UNL     1      -3.606  13.732  22.777  0.00  0.00    +0.000 A 
ATOM     25  C   UNL     1      -3.101  12.650  23.520  0.00  0.00    +0.000 A 
ATOM     26  C   UNL     1      -2.023  11.901  23.034  0.00  0.00    +0.000 A 
BRANCH  24  27
ATOM     27  N   UNL     1      -4.674  14.501  23.296  0.00  0.00    +0.000 N 
ATOM     28  C   UNL     1      -4.650  15.736  23.893  0.00  0.00    +0.000 A 
ATOM     29  N   UNL     1      -5.869  16.073  24.242  0.00  0.00    +0.000 NA
ATOM     30  N   UNL     1      -6.668  15.031  23.854  0.00  0.00    +0.000 NA
ATOM     31  N   UNL     1      -5.957  14.076  23.271  0.00  0.00    +0.000 NA
ENDBRANCH  24  27
ENDBRANCH  18  21
ENDBRANCH   1  19
TORSDOF 4
ENDMDL
MODEL 3
REMARK VINA RESULT:      -8.7      1.351      1.736
REMARK  Name = 
REMARK  4 active torsions:
REMARK  status: ('A' for Active; 'I' for Inactive)
REMARK    1  A    between atoms: C_2  and  C_20
REMARK    2  A    between atoms: N_3  and  C_4
REMARK    3  A    between atoms: C_7  and  C_8
REMARK    4  A    between atoms: C_23  and  N_24
REMARK                            x       y       z     vdW  Elec       q    Type
REMARK                         _______ _______ _______ _____ _____    ______ ____
ROOT
ATOM      1  C   UNL     1       0.543   9.721  20.265  0.00  0.00    +0.000 A 
ATOM      2  C   UNL     1       1.052   8.581  20.889  0.00  0.00    +0.000 A 
ATOM      3  C   UNL     1       1.850   7.679  20.180  0.00  0.00    +0.000 A 
ATOM      4  C   UNL     1       2.151   7.894  18.833  0.00  0.00    +0.000 A 
ATOM      5  C   UNL     1       1.564   8.991  18.191  0.00  0.00    +0.000 A 
ATOM      6  C   UNL     1       0.780   9.907  18.902  0.00  0.00    +0.000 A 
ENDROOT
BRANCH   4   7
ATOM      7  C   UNL     1       3.055   6.967  18.148  0.00  0.00    +0.000 A 
ATOM      8  N   UNL     1       4.106   7.327  17.434  0.00  0.00    +0.000 NA
ATOM      9  N   UNL     1       4.721   6.202  16.956  0.00  0.00    +0.000 NA
ATOM     10  C   UNL     1       4.033   5.154  17.356  0.00  0.00    +0.000 A 
ATOM     11  N   UNL     1       2.938   5.593  18.065  0.00  0.00    +0.000 N 
ATOM     12  C   UNL     1       1.850   4.784  18.577  0.00  0.00    +0.000 C 
ATOM     13  C   UNL     1       1.460   3.604  17.697  0.00  0.00    +0.000 C 
ATOM     14  C   UNL     1       2.379   2.396  17.849  0.00  0.00    +0.000 C 
ATOM     15  C   UNL     1       3.861   2.717  18.042  0.00  0.00    +0.000 C 
ATOM     16  C   UNL     1       4.394   3.741  17.048  0.00  0.00    +0.000 C 
ENDBRANCH   4   7
BRANCH   1  19
ATOM     17  O   UNL     1       0.205  10.111  23.160  0.00  0.00    +0.000 OA
ATOM     18  C   UNL     1      -0.333  10.814  22.311  0.00  0.00    +0.000 C 
ATOM     19  N   UNL     1      -0.202  10.708  20.940  0.00  0.00    +0.000 N 
ATOM     20  H   UNL     1      -0.544  11.476  20.380  0.00  0.00    +0.000 HD
BRANCH  18  21
ATOM     21  C   UNL     1      -1.157  11.947  22.792  0.00  0.00    +0.000 A 
ATOM     22  C   UNL     1      -2.404  11.650  23.354  0.00  0.00    +0.000 A 
ATOM     23  C   UNL     1      -3.256  12.674  23.767  0.00  0.00    +0.000 A 
ATOM     24  C   UNL     1      -2.865  14.009  23.605  0.00  0.00    +0.000 A 
ATOM     25  C   UNL     1      -1.611  14.307  23.044  0.00  0.00    +0.000 A 
ATOM     26  C   UNL     1      -0.756  13.276  22.637  0.00  0.00    +0.000 A 
BRANCH  24  27
ATOM     27  N   UNL     1      -3.733  15.061  23.981  0.00  0.00    +0.000 N 
ATOM     28  C   UNL     1      -3.604  15.977  24.993  0.00  0.00    +0.000 A 
ATOM     29  N   UNL     1      -4.652  16.768  24.998  0.00  0.00    +0.000 NA
ATOM     30  N   UNL     1      -5.447  16.338  23.970  0.00  0.00    +0.000 NA
ATOM     31  N   UNL     1      -4.897  15.310  23.340  0.00  0.00    +0.000 NA
ENDBRANCH  24  27
ENDBRANCH  18  21
ENDBRANCH   1  19
TORSDOF 4
ENDMDL
MODEL 4
REMARK VINA RESULT:      -8.6      2.381     11.569
REMARK  Name = 
REMARK  4 active torsions:
REMARK  status: ('A' for Active; 'I' for Inactive)
REMARK    1  A    between atoms: C_2  and  C_20
REMARK    2  A    between atoms: N_3  and  C_4
REMARK    3  A    between atoms: C_7  and  C_8
REMARK    4  A    between atoms: C_23  and  N_24
REMARK                            x       y       z     vdW  Elec       q    Type
REMARK                         _______ _______ _______ _____ _____    ______ ____
ROOT
ATOM      1  C   UNL     1       0.269   9.879  20.720  0.00  0.00    +0.000 A 
ATOM      2  C   UNL     1      -0.621  10.805  20.174  0.00  0.00    +0.000 A 
ATOM      3  C   UNL     1      -1.451  11.567  21.001  0.00  0.00    +0.000 A 
ATOM      4  C   UNL     1      -1.414  11.415  22.389  0.00  0.00    +0.000 A 
ATOM      5  C   UNL     1      -0.584  10.421  22.923  0.00  0.00    +0.000 A 
ATOM      6  C   UNL     1       0.262   9.670  22.100  0.00  0.00    +0.000 A 
ENDROOT
BRANCH   4   7
ATOM      7  C   UNL     1      -2.241  12.287  23.224  0.00  0.00    +0.000 A 
ATOM      8  N   UNL     1      -3.443  11.979  23.680  0.00  0.00    +0.000 NA
ATOM      9  N   UNL     1      -3.910  13.022  24.431  0.00  0.00    +0.000 NA
ATOM     10  C   UNL     1      -3.007  13.979  24.417  0.00  0.00    +0.000 A 
ATOM     11  N   UNL     1      -1.960  13.582  23.618  0.00  0.00    +0.000 N 
ATOM     12  C   UNL     1      -0.815  14.377  23.223  0.00  0.00    +0.000 C 
ATOM     13  C   UNL     1      -1.107  15.853  22.997  0.00  0.00    +0.000 C 
ATOM     14  C   UNL     1      -1.180  16.668  24.285  0.00  0.00    +0.000 C 
ATOM     15  C   UNL     1      -1.825  15.959  25.476  0.00  0.00    +0.000 C 
ATOM     16  C   UNL     1      -3.144  15.279  25.134  0.00  0.00    +0.000 C 
ENDBRANCH   4   7
BRANCH   1  19
ATOM     17  O   UNL     1       1.139   7.093  21.077  0.00  0.00    +0.000 OA
ATOM     18  C   UNL     1       1.563   7.830  20.194  0.00  0.00    +0.000 C 
ATOM     19  N   UNL     1       1.185   9.136  19.949  0.00  0.00    +0.000 N 
ATOM     20  H   UNL     1       1.472   9.546  19.071  0.00  0.00    +0.000 HD
BRANCH  18  21
ATOM     21  C   UNL     1       2.532   7.252  19.234  0.00  0.00    +0.000 A 
ATOM     22  C   UNL     1       3.155   6.048  19.586  0.00  0.00    +0.000 A 
ATOM     23  C   UNL     1       4.124   5.485  18.757  0.00  0.00    +0.000 A 
ATOM     24  C   UNL     1       4.485   6.136  17.570  0.00  0.00    +0.000 A 
ATOM     25  C   UNL     1       3.857   7.342  17.216  0.00  0.00    +0.000 A 
ATOM     26  C   UNL     1       2.880   7.901  18.047  0.00  0.00    +0.000 A 
BRANCH  24  27
ATOM     27  N   UNL     1       5.495   5.599  16.737  0.00  0.00    +0.000 N 
ATOM     28  C   UNL     1       5.637   4.325  16.249  0.00  0.00    +0.000 A 
ATOM     29  N   UNL     1       6.731   4.256  15.527  0.00  0.00    +0.000 NA
ATOM     30  N   UNL     1       7.280   5.510  15.564  0.00  0.00    +0.000 NA
ATOM     31  N   UNL     1       6.536   6.335  16.287  0.00  0.00    +0.000 NA
ENDBRANCH  24  27
ENDBRANCH  18  21
ENDBRANCH   1  19
TORSDOF 4
ENDMDL
MODEL 5
REMARK VINA RESULT:      -8.5      1.936      2.766
REMARK  Name = 
REMARK  4 active torsions:
REMARK  status: ('A' for Active; 'I' for Inactive)
REMARK    1  A    between atoms: C_2  and  C_20
REMARK    2  A    between atoms: N_3  and  C_4
REMARK    3  A    between atoms: C_7  and  C_8
REMARK    4  A    between atoms: C_23  and  N_24
REMARK                            x       y       z     vdW  Elec       q    Type
REMARK                         _______ _______ _______ _____ _____    ______ ____
ROOT
ATOM      1  C   UNL     1       1.234   9.044  19.809  0.00  0.00    +0.000 A 
ATOM      2  C   UNL     1       1.602   9.090  18.464  0.00  0.00    +0.000 A 
ATOM      3  C   UNL     1       2.228   7.997  17.859  0.00  0.00    +0.000 A 
ATOM      4  C   UNL     1       2.505   6.837  18.588  0.00  0.00    +0.000 A 
ATOM      5  C   UNL     1       2.215   6.832  19.958  0.00  0.00    +0.000 A 
ATOM      6  C   UNL     1       1.571   7.918  20.562  0.00  0.00    +0.000 A 
ENDROOT
BRANCH   4   7
ATOM      7  C   UNL     1       3.090   5.685  17.899  0.00  0.00    +0.000 A 
ATOM      8  N   UNL     1       2.525   4.495  17.805  0.00  0.00    +0.000 NA
ATOM      9  N   UNL     1       3.347   3.672  17.084  0.00  0.00    +0.000 NA
ATOM     10  C   UNL     1       4.426   4.351  16.756  0.00  0.00    +0.000 A 
ATOM     11  N   UNL     1       4.333   5.611  17.300  0.00  0.00    +0.000 N 
ATOM     12  C   UNL     1       5.354   6.640  17.294  0.00  0.00    +0.000 C 
ATOM     13  C   UNL     1       6.781   6.127  17.415  0.00  0.00    +0.000 C 
ATOM     14  C   UNL     1       7.358   5.601  16.104  0.00  0.00    +0.000 C 
ATOM     15  C   UNL     1       6.375   4.848  15.209  0.00  0.00    +0.000 C 
ATOM     16  C   UNL     1       5.556   3.802  15.954  0.00  0.00    +0.000 C 
ENDBRANCH   4   7
BRANCH   1  19
ATOM     17  O   UNL     1      -1.330  10.277  19.064  0.00  0.00    +0.000 OA
ATOM     18  C   UNL     1      -0.663  10.625  20.032  0.00  0.00    +0.000 C 
ATOM     19  N   UNL     1       0.532  10.079  20.458  0.00  0.00    +0.000 N 
ATOM     20  H   UNL     1       0.859  10.336  21.379  0.00  0.00    +0.000 HD
BRANCH  18  21
ATOM     21  C   UNL     1      -1.221  11.696  20.890  0.00  0.00    +0.000 A 
ATOM     22  C   UNL     1      -0.723  11.810  22.193  0.00  0.00    +0.000 A 
ATOM     23  C   UNL     1      -1.251  12.756  23.072  0.00  0.00    +0.000 A 
ATOM     24  C   UNL     1      -2.296  13.587  22.650  0.00  0.00    +0.000 A 
ATOM     25  C   UNL     1      -2.793  13.475  21.339  0.00  0.00    +0.000 A 
ATOM     26  C   UNL     1      -2.256  12.530  20.458  0.00  0.00    +0.000 A 
BRANCH  24  27
ATOM     27  N   UNL     1      -2.871  14.524  23.540  0.00  0.00    +0.000 N 
ATOM     28  C   UNL     1      -4.023  15.257  23.410  0.00  0.00    +0.000 A 
ATOM     29  N   UNL     1      -4.174  16.020  24.468  0.00  0.00    +0.000 NA
ATOM     30  N   UNL     1      -3.097  15.757  25.272  0.00  0.00    +0.000 NA
ATOM     31  N   UNL     1      -2.305  14.846  24.726  0.00  0.00    +0.000 NA
ENDBRANCH  24  27
ENDBRANCH  18  21
ENDBRANCH   1  19
TORSDOF 4
ENDMDL
MODEL 6
REMARK VINA RESULT:      -8.5      1.377      1.795
REMARK  Name = 
REMARK  4 active torsions:
REMARK  status: ('A' for Active; 'I' for Inactive)
REMARK    1  A    between atoms: C_2  and  C_20
REMARK    2  A    between atoms: N_3  and  C_4
REMARK    3  A    between atoms: C_7  and  C_8
REMARK    4  A    between atoms: C_23  and  N_24
REMARK                            x       y       z     vdW  Elec       q    Type
REMARK                         _______ _______ _______ _____ _____    ______ ____
ROOT
ATOM      1  C   UNL     1       0.611   9.685  20.228  0.00  0.00    +0.000 A 
ATOM      2  C   UNL     1       1.140   8.558  20.859  0.00  0.00    +0.000 A 
ATOM      3  C   UNL     1       1.931   7.651  20.150  0.00  0.00    +0.000 A 
ATOM      4  C   UNL     1       2.206   7.847  18.794  0.00  0.00    +0.000 A 
ATOM      5  C   UNL     1       1.599   8.931  18.146  0.00  0.00    +0.000 A 
ATOM      6  C   UNL     1       0.822   9.851  18.858  0.00  0.00    +0.000 A 
ENDROOT
BRANCH   4   7
ATOM      7  C   UNL     1       3.103   6.916  18.106  0.00  0.00    +0.000 A 
ATOM      8  N   UNL     1       4.153   7.272  17.387  0.00  0.00    +0.000 NA
ATOM      9  N   UNL     1       4.761   6.144  16.908  0.00  0.00    +0.000 NA
ATOM     10  C   UNL     1       4.072   5.099  17.313  0.00  0.00    +0.000 A 
ATOM     11  N   UNL     1       2.981   5.542  18.025  0.00  0.00    +0.000 N 
ATOM     12  C   UNL     1       1.893   4.738  18.543  0.00  0.00    +0.000 C 
ATOM     13  C   UNL     1       1.495   3.559  17.666  0.00  0.00    +0.000 C 
ATOM     14  C   UNL     1       2.410   2.347  17.815  0.00  0.00    +0.000 C 
ATOM     15  C   UNL     1       3.894   2.663  18.001  0.00  0.00    +0.000 C 
ATOM     16  C   UNL     1       4.426   3.684  17.004  0.00  0.00    +0.000 C 
ENDBRANCH   4   7
BRANCH   1  19
ATOM     17  O   UNL     1       1.537  12.266  21.291  0.00  0.00    +0.000 OA
ATOM     18  C   UNL     1       0.384  11.861  21.395  0.00  0.00    +0.000 C 
ATOM     19  N   UNL     1      -0.128  10.676  20.902  0.00  0.00    +0.000 N 
ATOM     20  H   UNL     1      -1.134  10.573  20.892  0.00  0.00    +0.000 HD
BRANCH  18  21
ATOM     21  C   UNL     1      -0.593  12.757  22.055  0.00  0.00    +0.000 A 
ATOM     22  C   UNL     1      -1.632  12.163  22.781  0.00  0.00    +0.000 A 
ATOM     23  C   UNL     1      -2.621  12.949  23.372  0.00  0.00    +0.000 A 
ATOM     24  C   UNL     1      -2.580  14.341  23.226  0.00  0.00    +0.000 A 
ATOM     25  C   UNL     1      -1.534  14.938  22.500  0.00  0.00    +0.000 A 
ATOM     26  C   UNL     1      -0.540  14.146  21.915  0.00  0.00    +0.000 A 
BRANCH  24  27
ATOM     27  N   UNL     1      -3.597  15.151  23.785  0.00  0.00    +0.000 N 
ATOM     28  C   UNL     1      -4.927  15.231  23.457  0.00  0.00    +0.000 A 
ATOM     29  N   UNL     1      -5.508  16.128  24.218  0.00  0.00    +0.000 NA
ATOM     30  N   UNL     1      -4.525  16.614  25.037  0.00  0.00    +0.000 NA
ATOM     31  N   UNL     1      -3.364  16.024  24.791  0.00  0.00    +0.000 NA
ENDBRANCH  24  27
ENDBRANCH  18  21
ENDBRANCH   1  19
TORSDOF 4
ENDMDL
MODEL 7
REMARK VINA RESULT:      -8.3      1.398      1.908
REMARK  Name = 
REMARK  4 active torsions:
REMARK  status: ('A' for Active; 'I' for Inactive)
REMARK    1  A    between atoms: C_2  and  C_20
REMARK    2  A    between atoms: N_3  and  C_4
REMARK    3  A    between atoms: C_7  and  C_8
REMARK    4  A    between atoms: C_23  and  N_24
REMARK                            x       y       z     vdW  Elec       q    Type
REMARK                         _______ _______ _______ _____ _____    ______ ____
ROOT
ATOM      1  C   UNL     1       0.488   9.685  20.171  0.00  0.00    +0.000 A 
ATOM      2  C   UNL     1       1.059   8.588  20.819  0.00  0.00    +0.000 A 
ATOM      3  C   UNL     1       1.890   7.705  20.125  0.00  0.00    +0.000 A 
ATOM      4  C   UNL     1       2.163   7.894  18.768  0.00  0.00    +0.000 A 
ATOM      5  C   UNL     1       1.515   8.944  18.104  0.00  0.00    +0.000 A 
ATOM      6  C   UNL     1       0.698   9.841  18.800  0.00  0.00    +0.000 A 
ENDROOT
BRANCH   4   7
ATOM      7  C   UNL     1       3.101   6.992  18.097  0.00  0.00    +0.000 A 
ATOM      8  N   UNL     1       4.164   7.380  17.415  0.00  0.00    +0.000 NA
ATOM      9  N   UNL     1       4.811   6.271  16.940  0.00  0.00    +0.000 NA
ATOM     10  C   UNL     1       4.132   5.207  17.310  0.00  0.00    +0.000 A 
ATOM     11  N   UNL     1       3.011   5.617  17.994  0.00  0.00    +0.000 N 
ATOM     12  C   UNL     1       1.924   4.783  18.468  0.00  0.00    +0.000 C 
ATOM     13  C   UNL     1       1.579   3.608  17.565  0.00  0.00    +0.000 C 
ATOM     14  C   UNL     1       2.515   2.413  17.726  0.00  0.00    +0.000 C 
ATOM     15  C   UNL     1       3.986   2.759  17.962  0.00  0.00    +0.000 C 
ATOM     16  C   UNL     1       4.526   3.804  16.995  0.00  0.00    +0.000 C 
ENDBRANCH   4   7
BRANCH   1  19
ATOM     17  O   UNL     1       1.317  12.287  21.260  0.00  0.00    +0.000 OA
ATOM     18  C   UNL     1       0.173  11.851  21.336  0.00  0.00    +0.000 C 
ATOM     19  N   UNL     1      -0.295  10.654  20.829  0.00  0.00    +0.000 N 
ATOM     20  H   UNL     1      -1.296  10.523  20.794  0.00  0.00    +0.000 HD
BRANCH  18  21
ATOM     21  C   UNL     1      -0.844  12.719  21.974  0.00  0.00    +0.000 A 
ATOM     22  C   UNL     1      -0.840  14.077  21.638  0.00  0.00    +0.000 A 
ATOM     23  C   UNL     1      -1.729  14.960  22.251  0.00  0.00    +0.000 A 
ATOM     24  C   UNL     1      -2.622  14.484  23.219  0.00  0.00    +0.000 A 
ATOM     25  C   UNL     1      -2.628  13.118  23.554  0.00  0.00    +0.000 A 
ATOM     26  C   UNL     1      -1.739  12.234  22.931  0.00  0.00    +0.000 A 
BRANCH  24  27
ATOM     27  N   UNL     1      -3.503  15.371  23.881  0.00  0.00    +0.000 N 
ATOM     28  C   UNL     1      -3.247  16.260  24.894  0.00  0.00    +0.000 A 
ATOM     29  N   UNL     1      -4.359  16.875  25.223  0.00  0.00    +0.000 NA
ATOM     30  N   UNL     1      -5.325  16.362  24.400  0.00  0.00    +0.000 NA
ATOM     31  N   UNL     1      -4.817  15.456  23.575  0.00  0.00    +0.000 NA
ENDBRANCH  24  27
ENDBRANCH  18  21
ENDBRANCH   1  19
TORSDOF 4
ENDMDL
MODEL 8
REMARK VINA RESULT:      -8.3      2.083      2.981
REMARK  Name = 
REMARK  4 active torsions:
REMARK  status: ('A' for Active; 'I' for Inactive)
REMARK    1  A    between atoms: C_2  and  C_20
REMARK    2  A    between atoms: N_3  and  C_4
REMARK    3  A    between atoms: C_7  and  C_8
REMARK    4  A    between atoms: C_23  and  N_24
REMARK                            x       y       z     vdW  Elec       q    Type
REMARK                         _______ _______ _______ _____ _____    ______ ____
ROOT
ATOM      1  C   UNL     1       1.236   8.979  19.912  0.00  0.00    +0.000 A 
ATOM      2  C   UNL     1       1.598   9.045  18.565  0.00  0.00    +0.000 A 
ATOM      3  C   UNL     1       2.221   7.961  17.942  0.00  0.00    +0.000 A 
ATOM      4  C   UNL     1       2.503   6.791  18.652  0.00  0.00    +0.000 A 
ATOM      5  C   UNL     1       2.219   6.765  20.023  0.00  0.00    +0.000 A 
ATOM      6  C   UNL     1       1.577   7.842  20.646  0.00  0.00    +0.000 A 
ENDROOT
BRANCH   4   7
ATOM      7  C   UNL     1       3.085   5.650  17.943  0.00  0.00    +0.000 A 
ATOM      8  N   UNL     1       2.525   4.457  17.843  0.00  0.00    +0.000 NA
ATOM      9  N   UNL     1       3.341   3.647  17.103  0.00  0.00    +0.000 NA
ATOM     10  C   UNL     1       4.413   4.334  16.770  0.00  0.00    +0.000 A 
ATOM     11  N   UNL     1       4.321   5.588  17.329  0.00  0.00    +0.000 N 
ATOM     12  C   UNL     1       5.336   6.623  17.322  0.00  0.00    +0.000 C 
ATOM     13  C   UNL     1       6.768   6.115  17.421  0.00  0.00    +0.000 C 
ATOM     14  C   UNL     1       7.332   5.606  16.097  0.00  0.00    +0.000 C 
ATOM     15  C   UNL     1       6.341   4.858  15.205  0.00  0.00    +0.000 C 
ATOM     16  C   UNL     1       5.536   3.800  15.948  0.00  0.00    +0.000 C 
ENDBRANCH   4   7
BRANCH   1  19
ATOM     17  O   UNL     1      -1.309  10.253  19.171  0.00  0.00    +0.000 OA
ATOM     18  C   UNL     1      -0.649  10.571  20.155  0.00  0.00    +0.000 C 
ATOM     19  N   UNL     1       0.537  10.004  20.579  0.00  0.00    +0.000 N 
ATOM     20  H   UNL     1       0.857  10.235  21.509  0.00  0.00    +0.000 HD
BRANCH  18  21
ATOM     21  C   UNL     1      -1.206  11.626  21.033  0.00  0.00    +0.000 A 
ATOM     22  C   UNL     1      -2.208  12.448  20.505  0.00  0.00    +0.000 A 
ATOM     23  C   UNL     1      -2.729  13.500  21.257  0.00  0.00    +0.000 A 
ATOM     24  C   UNL     1      -2.235  13.744  22.545  0.00  0.00    +0.000 A 
ATOM     25  C   UNL     1      -1.231  12.915  23.077  0.00  0.00    +0.000 A 
ATOM     26  C   UNL     1      -0.716  11.855  22.322  0.00  0.00    +0.000 A 
BRANCH  24  27
ATOM     27  N   UNL     1      -2.723  14.831  23.307  0.00  0.00    +0.000 N 
ATOM     28  C   UNL     1      -3.051  14.886  24.638  0.00  0.00    +0.000 A 
ATOM     29  N   UNL     1      -3.481  16.091  24.929  0.00  0.00    +0.000 NA
ATOM     30  N   UNL     1      -3.418  16.801  23.760  0.00  0.00    +0.000 NA
ATOM     31  N   UNL     1      -2.952  16.052  22.772  0.00  0.00    +0.000 NA
ENDBRANCH  24  27
ENDBRANCH  18  21
ENDBRANCH   1  19
TORSDOF 4
ENDMDL
MODEL 9
REMARK VINA RESULT:      -8.2      2.471      3.395
REMARK  Name = 
REMARK  4 active torsions:
REMARK  status: ('A' for Active; 'I' for Inactive)
REMARK    1  A    between atoms: C_2  and  C_20
REMARK    2  A    between atoms: N_3  and  C_4
REMARK    3  A    between atoms: C_7  and  C_8
REMARK    4  A    between atoms: C_23  and  N_24
REMARK                            x       y       z     vdW  Elec       q    Type
REMARK                         _______ _______ _______ _____ _____    ______ ____
ROOT
ATOM      1  C   UNL     1       1.383   8.764  20.162  0.00  0.00    +0.000 A 
ATOM      2  C   UNL     1       1.524   7.498  20.734  0.00  0.00    +0.000 A 
ATOM      3  C   UNL     1       2.034   6.433  19.988  0.00  0.00    +0.000 A 
ATOM      4  C   UNL     1       2.407   6.607  18.652  0.00  0.00    +0.000 A 
ATOM      5  C   UNL     1       2.178   7.855  18.059  0.00  0.00    +0.000 A 
ATOM      6  C   UNL     1       1.685   8.929  18.809  0.00  0.00    +0.000 A 
ENDROOT
BRANCH   4   7
ATOM      7  C   UNL     1       3.010   5.486  17.928  0.00  0.00    +0.000 A 
ATOM      8  N   UNL     1       2.463   4.291  17.796  0.00  0.00    +0.000 NA
ATOM      9  N   UNL     1       3.298   3.504  17.051  0.00  0.00    +0.000 NA
ATOM     10  C   UNL     1       4.368   4.208  16.749  0.00  0.00    +0.000 A 
ATOM     11  N   UNL     1       4.256   5.449  17.332  0.00  0.00    +0.000 N 
ATOM     12  C   UNL     1       5.261   6.492  17.362  0.00  0.00    +0.000 C 
ATOM     13  C   UNL     1       6.696   5.995  17.472  0.00  0.00    +0.000 C 
ATOM     14  C   UNL     1       7.284   5.520  16.147  0.00  0.00    +0.000 C 
ATOM     15  C   UNL     1       6.314   4.782  15.224  0.00  0.00    +0.000 C 
ATOM     16  C   UNL     1       5.508   3.701  15.933  0.00  0.00    +0.000 C 
ENDBRANCH   4   7
BRANCH   1  19
ATOM     17  O   UNL     1      -0.971  10.459  19.675  0.00  0.00    +0.000 OA
ATOM     18  C   UNL     1      -0.162  10.659  20.575  0.00  0.00    +0.000 C 
ATOM     19  N   UNL     1       0.949   9.896  20.879  0.00  0.00    +0.000 N 
ATOM     20  H   UNL     1       1.404  10.069  21.765  0.00  0.00    +0.000 HD
BRANCH  18  21
ATOM     21  C   UNL     1      -0.428  11.796  21.487  0.00  0.00    +0.000 A 
ATOM     22  C   UNL     1      -1.401  11.619  22.478  0.00  0.00    +0.000 A 
ATOM     23  C   UNL     1      -1.745  12.671  23.326  0.00  0.00    +0.000 A 
ATOM     24  C   UNL     1      -1.122  13.916  23.176  0.00  0.00    +0.000 A 
ATOM     25  C   UNL     1      -0.142  14.092  22.182  0.00  0.00    +0.000 A 
ATOM     26  C   UNL     1       0.206  13.032  21.337  0.00  0.00    +0.000 A 
BRANCH  24  27
ATOM     27  N   UNL     1      -1.487  15.005  24.001  0.00  0.00    +0.000 N 
ATOM     28  C   UNL     1      -2.463  15.951  23.815  0.00  0.00    +0.000 A 
ATOM     29  N   UNL     1      -2.449  16.793  24.821  0.00  0.00    +0.000 NA
ATOM     30  N   UNL     1      -1.449  16.363  25.651  0.00  0.00    +0.000 NA
ATOM     31  N   UNL     1      -0.864  15.275  25.170  0.00  0.00    +0.000 NA
ENDBRANCH  24  27
ENDBRANCH  18  21
ENDBRANCH   1  19
TORSDOF 4
ENDMDL
