MODEL 1
REMARK VINA RESULT:      -9.2      0.000      0.000
REMARK  Name = 
REMARK  7 active torsions:
REMARK  status: ('A' for Active; 'I' for Inactive)
REMARK    1  A    between atoms: C_1  and  C_2
REMARK    2  A    between atoms: C_2  and  C_3
REMARK    3  A    between atoms: C_3  and  N_4
REMARK    4  A    between atoms: C_8  and  C_9
REMARK    5  A    between atoms: C_9  and  C_10
REMARK    6  A    between atoms: C_14  and  N_15
REMARK    7  A    between atoms: C_22  and  C_23
REMARK                            x       y       z     vdW  Elec       q    Type
REMARK                         _______ _______ _______ _____ _____    ______ ____
ROOT
ATOM      1  C   UNL     1       6.260   4.423  16.669  0.00  0.00    +0.000 A 
ATOM      2  C   UNL     1       7.457   4.986  17.138  0.00  0.00    +0.000 A 
ATOM      3  C   UNL     1       7.560   5.377  18.467  0.00  0.00    +0.000 A 
ATOM      4  C   UNL     1       6.440   5.333  19.278  0.00  0.00    +0.000 A 
ATOM      5  C   UNL     1       5.173   5.187  18.684  0.00  0.00    +0.000 A 
ATOM      6  C   UNL     1       5.095   4.565  17.433  0.00  0.00    +0.000 A 
ENDROOT
BRANCH   5   7
ATOM      7  N   UNL     1       4.119   6.118  19.084  0.00  0.00    +0.000 N 
ATOM      8  C   UNL     1       3.456   5.628  20.319  0.00  0.00    +0.000 C 
ATOM      9  C   UNL     1       2.381   4.737  19.765  0.00  0.00    +0.000 A 
ATOM     10  C   UNL     1       2.046   5.234  18.500  0.00  0.00    +0.000 A 
ATOM     11  C   UNL     1       1.229   4.549  17.617  0.00  0.00    +0.000 A 
ATOM     12  C   UNL     1       0.724   3.318  18.033  0.00  0.00    +0.000 A 
ATOM     13  C   UNL     1       1.059   2.801  19.298  0.00  0.00    +0.000 A 
ATOM     14  C   UNL     1       1.904   3.498  20.188  0.00  0.00    +0.000 A 
ATOM     15  C   UNL     1       3.059   6.257  18.142  0.00  0.00    +0.000 C 
ATOM     16  O   UNL     1       3.052   6.892  17.098  0.00  0.00    +0.000 OA
BRANCH  14  17
ATOM     17  C   UNL     1       2.336   2.825  21.467  0.00  0.00    +0.000 C 
ATOM     18  F   UNL     1       1.498   1.848  21.896  0.00  0.00    +0.000 F 
ATOM     19  F   UNL     1       3.560   2.240  21.351  0.00  0.00    +0.000 F 
ATOM     20  F   UNL     1       2.441   3.708  22.501  0.00  0.00    +0.000 F 
ENDBRANCH  14  17
ENDBRANCH   5   7
BRANCH   1  21
ATOM     21  C   UNL     1       6.278   3.674  15.368  0.00  0.00    +0.000 C 
BRANCH  21  26
ATOM     22  N   UNL     1       6.828   4.118  12.852  0.00  0.00    +0.000 N 
ATOM     23  C   UNL     1       7.643   5.038  12.251  0.00  0.00    +0.000 A 
ATOM     24  N   UNL     1       8.232   5.777  13.154  0.00  0.00    +0.000 NA
ATOM     25  N   UNL     1       7.783   5.362  14.377  0.00  0.00    +0.000 NA
ATOM     26  C   UNL     1       6.922   4.372  14.207  0.00  0.00    +0.000 A 
BRANCH  22  27
ATOM     27  C   UNL     1       6.045   3.165  12.097  0.00  0.00    +0.000 C 
BRANCH  27  29
ATOM     28  C   UNL     1       3.851   3.264  10.806  0.00  0.00    +0.000 C 
ATOM     29  C   UNL     1       4.531   3.374  12.165  0.00  0.00    +0.000 C 
ENDBRANCH  27  29
ENDBRANCH  22  27
ENDBRANCH  21  26
ENDBRANCH   1  21
TORSDOF 6
ENDMDL
MODEL 2
REMARK VINA RESULT:      -8.9      0.574      1.089
REMARK  Name = 
REMARK  7 active torsions:
REMARK  status: ('A' for Active; 'I' for Inactive)
REMARK    1  A    between atoms: C_1  and  C_2
REMARK    2  A    between atoms: C_2  and  C_3
REMARK    3  A    between atoms: C_3  and  N_4
REMARK    4  A    between atoms: C_8  and  C_9
REMARK    5  A    between atoms: C_9  and  C_10
REMARK    6  A    between atoms: C_14  and  N_15
REMARK    7  A    between atoms: C_22  and  C_23
REMARK                            x       y       z     vdW  Elec       q    Type
REMARK                         _______ _______ _______ _____ _____    ______ ____
ROOT
ATOM      1  C   UNL     1       6.316   4.395  16.692  0.00  0.00    +0.000 A 
ATOM      2  C   UNL     1       7.516   4.960  17.151  0.00  0.00    +0.000 A 
ATOM      3  C   UNL     1       7.621   5.372  18.473  0.00  0.00    +0.000 A 
ATOM      4  C   UNL     1       6.502   5.347  19.287  0.00  0.00    +0.000 A 
ATOM      5  C   UNL     1       5.234   5.197  18.697  0.00  0.00    +0.000 A 
ATOM      6  C   UNL     1       5.151   4.555  17.456  0.00  0.00    +0.000 A 
ENDROOT
BRANCH   5   7
ATOM      7  N   UNL     1       4.184   6.139  19.082  0.00  0.00    +0.000 N 
ATOM      8  C   UNL     1       3.497   5.653  20.305  0.00  0.00    +0.000 C 
ATOM      9  C   UNL     1       2.421   4.775  19.733  0.00  0.00    +0.000 A 
ATOM     10  C   UNL     1       2.111   5.278  18.465  0.00  0.00    +0.000 A 
ATOM     11  C   UNL     1       1.300   4.605  17.567  0.00  0.00    +0.000 A 
ATOM     12  C   UNL     1       0.775   3.379  17.972  0.00  0.00    +0.000 A 
ATOM     13  C   UNL     1       1.085   2.855  19.241  0.00  0.00    +0.000 A 
ATOM     14  C   UNL     1       1.923   3.541  20.146  0.00  0.00    +0.000 A 
ATOM     15  C   UNL     1       3.140   6.291  18.124  0.00  0.00    +0.000 C 
ATOM     16  O   UNL     1       3.157   6.929  17.082  0.00  0.00    +0.000 OA
BRANCH  14  17
ATOM     17  C   UNL     1       2.328   2.861  21.430  0.00  0.00    +0.000 C 
ATOM     18  F   UNL     1       3.552   2.277  21.391  0.00  0.00    +0.000 F 
ATOM     19  F   UNL     1       2.364   3.726  22.481  0.00  0.00    +0.000 F 
ATOM     20  F   UNL     1       1.455   1.877  21.787  0.00  0.00    +0.000 F 
ENDBRANCH  14  17
ENDBRANCH   5   7
BRANCH   1  21
ATOM     21  C   UNL     1       6.329   3.625  15.404  0.00  0.00    +0.000 C 
BRANCH  21  26
ATOM     22  N   UNL     1       6.789   4.048  12.866  0.00  0.00    +0.000 N 
ATOM     23  C   UNL     1       7.546   4.991  12.227  0.00  0.00    +0.000 A 
ATOM     24  N   UNL     1       8.129   5.769  13.101  0.00  0.00    +0.000 NA
ATOM     25  N   UNL     1       7.732   5.357  14.343  0.00  0.00    +0.000 NA
ATOM     26  C   UNL     1       6.910   4.329  14.214  0.00  0.00    +0.000 A 
BRANCH  22  27
ATOM     27  C   UNL     1       6.025   3.050  12.150  0.00  0.00    +0.000 C 
BRANCH  27  29
ATOM     28  C   UNL     1       6.212   0.742  11.090  0.00  0.00    +0.000 C 
ATOM     29  C   UNL     1       6.853   2.111  11.269  0.00  0.00    +0.000 C 
ENDBRANCH  27  29
ENDBRANCH  22  27
ENDBRANCH  21  26
ENDBRANCH   1  21
TORSDOF 6
ENDMDL
MODEL 3
REMARK VINA RESULT:      -8.7      8.674     12.076
REMARK  Name = 
REMARK  7 active torsions:
REMARK  status: ('A' for Active; 'I' for Inactive)
REMARK    1  A    between atoms: C_1  and  C_2
REMARK    2  A    between atoms: C_2  and  C_3
REMARK    3  A    between atoms: C_3  and  N_4
REMARK    4  A    between atoms: C_8  and  C_9
REMARK    5  A    between atoms: C_9  and  C_10
REMARK    6  A    between atoms: C_14  and  N_15
REMARK    7  A    between atoms: C_22  and  C_23
REMARK                            x       y       z     vdW  Elec       q    Type
REMARK                         _______ _______ _______ _____ _____    ______ ____
ROOT
ATOM      1  C   UNL     1      -4.650  11.456  17.691  0.00  0.00    +0.000 A 
ATOM      2  C   UNL     1      -4.124  11.102  16.439  0.00  0.00    +0.000 A 
ATOM      3  C   UNL     1      -2.829  10.609  16.351  0.00  0.00    +0.000 A 
ATOM      4  C   UNL     1      -2.025  10.598  17.477  0.00  0.00    +0.000 A 
ATOM      5  C   UNL     1      -2.416  11.349  18.600  0.00  0.00    +0.000 A 
ATOM      6  C   UNL     1      -3.777  11.623  18.775  0.00  0.00    +0.000 A 
ENDROOT
BRANCH   5   7
ATOM      7  N   UNL     1      -1.427  12.242  19.204  0.00  0.00    +0.000 N 
ATOM      8  C   UNL     1      -0.062  11.850  18.767  0.00  0.00    +0.000 C 
ATOM      9  C   UNL     1       0.315  10.827  19.798  0.00  0.00    +0.000 A 
ATOM     10  C   UNL     1      -0.377  11.149  20.971  0.00  0.00    +0.000 A 
ATOM     11  C   UNL     1      -0.422  10.310  22.071  0.00  0.00    +0.000 A 
ATOM     12  C   UNL     1       0.268   9.102  21.985  0.00  0.00    +0.000 A 
ATOM     13  C   UNL     1       0.962   8.760  20.810  0.00  0.00    +0.000 A 
ATOM     14  C   UNL     1       0.992   9.614  19.687  0.00  0.00    +0.000 A 
ATOM     15  C   UNL     1      -1.372  12.194  20.626  0.00  0.00    +0.000 C 
ATOM     16  O   UNL     1      -2.138  12.704  21.431  0.00  0.00    +0.000 OA
BRANCH  14  17
ATOM     17  C   UNL     1       1.633   9.126  18.411  0.00  0.00    +0.000 C 
ATOM     18  F   UNL     1       0.753   8.819  17.425  0.00  0.00    +0.000 F 
ATOM     19  F   UNL     1       2.481  10.047  17.877  0.00  0.00    +0.000 F 
ATOM     20  F   UNL     1       2.379   8.002  18.609  0.00  0.00    +0.000 F 
ENDBRANCH  14  17
ENDBRANCH   5   7
BRANCH   1  21
ATOM     21  C   UNL     1      -6.136  11.625  17.827  0.00  0.00    +0.000 C 
BRANCH  21  26
ATOM     22  N   UNL     1      -7.401  11.372  20.100  0.00  0.00    +0.000 N 
ATOM     23  C   UNL     1      -7.794  10.266  20.801  0.00  0.00    +0.000 A 
ATOM     24  N   UNL     1      -7.420   9.180  20.176  0.00  0.00    +0.000 NA
ATOM     25  N   UNL     1      -6.791   9.568  19.025  0.00  0.00    +0.000 NA
ATOM     26  C   UNL     1      -6.788  10.889  18.960  0.00  0.00    +0.000 A 
BRANCH  22  27
ATOM     27  C   UNL     1      -7.683  12.718  20.552  0.00  0.00    +0.000 C 
BRANCH  27  29
ATOM     28  C   UNL     1      -5.530  13.017  21.879  0.00  0.00    +0.000 C 
ATOM     29  C   UNL     1      -7.050  13.094  21.894  0.00  0.00    +0.000 C 
ENDBRANCH  27  29
ENDBRANCH  22  27
ENDBRANCH  21  26
ENDBRANCH   1  21
TORSDOF 6
ENDMDL
MODEL 4
REMARK VINA RESULT:      -8.6      4.696      7.612
REMARK  Name = 
REMARK  7 active torsions:
REMARK  status: ('A' for Active; 'I' for Inactive)
REMARK    1  A    between atoms: C_1  and  C_2
REMARK    2  A    between atoms: C_2  and  C_3
REMARK    3  A    between atoms: C_3  and  N_4
REMARK    4  A    between atoms: C_8  and  C_9
REMARK    5  A    between atoms: C_9  and  C_10
REMARK    6  A    between atoms: C_14  and  N_15
REMARK    7  A    between atoms: C_22  and  C_23
REMARK                            x       y       z     vdW  Elec       q    Type
REMARK                         _______ _______ _______ _____ _____    ______ ____
ROOT
ATOM      1  C   UNL     1       1.266   8.880  19.681  0.00  0.00    +0.000 A 
ATOM      2  C   UNL     1       1.956   9.320  18.541  0.00  0.00    +0.000 A 
ATOM      3  C   UNL     1       2.590   8.396  17.720  0.00  0.00    +0.000 A 
ATOM      4  C   UNL     1       2.651   7.069  18.108  0.00  0.00    +0.000 A 
ATOM      5  C   UNL     1       2.344   6.733  19.439  0.00  0.00    +0.000 A 
ATOM      6  C   UNL     1       1.498   7.584  20.160  0.00  0.00    +0.000 A 
ENDROOT
BRANCH   5   7
ATOM      7  N   UNL     1       3.287   5.885  20.165  0.00  0.00    +0.000 N 
ATOM      8  C   UNL     1       4.454   5.574  19.300  0.00  0.00    +0.000 C 
ATOM      9  C   UNL     1       3.990   4.342  18.578  0.00  0.00    +0.000 A 
ATOM     10  C   UNL     1       3.083   3.689  19.420  0.00  0.00    +0.000 A 
ATOM     11  C   UNL     1       2.307   2.621  19.003  0.00  0.00    +0.000 A 
ATOM     12  C   UNL     1       2.461   2.192  17.686  0.00  0.00    +0.000 A 
ATOM     13  C   UNL     1       3.362   2.844  16.824  0.00  0.00    +0.000 A 
ATOM     14  C   UNL     1       4.140   3.941  17.253  0.00  0.00    +0.000 A 
ATOM     15  C   UNL     1       2.774   4.610  20.541  0.00  0.00    +0.000 C 
ATOM     16  O   UNL     1       2.016   4.340  21.461  0.00  0.00    +0.000 OA
BRANCH  14  17
ATOM     17  C   UNL     1       4.980   4.683  16.242  0.00  0.00    +0.000 C 
ATOM     18  F   UNL     1       4.631   5.983  16.072  0.00  0.00    +0.000 F 
ATOM     19  F   UNL     1       6.299   4.694  16.579  0.00  0.00    +0.000 F 
ATOM     20  F   UNL     1       4.915   4.115  15.004  0.00  0.00    +0.000 F 
ENDBRANCH  14  17
ENDBRANCH   5   7
BRANCH   1  21
ATOM     21  C   UNL     1       0.290   9.813  20.337  0.00  0.00    +0.000 C 
BRANCH  21  26
ATOM     22  N   UNL     1      -1.171  10.967  18.503  0.00  0.00    +0.000 N 
ATOM     23  C   UNL     1      -1.209  12.257  18.053  0.00  0.00    +0.000 A 
ATOM     24  N   UNL     1      -0.317  12.980  18.679  0.00  0.00    +0.000 NA
ATOM     25  N   UNL     1       0.307  12.164  19.582  0.00  0.00    +0.000 NA
ATOM     26  C   UNL     1      -0.211  10.950  19.497  0.00  0.00    +0.000 A 
BRANCH  22  27
ATOM     27  C   UNL     1      -2.052   9.940  17.989  0.00  0.00    +0.000 C 
BRANCH  27  29
ATOM     28  C   UNL     1      -2.846   9.886  15.570  0.00  0.00    +0.000 C 
ATOM     29  C   UNL     1      -3.088  10.425  16.974  0.00  0.00    +0.000 C 
ENDBRANCH  27  29
ENDBRANCH  22  27
ENDBRANCH  21  26
ENDBRANCH   1  21
TORSDOF 6
ENDMDL
MODEL 5
REMARK VINA RESULT:      -8.5      4.602      7.756
REMARK  Name = 
REMARK  7 active torsions:
REMARK  status: ('A' for Active; 'I' for Inactive)
REMARK    1  A    between atoms: C_1  and  C_2
REMARK    2  A    between atoms: C_2  and  C_3
REMARK    3  A    between atoms: C_3  and  N_4
REMARK    4  A    between atoms: C_8  and  C_9
REMARK    5  A    between atoms: C_9  and  C_10
REMARK    6  A    between atoms: C_14  and  N_15
REMARK    7  A    between atoms: C_22  and  C_23
REMARK                            x       y       z     vdW  Elec       q    Type
REMARK                         _______ _______ _______ _____ _____    ______ ____
ROOT
ATOM      1  C   UNL     1       1.219   8.683  19.896  0.00  0.00    +0.000 A 
ATOM      2  C   UNL     1       1.901   9.194  18.781  0.00  0.00    +0.000 A 
ATOM      3  C   UNL     1       2.562   8.325  17.922  0.00  0.00    +0.000 A 
ATOM      4  C   UNL     1       2.655   6.983  18.248  0.00  0.00    +0.000 A 
ATOM      5  C   UNL     1       2.353   6.578  19.560  0.00  0.00    +0.000 A 
ATOM      6  C   UNL     1       1.483   7.372  20.316  0.00  0.00    +0.000 A 
ENDROOT
BRANCH   5   7
ATOM      7  N   UNL     1       3.316   5.722  20.251  0.00  0.00    +0.000 N 
ATOM      8  C   UNL     1       4.477   5.453  19.364  0.00  0.00    +0.000 C 
ATOM      9  C   UNL     1       4.022   4.237  18.610  0.00  0.00    +0.000 A 
ATOM     10  C   UNL     1       3.133   3.546  19.442  0.00  0.00    +0.000 A 
ATOM     11  C   UNL     1       2.367   2.481  19.001  0.00  0.00    +0.000 A 
ATOM     12  C   UNL     1       2.512   2.093  17.670  0.00  0.00    +0.000 A 
ATOM     13  C   UNL     1       3.395   2.784  16.819  0.00  0.00    +0.000 A 
ATOM     14  C   UNL     1       4.163   3.878  17.272  0.00  0.00    +0.000 A 
ATOM     15  C   UNL     1       2.824   4.429  20.594  0.00  0.00    +0.000 C 
ATOM     16  O   UNL     1       2.080   4.122  21.513  0.00  0.00    +0.000 OA
BRANCH  14  17
ATOM     17  C   UNL     1       4.981   4.661  16.275  0.00  0.00    +0.000 C 
ATOM     18  F   UNL     1       6.303   4.735  16.572  0.00  0.00    +0.000 F 
ATOM     19  F   UNL     1       4.911   4.131  15.023  0.00  0.00    +0.000 F 
ATOM     20  F   UNL     1       4.552   5.950  16.159  0.00  0.00    +0.000 F 
ENDBRANCH  14  17
ENDBRANCH   5   7
BRANCH   1  21
ATOM     21  C   UNL     1       0.217   9.559  20.591  0.00  0.00    +0.000 C 
BRANCH  21  26
ATOM     22  N   UNL     1       0.098  11.993  19.647  0.00  0.00    +0.000 N 
ATOM     23  C   UNL     1       0.646  13.165  20.089  0.00  0.00    +0.000 A 
ATOM     24  N   UNL     1       1.358  12.953  21.164  0.00  0.00    +0.000 NA
ATOM     25  N   UNL     1       1.261  11.621  21.461  0.00  0.00    +0.000 NA
ATOM     26  C   UNL     1       0.489  11.034  20.561  0.00  0.00    +0.000 A 
BRANCH  22  27
ATOM     27  C   UNL     1      -0.745  11.925  18.472  0.00  0.00    +0.000 C 
BRANCH  27  29
ATOM     28  C   UNL     1      -1.778   9.944  17.250  0.00  0.00    +0.000 C 
ATOM     29  C   UNL     1      -1.801  10.818  18.496  0.00  0.00    +0.000 C 
ENDBRANCH  27  29
ENDBRANCH  22  27
ENDBRANCH  21  26
ENDBRANCH   1  21
TORSDOF 6
ENDMDL
MODEL 6
REMARK VINA RESULT:      -8.5      4.015      7.033
REMARK  Name = 
REMARK  7 active torsions:
REMARK  status: ('A' for Active; 'I' for Inactive)
REMARK    1  A    between atoms: C_1  and  C_2
REMARK    2  A    between atoms: C_2  and  C_3
REMARK    3  A    between atoms: C_3  and  N_4
REMARK    4  A    between atoms: C_8  and  C_9
REMARK    5  A    between atoms: C_9  and  C_10
REMARK    6  A    between atoms: C_14  and  N_15
REMARK    7  A    between atoms: C_22  and  C_23
REMARK                            x       y       z     vdW  Elec       q    Type
REMARK                         _______ _______ _______ _____ _____    ______ ____
ROOT
ATOM      1  C   UNL     1       1.960   8.776  18.558  0.00  0.00    +0.000 A 
ATOM      2  C   UNL     1       1.473   8.282  19.778  0.00  0.00    +0.000 A 
ATOM      3  C   UNL     1       2.007   7.116  20.311  0.00  0.00    +0.000 A 
ATOM      4  C   UNL     1       2.916   6.381  19.569  0.00  0.00    +0.000 A 
ATOM      5  C   UNL     1       3.053   6.654  18.196  0.00  0.00    +0.000 A 
ATOM      6  C   UNL     1       2.723   7.935  17.737  0.00  0.00    +0.000 A 
ENDROOT
BRANCH   5   7
ATOM      7  N   UNL     1       2.994   5.528  17.265  0.00  0.00    +0.000 N 
ATOM      8  C   UNL     1       1.930   4.581  17.687  0.00  0.00    +0.000 C 
ATOM      9  C   UNL     1       2.668   3.684  18.638  0.00  0.00    +0.000 A 
ATOM     10  C   UNL     1       4.008   3.671  18.236  0.00  0.00    +0.000 A 
ATOM     11  C   UNL     1       5.016   3.103  18.998  0.00  0.00    +0.000 A 
ATOM     12  C   UNL     1       4.651   2.518  20.209  0.00  0.00    +0.000 A 
ATOM     13  C   UNL     1       3.309   2.531  20.632  0.00  0.00    +0.000 A 
ATOM     14  C   UNL     1       2.290   3.124  19.856  0.00  0.00    +0.000 A 
ATOM     15  C   UNL     1       4.177   4.734  17.215  0.00  0.00    +0.000 C 
ATOM     16  O   UNL     1       5.232   4.983  16.652  0.00  0.00    +0.000 OA
BRANCH  14  17
ATOM     17  C   UNL     1       0.898   3.229  20.431  0.00  0.00    +0.000 C 
ATOM     18  F   UNL     1       0.461   4.501  20.608  0.00  0.00    +0.000 F 
ATOM     19  F   UNL     1      -0.031   2.624  19.640  0.00  0.00    +0.000 F 
ATOM     20  F   UNL     1       0.800   2.626  21.650  0.00  0.00    +0.000 F 
ENDBRANCH  14  17
ENDBRANCH   5   7
BRANCH   1  21
ATOM     21  C   UNL     1       1.657  10.198  18.184  0.00  0.00    +0.000 C 
BRANCH  21  26
ATOM     22  N   UNL     1      -0.893  10.704  18.451  0.00  0.00    +0.000 N 
ATOM     23  C   UNL     1      -1.574  11.480  19.348  0.00  0.00    +0.000 A 
ATOM     24  N   UNL     1      -0.739  12.055  20.173  0.00  0.00    +0.000 NA
ATOM     25  N   UNL     1       0.518  11.634  19.839  0.00  0.00    +0.000 NA
ATOM     26  C   UNL     1       0.437  10.805  18.811  0.00  0.00    +0.000 A 
BRANCH  22  27
ATOM     27  C   UNL     1      -1.562   9.944  17.417  0.00  0.00    +0.000 C 
BRANCH  27  29
ATOM     28  C   UNL     1      -2.810  10.189  15.211  0.00  0.00    +0.000 C 
ATOM     29  C   UNL     1      -2.619  10.718  16.626  0.00  0.00    +0.000 C 
ENDBRANCH  27  29
ENDBRANCH  22  27
ENDBRANCH  21  26
ENDBRANCH   1  21
TORSDOF 6
ENDMDL
MODEL 7
REMARK VINA RESULT:      -8.5      8.690     12.008
REMARK  Name = 
REMARK  7 active torsions:
REMARK  status: ('A' for Active; 'I' for Inactive)
REMARK    1  A    between atoms: C_1  and  C_2
REMARK    2  A    between atoms: C_2  and  C_3
REMARK    3  A    between atoms: C_3  and  N_4
REMARK    4  A    between atoms: C_8  and  C_9
REMARK    5  A    between atoms: C_9  and  C_10
REMARK    6  A    between atoms: C_14  and  N_15
REMARK    7  A    between atoms: C_22  and  C_23
REMARK                            x       y       z     vdW  Elec       q    Type
REMARK                         _______ _______ _______ _____ _____    ______ ____
ROOT
ATOM      1  C   UNL     1      -4.548  11.297  17.523  0.00  0.00    +0.000 A 
ATOM      2  C   UNL     1      -3.970  10.915  16.302  0.00  0.00    +0.000 A 
ATOM      3  C   UNL     1      -2.672  10.421  16.280  0.00  0.00    +0.000 A 
ATOM      4  C   UNL     1      -1.916  10.437  17.439  0.00  0.00    +0.000 A 
ATOM      5  C   UNL     1      -2.354  11.214  18.527  0.00  0.00    +0.000 A 
ATOM      6  C   UNL     1      -3.721  11.491  18.638  0.00  0.00    +0.000 A 
ENDROOT
BRANCH   5   7
ATOM      7  N   UNL     1      -1.391  12.121  19.151  0.00  0.00    +0.000 N 
ATOM      8  C   UNL     1      -0.013  11.755  18.737  0.00  0.00    +0.000 C 
ATOM      9  C   UNL     1       0.364  10.734  19.771  0.00  0.00    +0.000 A 
ATOM     10  C   UNL     1      -0.354  11.041  20.933  0.00  0.00    +0.000 A 
ATOM     11  C   UNL     1      -0.404  10.197  22.029  0.00  0.00    +0.000 A 
ATOM     12  C   UNL     1       0.309   9.002  21.952  0.00  0.00    +0.000 A 
ATOM     13  C   UNL     1       1.028   8.675  20.788  0.00  0.00    +0.000 A 
ATOM     14  C   UNL     1       1.063   9.534  19.668  0.00  0.00    +0.000 A 
ATOM     15  C   UNL     1      -1.361  12.070  20.574  0.00  0.00    +0.000 C 
ATOM     16  O   UNL     1      -2.150  12.563  21.366  0.00  0.00    +0.000 OA
BRANCH  14  17
ATOM     17  C   UNL     1       1.735   9.061  18.402  0.00  0.00    +0.000 C 
ATOM     18  F   UNL     1       2.499   7.950  18.556  0.00  0.00    +0.000 F 
ATOM     19  F   UNL     1       0.836   8.761  17.425  0.00  0.00    +0.000 F 
ATOM     20  F   UNL     1       2.559  10.010  17.873  0.00  0.00    +0.000 F 
ENDBRANCH  14  17
ENDBRANCH   5   7
BRANCH   1  21
ATOM     21  C   UNL     1      -6.038  11.468  17.592  0.00  0.00    +0.000 C 
BRANCH  21  26
ATOM     22  N   UNL     1      -7.191  11.860  19.904  0.00  0.00    +0.000 N 
ATOM     23  C   UNL     1      -7.649  10.985  20.849  0.00  0.00    +0.000 A 
ATOM     24  N   UNL     1      -7.417   9.754  20.474  0.00  0.00    +0.000 NA
ATOM     25  N   UNL     1      -6.820   9.808  19.245  0.00  0.00    +0.000 NA
ATOM     26  C   UNL     1      -6.693  11.074  18.882  0.00  0.00    +0.000 A 
BRANCH  22  27
ATOM     27  C   UNL     1      -7.315  13.295  20.050  0.00  0.00    +0.000 C 
BRANCH  27  29
ATOM     28  C   UNL     1      -6.005  15.473  19.896  0.00  0.00    +0.000 C 
ATOM     29  C   UNL     1      -6.012  14.027  20.373  0.00  0.00    +0.000 C 
ENDBRANCH  27  29
ENDBRANCH  22  27
ENDBRANCH  21  26
ENDBRANCH   1  21
TORSDOF 6
ENDMDL
MODEL 8
REMARK VINA RESULT:      -8.5      4.714      7.883
REMARK  Name = 
REMARK  7 active torsions:
REMARK  status: ('A' for Active; 'I' for Inactive)
REMARK    1  A    between atoms: C_1  and  C_2
REMARK    2  A    between atoms: C_2  and  C_3
REMARK    3  A    between atoms: C_3  and  N_4
REMARK    4  A    between atoms: C_8  and  C_9
REMARK    5  A    between atoms: C_9  and  C_10
REMARK    6  A    between atoms: C_14  and  N_15
REMARK    7  A    between atoms: C_22  and  C_23
REMARK                            x       y       z     vdW  Elec       q    Type
REMARK                         _______ _______ _______ _____ _____    ______ ____
ROOT
ATOM      1  C   UNL     1       1.281   8.832  19.716  0.00  0.00    +0.000 A 
ATOM      2  C   UNL     1       1.971   9.279  18.578  0.00  0.00    +0.000 A 
ATOM      3  C   UNL     1       2.608   8.360  17.754  0.00  0.00    +0.000 A 
ATOM      4  C   UNL     1       2.671   7.031  18.136  0.00  0.00    +0.000 A 
ATOM      5  C   UNL     1       2.363   6.689  19.465  0.00  0.00    +0.000 A 
ATOM      6  C   UNL     1       1.515   7.534  20.189  0.00  0.00    +0.000 A 
ENDROOT
BRANCH   5   7
ATOM      7  N   UNL     1       3.308   5.838  20.189  0.00  0.00    +0.000 N 
ATOM      8  C   UNL     1       4.473   5.529  19.321  0.00  0.00    +0.000 C 
ATOM      9  C   UNL     1       4.008   4.299  18.597  0.00  0.00    +0.000 A 
ATOM     10  C   UNL     1       3.102   3.644  19.440  0.00  0.00    +0.000 A 
ATOM     11  C   UNL     1       2.325   2.577  19.022  0.00  0.00    +0.000 A 
ATOM     12  C   UNL     1       2.477   2.150  17.704  0.00  0.00    +0.000 A 
ATOM     13  C   UNL     1       3.377   2.804  16.842  0.00  0.00    +0.000 A 
ATOM     14  C   UNL     1       4.156   3.900  17.271  0.00  0.00    +0.000 A 
ATOM     15  C   UNL     1       2.795   4.563  20.563  0.00  0.00    +0.000 C 
ATOM     16  O   UNL     1       2.039   4.292  21.484  0.00  0.00    +0.000 OA
BRANCH  14  17
ATOM     17  C   UNL     1       4.994   4.644  16.260  0.00  0.00    +0.000 C 
ATOM     18  F   UNL     1       4.634   5.940  16.081  0.00  0.00    +0.000 F 
ATOM     19  F   UNL     1       6.311   4.669  16.604  0.00  0.00    +0.000 F 
ATOM     20  F   UNL     1       4.941   4.067  15.026  0.00  0.00    +0.000 F 
ENDBRANCH  14  17
ENDBRANCH   5   7
BRANCH   1  21
ATOM     21  C   UNL     1       0.303   9.760  20.376  0.00  0.00    +0.000 C 
BRANCH  21  26
ATOM     22  N   UNL     1      -0.322  12.075  19.335  0.00  0.00    +0.000 N 
ATOM     23  C   UNL     1      -1.247  12.424  18.390  0.00  0.00    +0.000 A 
ATOM     24  N   UNL     1      -1.912  11.369  17.998  0.00  0.00    +0.000 NA
ATOM     25  N   UNL     1      -1.404  10.293  18.672  0.00  0.00    +0.000 NA
ATOM     26  C   UNL     1      -0.432  10.704  19.471  0.00  0.00    +0.000 A 
BRANCH  22  27
ATOM     27  C   UNL     1       0.562  13.041  19.950  0.00  0.00    +0.000 C 
BRANCH  27  29
ATOM     28  C   UNL     1       2.351  13.006  18.137  0.00  0.00    +0.000 C 
ATOM     29  C   UNL     1       2.046  12.860  19.622  0.00  0.00    +0.000 C 
ENDBRANCH  27  29
ENDBRANCH  22  27
ENDBRANCH  21  26
ENDBRANCH   1  21
TORSDOF 6
ENDMDL
MODEL 9
REMARK VINA RESULT:      -8.4      4.151      7.693
REMARK  Name = 
REMARK  7 active torsions:
REMARK  status: ('A' for Active; 'I' for Inactive)
REMARK    1  A    between atoms: C_1  and  C_2
REMARK    2  A    between atoms: C_2  and  C_3
REMARK    3  A    between atoms: C_3  and  N_4
REMARK    4  A    between atoms: C_8  and  C_9
REMARK    5  A    between atoms: C_9  and  C_10
REMARK    6  A    between atoms: C_14  and  N_15
REMARK    7  A    between atoms: C_22  and  C_23
REMARK                            x       y       z     vdW  Elec       q    Type
REMARK                         _______ _______ _______ _____ _____    ______ ____
ROOT
ATOM      1  C   UNL     1       1.749   8.953  18.918  0.00  0.00    +0.000 A 
ATOM      2  C   UNL     1       1.288   8.357  20.101  0.00  0.00    +0.000 A 
ATOM      3  C   UNL     1       1.855   7.166  20.539  0.00  0.00    +0.000 A 
ATOM      4  C   UNL     1       2.772   6.512  19.734  0.00  0.00    +0.000 A 
ATOM      5  C   UNL     1       2.887   6.892  18.385  0.00  0.00    +0.000 A 
ATOM      6  C   UNL     1       2.522   8.195  18.028  0.00  0.00    +0.000 A 
ENDROOT
BRANCH   5   7
ATOM      7  N   UNL     1       2.844   5.838  17.372  0.00  0.00    +0.000 N 
ATOM      8  C   UNL     1       1.824   4.824  17.743  0.00  0.00    +0.000 C 
ATOM      9  C   UNL     1       2.617   3.884  18.606  0.00  0.00    +0.000 A 
ATOM     10  C   UNL     1       3.946   3.951  18.174  0.00  0.00    +0.000 A 
ATOM     11  C   UNL     1       4.991   3.364  18.867  0.00  0.00    +0.000 A 
ATOM     12  C   UNL     1       4.678   2.676  20.038  0.00  0.00    +0.000 A 
ATOM     13  C   UNL     1       3.347   2.608  20.490  0.00  0.00    +0.000 A 
ATOM     14  C   UNL     1       2.289   3.220  19.785  0.00  0.00    +0.000 A 
ATOM     15  C   UNL     1       4.052   5.094  17.235  0.00  0.00    +0.000 C 
ATOM     16  O   UNL     1       5.083   5.424  16.668  0.00  0.00    +0.000 OA
BRANCH  14  17
ATOM     17  C   UNL     1       0.909   3.230  20.398  0.00  0.00    +0.000 C 
ATOM     18  F   UNL     1      -0.034   2.593  19.660  0.00  0.00    +0.000 F 
ATOM     19  F   UNL     1       0.887   2.635  21.622  0.00  0.00    +0.000 F 
ATOM     20  F   UNL     1       0.442   4.496  20.589  0.00  0.00    +0.000 F 
ENDBRANCH  14  17
ENDBRANCH   5   7
BRANCH   1  21
ATOM     21  C   UNL     1       1.408  10.392  18.656  0.00  0.00    +0.000 C 
BRANCH  21  26
ATOM     22  N   UNL     1      -0.624  11.449  19.914  0.00  0.00    +0.000 N 
ATOM     23  C   UNL     1      -1.952  11.514  19.596  0.00  0.00    +0.000 A 
ATOM     24  N   UNL     1      -2.176  10.903  18.462  0.00  0.00    +0.000 NA
ATOM     25  N   UNL     1      -0.972  10.446  18.002  0.00  0.00    +0.000 NA
ATOM     26  C   UNL     1      -0.025  10.784  18.861  0.00  0.00    +0.000 A 
BRANCH  22  27
ATOM     27  C   UNL     1      -0.083  12.044  21.117  0.00  0.00    +0.000 C 
BRANCH  27  29
ATOM     28  C   UNL     1      -0.473  10.183  22.810  0.00  0.00    +0.000 C 
ATOM     29  C   UNL     1      -0.775  11.622  22.415  0.00  0.00    +0.000 C 
ENDBRANCH  27  29
ENDBRANCH  22  27
ENDBRANCH  21  26
ENDBRANCH   1  21
TORSDOF 6
ENDMDL
