MODEL 1
REMARK VINA RESULT:      -8.7      0.000      0.000
REMARK  Name = 
REMARK  8 active torsions:
REMARK  status: ('A' for Active; 'I' for Inactive)
REMARK    1  A    between atoms: C_2  and  C_16
REMARK    2  A    between atoms: N_3  and  C_4
REMARK    3  A    between atoms: C_9  and  C_10
REMARK    4  A    between atoms: N_12  and  C_13
REMARK    5  A    between atoms: C_20  and  S_21
REMARK    6  A    between atoms: S_21  and  N_24
REMARK    7  A    between atoms: N_24  and  C_25
REMARK    8  A    between atoms: C_25  and  C_26
REMARK                            x       y       z     vdW  Elec       q    Type
REMARK                         _______ _______ _______ _____ _____    ______ ____
ROOT
ATOM      1  O   UNL     1       2.826   8.303  16.862  0.00  0.00    +0.000 OA
ATOM      2  C   UNL     1       2.826   7.779  17.969  0.00  0.00    +0.000 C 
ATOM      3  N   UNL     1       3.490   6.615  18.314  0.00  0.00    +0.000 N 
ATOM      4  H   UNL     1       3.106   6.084  19.093  0.00  0.00    +0.000 HD
ENDROOT
BRANCH   3   5
ATOM      5  C   UNL     1       4.296   5.885  17.413  0.00  0.00    +0.000 A 
ATOM      6  C   UNL     1       5.359   6.521  16.758  0.00  0.00    +0.000 A 
ATOM      7  C   UNL     1       6.243   5.782  15.968  0.00  0.00    +0.000 A 
ATOM      8  C   UNL     1       6.062   4.411  15.808  0.00  0.00    +0.000 A 
ATOM      9  C   UNL     1       4.992   3.773  16.437  0.00  0.00    +0.000 A 
ATOM     10  C   UNL     1       4.103   4.502  17.240  0.00  0.00    +0.000 A 
BRANCH  10  11
ATOM     11  C   UNL     1       2.947   3.759  17.820  0.00  0.00    +0.000 C 
ATOM     12  O   UNL     1       1.975   3.495  17.118  0.00  0.00    +0.000 OA
ATOM     13  N   UNL     1       3.027   3.439  19.167  0.00  0.00    +0.000 N 
ATOM     14  H   UNL     1       3.750   3.894  19.719  0.00  0.00    +0.000 HD
BRANCH  13  15
ATOM     15  C   UNL     1       1.949   2.811  19.864  0.00  0.00    +0.000 C 
ATOM     16  C   UNL     1       0.996   3.612  20.710  0.00  0.00    +0.000 C 
ATOM     17  C   UNL     1       1.974   2.682  21.362  0.00  0.00    +0.000 C 
ENDBRANCH  13  15
ENDBRANCH  10  11
ENDBRANCH   3   5
BRANCH   2  18
ATOM     18  C   UNL     1       1.937   8.307  19.038  0.00  0.00    +0.000 A 
ATOM     19  C   UNL     1       1.860   7.637  20.263  0.00  0.00    +0.000 A 
ATOM     20  C   UNL     1       1.091   8.171  21.305  0.00  0.00    +0.000 A 
ATOM     21  C   UNL     1       0.408   9.376  21.125  0.00  0.00    +0.000 A 
ATOM     22  C   UNL     1       0.484  10.033  19.892  0.00  0.00    +0.000 A 
ATOM     23  C   UNL     1       1.229   9.496  18.840  0.00  0.00    +0.000 A 
BRANCH  22  24
ATOM     24  S   UNL     1      -0.241  11.639  19.692  0.00  0.00    +0.000 S 
ATOM     25  O   UNL     1      -1.513  11.617  20.371  0.00  0.00    +0.000 OA
ATOM     26  O   UNL     1       0.769  12.634  19.996  0.00  0.00    +0.000 OA
BRANCH  24  27
ATOM     27  N   UNL     1      -0.571  11.733  18.056  0.00  0.00    +0.000 NA
ATOM     28  H   UNL     1       0.116  11.212  17.505  0.00  0.00    +0.000 HD
BRANCH  27  29
ATOM     29  C   UNL     1      -1.997  11.610  17.631  0.00  0.00    +0.000 C 
BRANCH  29  30
ATOM     30  C   UNL     1      -2.298  10.335  16.833  0.00  0.00    +0.000 C 
ATOM     31  F   UNL     1      -1.341   9.394  17.007  0.00  0.00    +0.000 F 
ATOM     32  F   UNL     1      -3.473   9.788  17.223  0.00  0.00    +0.000 F 
ATOM     33  F   UNL     1      -2.385  10.593  15.509  0.00  0.00    +0.000 F 
ENDBRANCH  29  30
ENDBRANCH  27  29
ENDBRANCH  24  27
ENDBRANCH  22  24
ENDBRANCH   2  18
TORSDOF 8
ENDMDL
MODEL 2
REMARK VINA RESULT:      -8.5      4.261      8.443
REMARK  Name = 
REMARK  8 active torsions:
REMARK  status: ('A' for Active; 'I' for Inactive)
REMARK    1  A    between atoms: C_2  and  C_16
REMARK    2  A    between atoms: N_3  and  C_4
REMARK    3  A    between atoms: C_9  and  C_10
REMARK    4  A    between atoms: N_12  and  C_13
REMARK    5  A    between atoms: C_20  and  S_21
REMARK    6  A    between atoms: S_21  and  N_24
REMARK    7  A    between atoms: N_24  and  C_25
REMARK    8  A    between atoms: C_25  and  C_26
REMARK                            x       y       z     vdW  Elec       q    Type
REMARK                         _______ _______ _______ _____ _____    ______ ____
ROOT
ATOM      1  O   UNL     1       2.134   9.829  17.399  0.00  0.00    +0.000 OA
ATOM      2  C   UNL     1       1.780   9.429  18.500  0.00  0.00    +0.000 C 
ATOM      3  N   UNL     1       1.166  10.191  19.480  0.00  0.00    +0.000 N 
ATOM      4  H   UNL     1       1.288   9.882  20.441  0.00  0.00    +0.000 HD
ENDROOT
BRANCH   3   5
ATOM      5  C   UNL     1       0.838  11.554  19.310  0.00  0.00    +0.000 A 
ATOM      6  C   UNL     1       1.706  12.544  19.789  0.00  0.00    +0.000 A 
ATOM      7  C   UNL     1       1.459  13.891  19.513  0.00  0.00    +0.000 A 
ATOM      8  C   UNL     1       0.336  14.261  18.778  0.00  0.00    +0.000 A 
ATOM      9  C   UNL     1      -0.547  13.284  18.317  0.00  0.00    +0.000 A 
ATOM     10  C   UNL     1      -0.306  11.928  18.580  0.00  0.00    +0.000 A 
BRANCH  10  11
ATOM     11  C   UNL     1      -1.332  10.952  18.114  0.00  0.00    +0.000 C 
ATOM     12  O   UNL     1      -1.664  10.019  18.840  0.00  0.00    +0.000 OA
ATOM     13  N   UNL     1      -1.835  11.142  16.835  0.00  0.00    +0.000 N 
ATOM     14  H   UNL     1      -1.343  11.790  16.225  0.00  0.00    +0.000 HD
BRANCH  13  15
ATOM     15  C   UNL     1      -2.755  10.226  16.237  0.00  0.00    +0.000 C 
ATOM     16  C   UNL     1      -2.883  10.116  14.742  0.00  0.00    +0.000 C 
ATOM     17  C   UNL     1      -3.993  10.723  15.544  0.00  0.00    +0.000 C 
ENDBRANCH  13  15
ENDBRANCH  10  11
ENDBRANCH   3   5
BRANCH   2  18
ATOM     18  C   UNL     1       2.144   8.056  18.942  0.00  0.00    +0.000 A 
ATOM     19  C   UNL     1       1.598   7.546  20.124  0.00  0.00    +0.000 A 
ATOM     20  C   UNL     1       1.868   6.226  20.506  0.00  0.00    +0.000 A 
ATOM     21  C   UNL     1       2.674   5.415  19.703  0.00  0.00    +0.000 A 
ATOM     22  C   UNL     1       3.223   5.939  18.528  0.00  0.00    +0.000 A 
ATOM     23  C   UNL     1       2.978   7.261  18.151  0.00  0.00    +0.000 A 
BRANCH  22  24
ATOM     24  S   UNL     1       4.115   4.886  17.414  0.00  0.00    +0.000 S 
ATOM     25  O   UNL     1       3.252   3.772  17.103  0.00  0.00    +0.000 OA
ATOM     26  O   UNL     1       4.698   5.713  16.376  0.00  0.00    +0.000 OA
BRANCH  24  27
ATOM     27  N   UNL     1       5.365   4.281  18.344  0.00  0.00    +0.000 NA
ATOM     28  H   UNL     1       5.848   3.515  17.868  0.00  0.00    +0.000 HD
BRANCH  27  29
ATOM     29  C   UNL     1       6.224   5.263  19.069  0.00  0.00    +0.000 C 
BRANCH  29  30
ATOM     30  C   UNL     1       7.613   5.449  18.445  0.00  0.00    +0.000 C 
ATOM     31  F   UNL     1       8.545   5.767  19.374  0.00  0.00    +0.000 F 
ATOM     32  F   UNL     1       8.026   4.312  17.838  0.00  0.00    +0.000 F 
ATOM     33  F   UNL     1       7.607   6.431  17.516  0.00  0.00    +0.000 F 
ENDBRANCH  29  30
ENDBRANCH  27  29
ENDBRANCH  24  27
ENDBRANCH  22  24
ENDBRANCH   2  18
TORSDOF 8
ENDMDL
MODEL 3
REMARK VINA RESULT:      -8.4      1.142      1.393
REMARK  Name = 
REMARK  8 active torsions:
REMARK  status: ('A' for Active; 'I' for Inactive)
REMARK    1  A    between atoms: C_2  and  C_16
REMARK    2  A    between atoms: N_3  and  C_4
REMARK    3  A    between atoms: C_9  and  C_10
REMARK    4  A    between atoms: N_12  and  C_13
REMARK    5  A    between atoms: C_20  and  S_21
REMARK    6  A    between atoms: S_21  and  N_24
REMARK    7  A    between atoms: N_24  and  C_25
REMARK    8  A    between atoms: C_25  and  C_26
REMARK                            x       y       z     vdW  Elec       q    Type
REMARK                         _______ _______ _______ _____ _____    ______ ____
ROOT
ATOM      1  O   UNL     1       3.853   5.945  19.932  0.00  0.00    +0.000 OA
ATOM      2  C   UNL     1       3.070   6.520  19.188  0.00  0.00    +0.000 C 
ATOM      3  N   UNL     1       3.081   6.468  17.804  0.00  0.00    +0.000 N 
ATOM      4  H   UNL     1       2.675   7.261  17.314  0.00  0.00    +0.000 HD
ENDROOT
BRANCH   3   5
ATOM      5  C   UNL     1       4.005   5.697  17.064  0.00  0.00    +0.000 A 
ATOM      6  C   UNL     1       5.027   6.334  16.349  0.00  0.00    +0.000 A 
ATOM      7  C   UNL     1       6.023   5.581  15.722  0.00  0.00    +0.000 A 
ATOM      8  C   UNL     1       5.995   4.191  15.785  0.00  0.00    +0.000 A 
ATOM      9  C   UNL     1       4.966   3.547  16.475  0.00  0.00    +0.000 A 
ATOM     10  C   UNL     1       3.966   4.292  17.116  0.00  0.00    +0.000 A 
BRANCH  10  11
ATOM     11  C   UNL     1       2.866   3.528  17.772  0.00  0.00    +0.000 C 
ATOM     12  O   UNL     1       1.838   3.279  17.147  0.00  0.00    +0.000 OA
ATOM     13  N   UNL     1       3.061   3.171  19.097  0.00  0.00    +0.000 N 
ATOM     14  H   UNL     1       3.828   3.613  19.598  0.00  0.00    +0.000 HD
BRANCH  13  15
ATOM     15  C   UNL     1       2.048   2.518  19.865  0.00  0.00    +0.000 C 
ATOM     16  C   UNL     1       0.999   3.308  20.602  0.00  0.00    +0.000 C 
ATOM     17  C   UNL     1       2.063   2.581  21.368  0.00  0.00    +0.000 C 
ENDBRANCH  13  15
ENDBRANCH  10  11
ENDBRANCH   3   5
BRANCH   2  18
ATOM     18  C   UNL     1       2.093   7.492  19.747  0.00  0.00    +0.000 A 
ATOM     19  C   UNL     1       1.480   7.223  20.975  0.00  0.00    +0.000 A 
ATOM     20  C   UNL     1       0.622   8.168  21.550  0.00  0.00    +0.000 A 
ATOM     21  C   UNL     1       0.387   9.385  20.904  0.00  0.00    +0.000 A 
ATOM     22  C   UNL     1       0.998   9.640  19.672  0.00  0.00    +0.000 A 
ATOM     23  C   UNL     1       1.835   8.692  19.080  0.00  0.00    +0.000 A 
BRANCH  22  24
ATOM     24  S   UNL     1       0.841  11.235  18.912  0.00  0.00    +0.000 S 
ATOM     25  O   UNL     1       0.375  12.144  19.931  0.00  0.00    +0.000 OA
ATOM     26  O   UNL     1       2.047  11.495  18.151  0.00  0.00    +0.000 OA
BRANCH  24  27
ATOM     27  N   UNL     1      -0.415  11.044  17.827  0.00  0.00    +0.000 NA
ATOM     28  H   UNL     1      -0.075  10.734  16.913  0.00  0.00    +0.000 HD
BRANCH  27  29
ATOM     29  C   UNL     1      -1.667  10.402  18.325  0.00  0.00    +0.000 C 
BRANCH  29  30
ATOM     30  C   UNL     1      -2.714  10.155  17.232  0.00  0.00    +0.000 C 
ATOM     31  F   UNL     1      -3.215  11.313  16.743  0.00  0.00    +0.000 F 
ATOM     32  F   UNL     1      -2.174   9.482  16.189  0.00  0.00    +0.000 F 
ATOM     33  F   UNL     1      -3.750   9.424  17.700  0.00  0.00    +0.000 F 
ENDBRANCH  29  30
ENDBRANCH  27  29
ENDBRANCH  24  27
ENDBRANCH  22  24
ENDBRANCH   2  18
TORSDOF 8
ENDMDL
MODEL 4
REMARK VINA RESULT:      -8.4      3.734      8.263
REMARK  Name = 
REMARK  8 active torsions:
REMARK  status: ('A' for Active; 'I' for Inactive)
REMARK    1  A    between atoms: C_2  and  C_16
REMARK    2  A    between atoms: N_3  and  C_4
REMARK    3  A    between atoms: C_9  and  C_10
REMARK    4  A    between atoms: N_12  and  C_13
REMARK    5  A    between atoms: C_20  and  S_21
REMARK    6  A    between atoms: S_21  and  N_24
REMARK    7  A    between atoms: N_24  and  C_25
REMARK    8  A    between atoms: C_25  and  C_26
REMARK                            x       y       z     vdW  Elec       q    Type
REMARK                         _______ _______ _______ _____ _____    ______ ____
ROOT
ATOM      1  O   UNL     1       1.236   6.643  20.865  0.00  0.00    +0.000 OA
ATOM      2  C   UNL     1       1.798   7.498  20.194  0.00  0.00    +0.000 C 
ATOM      3  N   UNL     1       1.552   8.860  20.246  0.00  0.00    +0.000 N 
ATOM      4  H   UNL     1       1.764   9.394  19.406  0.00  0.00    +0.000 HD
ENDROOT
BRANCH   3   5
ATOM      5  C   UNL     1       0.618   9.447  21.127  0.00  0.00    +0.000 A 
ATOM      6  C   UNL     1       0.652   9.127  22.491  0.00  0.00    +0.000 A 
ATOM      7  C   UNL     1      -0.179   9.798  23.393  0.00  0.00    +0.000 A 
ATOM      8  C   UNL     1      -1.062  10.775  22.939  0.00  0.00    +0.000 A 
ATOM      9  C   UNL     1      -1.120  11.082  21.578  0.00  0.00    +0.000 A 
ATOM     10  C   UNL     1      -0.285  10.422  20.666  0.00  0.00    +0.000 A 
BRANCH  10  11
ATOM     11  C   UNL     1      -0.457  10.759  19.223  0.00  0.00    +0.000 C 
ATOM     12  O   UNL     1       0.438  11.349  18.622  0.00  0.00    +0.000 OA
ATOM     13  N   UNL     1      -1.666  10.409  18.642  0.00  0.00    +0.000 N 
ATOM     14  H   UNL     1      -2.427  10.140  19.261  0.00  0.00    +0.000 HD
BRANCH  13  15
ATOM     15  C   UNL     1      -1.991  10.757  17.294  0.00  0.00    +0.000 C 
ATOM     16  C   UNL     1      -3.370  11.228  16.922  0.00  0.00    +0.000 C 
ATOM     17  C   UNL     1      -2.894   9.880  16.471  0.00  0.00    +0.000 C 
ENDBRANCH  13  15
ENDBRANCH  10  11
ENDBRANCH   3   5
BRANCH   2  18
ATOM     18  C   UNL     1       2.728   7.094  19.106  0.00  0.00    +0.000 A 
ATOM     19  C   UNL     1       2.705   7.781  17.888  0.00  0.00    +0.000 A 
ATOM     20  C   UNL     1       3.631   7.463  16.888  0.00  0.00    +0.000 A 
ATOM     21  C   UNL     1       4.587   6.467  17.109  0.00  0.00    +0.000 A 
ATOM     22  C   UNL     1       4.595   5.780  18.327  0.00  0.00    +0.000 A 
ATOM     23  C   UNL     1       3.659   6.074  19.321  0.00  0.00    +0.000 A 
BRANCH  22  24
ATOM     24  S   UNL     1       5.893   4.627  18.691  0.00  0.00    +0.000 S 
ATOM     25  O   UNL     1       6.528   4.296  17.438  0.00  0.00    +0.000 OA
ATOM     26  O   UNL     1       6.649   5.135  19.818  0.00  0.00    +0.000 OA
BRANCH  24  27
ATOM     27  N   UNL     1       5.084   3.254  19.197  0.00  0.00    +0.000 NA
ATOM     28  H   UNL     1       4.895   3.281  20.202  0.00  0.00    +0.000 HD
BRANCH  27  29
ATOM     29  C   UNL     1       3.987   2.739  18.326  0.00  0.00    +0.000 C 
BRANCH  29  30
ATOM     30  C   UNL     1       2.619   2.689  19.018  0.00  0.00    +0.000 C 
ATOM     31  F   UNL     1       2.082   1.447  18.986  0.00  0.00    +0.000 F 
ATOM     32  F   UNL     1       2.723   3.047  20.320  0.00  0.00    +0.000 F 
ATOM     33  F   UNL     1       1.740   3.531  18.431  0.00  0.00    +0.000 F 
ENDBRANCH  29  30
ENDBRANCH  27  29
ENDBRANCH  24  27
ENDBRANCH  22  24
ENDBRANCH   2  18
TORSDOF 8
ENDMDL
MODEL 5
REMARK VINA RESULT:      -8.3      1.038      1.135
REMARK  Name = 
REMARK  8 active torsions:
REMARK  status: ('A' for Active; 'I' for Inactive)
REMARK    1  A    between atoms: C_2  and  C_16
REMARK    2  A    between atoms: N_3  and  C_4
REMARK    3  A    between atoms: C_9  and  C_10
REMARK    4  A    between atoms: N_12  and  C_13
REMARK    5  A    between atoms: C_20  and  S_21
REMARK    6  A    between atoms: S_21  and  N_24
REMARK    7  A    between atoms: N_24  and  C_25
REMARK    8  A    between atoms: C_25  and  C_26
REMARK                            x       y       z     vdW  Elec       q    Type
REMARK                         _______ _______ _______ _____ _____    ______ ____
ROOT
ATOM      1  O   UNL     1       2.294   8.958  17.066  0.00  0.00    +0.000 OA
ATOM      2  C   UNL     1       2.258   8.463  18.185  0.00  0.00    +0.000 C 
ATOM      3  N   UNL     1       2.895   7.297  18.576  0.00  0.00    +0.000 N 
ATOM      4  H   UNL     1       2.484   6.793  19.358  0.00  0.00    +0.000 HD
ENDROOT
BRANCH   3   5
ATOM      5  C   UNL     1       3.711   6.532  17.713  0.00  0.00    +0.000 A 
ATOM      6  C   UNL     1       4.811   7.130  17.085  0.00  0.00    +0.000 A 
ATOM      7  C   UNL     1       5.701   6.356  16.336  0.00  0.00    +0.000 A 
ATOM      8  C   UNL     1       5.489   4.988  16.191  0.00  0.00    +0.000 A 
ATOM      9  C   UNL     1       4.382   4.387  16.794  0.00  0.00    +0.000 A 
ATOM     10  C   UNL     1       3.488   5.152  17.555  0.00  0.00    +0.000 A 
BRANCH  10  11
ATOM     11  C   UNL     1       2.294   4.450  18.108  0.00  0.00    +0.000 C 
ATOM     12  O   UNL     1       1.361   4.152  17.366  0.00  0.00    +0.000 OA
ATOM     13  N   UNL     1       2.293   4.204  19.473  0.00  0.00    +0.000 N 
ATOM     14  H   UNL     1       2.988   4.685  20.039  0.00  0.00    +0.000 HD
BRANCH  13  15
ATOM     15  C   UNL     1       1.172   3.621  20.140  0.00  0.00    +0.000 C 
ATOM     16  C   UNL     1       1.351   2.779  21.374  0.00  0.00    +0.000 C 
ATOM     17  C   UNL     1       0.932   2.137  20.086  0.00  0.00    +0.000 C 
ENDBRANCH  13  15
ENDBRANCH  10  11
ENDBRANCH   3   5
BRANCH   2  18
ATOM     18  C   UNL     1       1.352   9.031  19.219  0.00  0.00    +0.000 A 
ATOM     19  C   UNL     1       1.383   8.519  20.519  0.00  0.00    +0.000 A 
ATOM     20  C   UNL     1       0.595   9.101  21.519  0.00  0.00    +0.000 A 
ATOM     21  C   UNL     1      -0.215  10.200  21.222  0.00  0.00    +0.000 A 
ATOM     22  C   UNL     1      -0.245  10.699  19.915  0.00  0.00    +0.000 A 
ATOM     23  C   UNL     1       0.519  10.109  18.906  0.00  0.00    +0.000 A 
BRANCH  22  24
ATOM     24  S   UNL     1      -1.139  12.187  19.550  0.00  0.00    +0.000 S 
ATOM     25  O   UNL     1      -1.368  12.861  20.805  0.00  0.00    +0.000 OA
ATOM     26  O   UNL     1      -0.485  12.848  18.437  0.00  0.00    +0.000 OA
BRANCH  24  27
ATOM     27  N   UNL     1      -2.627  11.644  19.016  0.00  0.00    +0.000 NA
ATOM     28  H   UNL     1      -3.392  12.076  19.540  0.00  0.00    +0.000 HD
BRANCH  27  29
ATOM     29  C   UNL     1      -2.823  11.505  17.543  0.00  0.00    +0.000 C 
BRANCH  29  30
ATOM     30  C   UNL     1      -2.739  10.058  17.041  0.00  0.00    +0.000 C 
ATOM     31  F   UNL     1      -1.476   9.717  16.695  0.00  0.00    +0.000 F 
ATOM     32  F   UNL     1      -3.139   9.191  18.000  0.00  0.00    +0.000 F 
ATOM     33  F   UNL     1      -3.527   9.866  15.960  0.00  0.00    +0.000 F 
ENDBRANCH  29  30
ENDBRANCH  27  29
ENDBRANCH  24  27
ENDBRANCH  22  24
ENDBRANCH   2  18
TORSDOF 8
ENDMDL
MODEL 6
REMARK VINA RESULT:      -8.3      2.180      2.539
REMARK  Name = 
REMARK  8 active torsions:
REMARK  status: ('A' for Active; 'I' for Inactive)
REMARK    1  A    between atoms: C_2  and  C_16
REMARK    2  A    between atoms: N_3  and  C_4
REMARK    3  A    between atoms: C_9  and  C_10
REMARK    4  A    between atoms: N_12  and  C_13
REMARK    5  A    between atoms: C_20  and  S_21
REMARK    6  A    between atoms: S_21  and  N_24
REMARK    7  A    between atoms: N_24  and  C_25
REMARK    8  A    between atoms: C_25  and  C_26
REMARK                            x       y       z     vdW  Elec       q    Type
REMARK                         _______ _______ _______ _____ _____    ______ ____
ROOT
ATOM      1  O   UNL     1       2.743   8.427  16.921  0.00  0.00    +0.000 OA
ATOM      2  C   UNL     1       2.715   7.864  18.007  0.00  0.00    +0.000 C 
ATOM      3  N   UNL     1       3.335   6.665  18.313  0.00  0.00    +0.000 N 
ATOM      4  H   UNL     1       2.926   6.119  19.069  0.00  0.00    +0.000 HD
ENDROOT
BRANCH   3   5
ATOM      5  C   UNL     1       4.123   5.941  17.391  0.00  0.00    +0.000 A 
ATOM      6  C   UNL     1       5.137   6.594  16.680  0.00  0.00    +0.000 A 
ATOM      7  C   UNL     1       6.008   5.866  15.865  0.00  0.00    +0.000 A 
ATOM      8  C   UNL     1       5.861   4.488  15.737  0.00  0.00    +0.000 A 
ATOM      9  C   UNL     1       4.837   3.831  16.424  0.00  0.00    +0.000 A 
ATOM     10  C   UNL     1       3.963   4.550  17.251  0.00  0.00    +0.000 A 
BRANCH  10  11
ATOM     11  C   UNL     1       2.855   3.786  17.895  0.00  0.00    +0.000 C 
ATOM     12  O   UNL     1       1.828   3.550  17.263  0.00  0.00    +0.000 OA
ATOM     13  N   UNL     1       3.043   3.413  19.217  0.00  0.00    +0.000 N 
ATOM     14  H   UNL     1       3.811   3.845  19.725  0.00  0.00    +0.000 HD
BRANCH  13  15
ATOM     15  C   UNL     1       2.023   2.759  19.974  0.00  0.00    +0.000 C 
ATOM     16  C   UNL     1       1.050   3.543  20.811  0.00  0.00    +0.000 C 
ATOM     17  C   UNL     1       2.097   2.702  21.475  0.00  0.00    +0.000 C 
ENDBRANCH  13  15
ENDBRANCH  10  11
ENDBRANCH   3   5
BRANCH   2  18
ATOM     18  C   UNL     1       1.836   8.382  19.089  0.00  0.00    +0.000 A 
ATOM     19  C   UNL     1       1.828   7.747  20.335  0.00  0.00    +0.000 A 
ATOM     20  C   UNL     1       1.068   8.275  21.385  0.00  0.00    +0.000 A 
ATOM     21  C   UNL     1       0.324   9.443  21.193  0.00  0.00    +0.000 A 
ATOM     22  C   UNL     1       0.332  10.065  19.940  0.00  0.00    +0.000 A 
ATOM     23  C   UNL     1       1.068   9.531  18.880  0.00  0.00    +0.000 A 
BRANCH  22  24
ATOM     24  S   UNL     1      -0.473  11.630  19.718  0.00  0.00    +0.000 S 
ATOM     25  O   UNL     1      -1.864  11.356  19.451  0.00  0.00    +0.000 OA
ATOM     26  O   UNL     1      -0.061  12.509  20.794  0.00  0.00    +0.000 OA
BRANCH  24  27
ATOM     27  N   UNL     1       0.181  12.223  18.298  0.00  0.00    +0.000 NA
ATOM     28  H   UNL     1      -0.484  12.157  17.524  0.00  0.00    +0.000 HD
BRANCH  27  29
ATOM     29  C   UNL     1       0.986  13.478  18.380  0.00  0.00    +0.000 C 
BRANCH  29  30
ATOM     30  C   UNL     1       2.500  13.240  18.438  0.00  0.00    +0.000 C 
ATOM     31  F   UNL     1       2.852  12.083  17.830  0.00  0.00    +0.000 F 
ATOM     32  F   UNL     1       3.170  14.239  17.817  0.00  0.00    +0.000 F 
ATOM     33  F   UNL     1       2.940  13.183  19.715  0.00  0.00    +0.000 F 
ENDBRANCH  29  30
ENDBRANCH  27  29
ENDBRANCH  24  27
ENDBRANCH  22  24
ENDBRANCH   2  18
TORSDOF 8
ENDMDL
MODEL 7
REMARK VINA RESULT:      -8.2      3.493      8.269
REMARK  Name = 
REMARK  8 active torsions:
REMARK  status: ('A' for Active; 'I' for Inactive)
REMARK    1  A    between atoms: C_2  and  C_16
REMARK    2  A    between atoms: N_3  and  C_4
REMARK    3  A    between atoms: C_9  and  C_10
REMARK    4  A    between atoms: N_12  and  C_13
REMARK    5  A    between atoms: C_20  and  S_21
REMARK    6  A    between atoms: S_21  and  N_24
REMARK    7  A    between atoms: N_24  and  C_25
REMARK    8  A    between atoms: C_25  and  C_26
REMARK                            x       y       z     vdW  Elec       q    Type
REMARK                         _______ _______ _______ _____ _____    ______ ____
ROOT
ATOM      1  O   UNL     1       1.059   7.436  21.544  0.00  0.00    +0.000 OA
ATOM      2  C   UNL     1       1.372   8.060  20.539  0.00  0.00    +0.000 C 
ATOM      3  N   UNL     1       0.898   9.312  20.183  0.00  0.00    +0.000 N 
ATOM      4  H   UNL     1       0.904   9.537  19.191  0.00  0.00    +0.000 HD
ENDROOT
BRANCH   3   5
ATOM      5  C   UNL     1      -0.005  10.054  20.976  0.00  0.00    +0.000 A 
ATOM      6  C   UNL     1      -0.047   9.848  22.361  0.00  0.00    +0.000 A 
ATOM      7  C   UNL     1      -0.840  10.666  23.171  0.00  0.00    +0.000 A 
ATOM      8  C   UNL     1      -1.611  11.677  22.605  0.00  0.00    +0.000 A 
ATOM      9  C   UNL     1      -1.594  11.874  21.223  0.00  0.00    +0.000 A 
ATOM     10  C   UNL     1      -0.796  11.066  20.401  0.00  0.00    +0.000 A 
BRANCH  10  11
ATOM     11  C   UNL     1      -0.886  11.295  18.930  0.00  0.00    +0.000 C 
ATOM     12  O   UNL     1      -0.003  11.923  18.353  0.00  0.00    +0.000 OA
ATOM     13  N   UNL     1      -2.016  10.803  18.293  0.00  0.00    +0.000 N 
ATOM     14  H   UNL     1      -2.795  10.507  18.875  0.00  0.00    +0.000 HD
BRANCH  13  15
ATOM     15  C   UNL     1      -2.266  11.035  16.905  0.00  0.00    +0.000 C 
ATOM     16  C   UNL     1      -3.668  11.048  16.358  0.00  0.00    +0.000 C 
ATOM     17  C   UNL     1      -2.742   9.921  16.013  0.00  0.00    +0.000 C 
ENDBRANCH  13  15
ENDBRANCH  10  11
ENDBRANCH   3   5
BRANCH   2  18
ATOM     18  C   UNL     1       2.212   7.415  19.496  0.00  0.00    +0.000 A 
ATOM     19  C   UNL     1       2.563   8.135  18.350  0.00  0.00    +0.000 A 
ATOM     20  C   UNL     1       3.422   7.566  17.402  0.00  0.00    +0.000 A 
ATOM     21  C   UNL     1       3.937   6.283  17.604  0.00  0.00    +0.000 A 
ATOM     22  C   UNL     1       3.571   5.567  18.749  0.00  0.00    +0.000 A 
ATOM     23  C   UNL     1       2.697   6.117  19.688  0.00  0.00    +0.000 A 
BRANCH  22  24
ATOM     24  S   UNL     1       4.335   4.006  19.106  0.00  0.00    +0.000 S 
ATOM     25  O   UNL     1       5.711   4.102  18.683  0.00  0.00    +0.000 OA
ATOM     26  O   UNL     1       3.976   3.624  20.458  0.00  0.00    +0.000 OA
BRANCH  24  27
ATOM     27  N   UNL     1       3.583   2.941  18.060  0.00  0.00    +0.000 NA
ATOM     28  H   UNL     1       4.260   2.474  17.451  0.00  0.00    +0.000 HD
BRANCH  27  29
ATOM     29  C   UNL     1       2.486   2.091  18.610  0.00  0.00    +0.000 C 
BRANCH  29  30
ATOM     30  C   UNL     1       1.130   2.804  18.687  0.00  0.00    +0.000 C 
ATOM     31  F   UNL     1       1.043   3.820  17.798  0.00  0.00    +0.000 F 
ATOM     32  F   UNL     1       0.118   1.947  18.415  0.00  0.00    +0.000 F 
ATOM     33  F   UNL     1       0.913   3.317  19.919  0.00  0.00    +0.000 F 
ENDBRANCH  29  30
ENDBRANCH  27  29
ENDBRANCH  24  27
ENDBRANCH  22  24
ENDBRANCH   2  18
TORSDOF 8
ENDMDL
MODEL 8
REMARK VINA RESULT:      -8.2      4.040      8.629
REMARK  Name = 
REMARK  8 active torsions:
REMARK  status: ('A' for Active; 'I' for Inactive)
REMARK    1  A    between atoms: C_2  and  C_16
REMARK    2  A    between atoms: N_3  and  C_4
REMARK    3  A    between atoms: C_9  and  C_10
REMARK    4  A    between atoms: N_12  and  C_13
REMARK    5  A    between atoms: C_20  and  S_21
REMARK    6  A    between atoms: S_21  and  N_24
REMARK    7  A    between atoms: N_24  and  C_25
REMARK    8  A    between atoms: C_25  and  C_26
REMARK                            x       y       z     vdW  Elec       q    Type
REMARK                         _______ _______ _______ _____ _____    ______ ____
ROOT
ATOM      1  O   UNL     1       1.289   6.681  20.948  0.00  0.00    +0.000 OA
ATOM      2  C   UNL     1       1.749   7.522  20.187  0.00  0.00    +0.000 C 
ATOM      3  N   UNL     1       1.430   8.869  20.181  0.00  0.00    +0.000 N 
ATOM      4  H   UNL     1       1.547   9.362  19.299  0.00  0.00    +0.000 HD
ENDROOT
BRANCH   3   5
ATOM      5  C   UNL     1       0.532   9.458  21.099  0.00  0.00    +0.000 A 
ATOM      6  C   UNL     1       0.618   9.138  22.460  0.00  0.00    +0.000 A 
ATOM      7  C   UNL     1      -0.175   9.810  23.394  0.00  0.00    +0.000 A 
ATOM      8  C   UNL     1      -1.072  10.790  22.975  0.00  0.00    +0.000 A 
ATOM      9  C   UNL     1      -1.181  11.099  21.618  0.00  0.00    +0.000 A 
ATOM     10  C   UNL     1      -0.385  10.437  20.673  0.00  0.00    +0.000 A 
BRANCH  10  11
ATOM     11  C   UNL     1      -0.611  10.775  19.238  0.00  0.00    +0.000 C 
ATOM     12  O   UNL     1       0.341  10.823  18.464  0.00  0.00    +0.000 OA
ATOM     13  N   UNL     1      -1.916  11.062  18.865  0.00  0.00    +0.000 N 
ATOM     14  H   UNL     1      -2.594  11.225  19.605  0.00  0.00    +0.000 HD
BRANCH  13  15
ATOM     15  C   UNL     1      -2.252  11.488  17.543  0.00  0.00    +0.000 C 
ATOM     16  C   UNL     1      -3.637  11.291  16.990  0.00  0.00    +0.000 C 
ATOM     17  C   UNL     1      -2.495  10.484  16.450  0.00  0.00    +0.000 C 
ENDBRANCH  13  15
ENDBRANCH  10  11
ENDBRANCH   3   5
BRANCH   2  18
ATOM     18  C   UNL     1       2.616   7.102  19.054  0.00  0.00    +0.000 A 
ATOM     19  C   UNL     1       2.901   8.011  18.030  0.00  0.00    +0.000 A 
ATOM     20  C   UNL     1       3.782   7.654  17.003  0.00  0.00    +0.000 A 
ATOM     21  C   UNL     1       4.386   6.393  17.005  0.00  0.00    +0.000 A 
ATOM     22  C   UNL     1       4.087   5.488  18.029  0.00  0.00    +0.000 A 
ATOM     23  C   UNL     1       3.191   5.828  19.044  0.00  0.00    +0.000 A 
BRANCH  22  24
ATOM     24  S   UNL     1       4.959   3.948  18.139  0.00  0.00    +0.000 S 
ATOM     25  O   UNL     1       5.596   3.915  19.434  0.00  0.00    +0.000 OA
ATOM     26  O   UNL     1       4.071   2.891  17.698  0.00  0.00    +0.000 OA
BRANCH  24  27
ATOM     27  N   UNL     1       6.180   4.093  17.007  0.00  0.00    +0.000 NA
ATOM     28  H   UNL     1       7.103   4.003  17.438  0.00  0.00    +0.000 HD
BRANCH  27  29
ATOM     29  C   UNL     1       5.989   3.408  15.694  0.00  0.00    +0.000 C 
BRANCH  29  30
ATOM     30  C   UNL     1       6.302   4.293  14.482  0.00  0.00    +0.000 C 
ATOM     31  F   UNL     1       5.298   5.161  14.218  0.00  0.00    +0.000 F 
ATOM     32  F   UNL     1       7.419   5.028  14.697  0.00  0.00    +0.000 F 
ATOM     33  F   UNL     1       6.507   3.552  13.371  0.00  0.00    +0.000 F 
ENDBRANCH  29  30
ENDBRANCH  27  29
ENDBRANCH  24  27
ENDBRANCH  22  24
ENDBRANCH   2  18
TORSDOF 8
ENDMDL
MODEL 9
REMARK VINA RESULT:      -8.2      4.125      8.329
REMARK  Name = 
REMARK  8 active torsions:
REMARK  status: ('A' for Active; 'I' for Inactive)
REMARK    1  A    between atoms: C_2  and  C_16
REMARK    2  A    between atoms: N_3  and  C_4
REMARK    3  A    between atoms: C_9  and  C_10
REMARK    4  A    between atoms: N_12  and  C_13
REMARK    5  A    between atoms: C_20  and  S_21
REMARK    6  A    between atoms: S_21  and  N_24
REMARK    7  A    between atoms: N_24  and  C_25
REMARK    8  A    between atoms: C_25  and  C_26
REMARK                            x       y       z     vdW  Elec       q    Type
REMARK                         _______ _______ _______ _____ _____    ______ ____
ROOT
ATOM      1  O   UNL     1       2.179   9.654  17.573  0.00  0.00    +0.000 OA
ATOM      2  C   UNL     1       1.751   9.301  18.664  0.00  0.00    +0.000 C 
ATOM      3  N   UNL     1       1.109  10.113  19.583  0.00  0.00    +0.000 N 
ATOM      4  H   UNL     1       1.166   9.833  20.559  0.00  0.00    +0.000 HD
ENDROOT
BRANCH   3   5
ATOM      5  C   UNL     1       0.834  11.479  19.352  0.00  0.00    +0.000 A 
ATOM      6  C   UNL     1       1.723  12.456  19.819  0.00  0.00    +0.000 A 
ATOM      7  C   UNL     1       1.532  13.800  19.485  0.00  0.00    +0.000 A 
ATOM      8  C   UNL     1       0.445  14.180  18.703  0.00  0.00    +0.000 A 
ATOM      9  C   UNL     1      -0.460  13.216  18.254  0.00  0.00    +0.000 A 
ATOM     10  C   UNL     1      -0.274  11.864  18.574  0.00  0.00    +0.000 A 
BRANCH  10  11
ATOM     11  C   UNL     1      -1.321  10.907  18.114  0.00  0.00    +0.000 C 
ATOM     12  O   UNL     1      -1.735  10.039  18.879  0.00  0.00    +0.000 OA
ATOM     13  N   UNL     1      -1.746  11.035  16.801  0.00  0.00    +0.000 N 
ATOM     14  H   UNL     1      -1.192  11.619  16.179  0.00  0.00    +0.000 HD
BRANCH  13  15
ATOM     15  C   UNL     1      -2.676  10.124  16.211  0.00  0.00    +0.000 C 
ATOM     16  C   UNL     1      -2.932  10.122  14.728  0.00  0.00    +0.000 C 
ATOM     17  C   UNL     1      -3.991  10.612  15.668  0.00  0.00    +0.000 C 
ENDBRANCH  13  15
ENDBRANCH  10  11
ENDBRANCH   3   5
BRANCH   2  18
ATOM     18  C   UNL     1       2.046   7.934  19.169  0.00  0.00    +0.000 A 
ATOM     19  C   UNL     1       1.485   7.510  20.378  0.00  0.00    +0.000 A 
ATOM     20  C   UNL     1       1.688   6.198  20.821  0.00  0.00    +0.000 A 
ATOM     21  C   UNL     1       2.442   5.307  20.052  0.00  0.00    +0.000 A 
ATOM     22  C   UNL     1       3.007   5.745  18.849  0.00  0.00    +0.000 A 
ATOM     23  C   UNL     1       2.829   7.058  18.411  0.00  0.00    +0.000 A 
BRANCH  22  24
ATOM     24  S   UNL     1       3.831   4.593  17.781  0.00  0.00    +0.000 S 
ATOM     25  O   UNL     1       4.888   3.983  18.551  0.00  0.00    +0.000 OA
ATOM     26  O   UNL     1       2.823   3.799  17.106  0.00  0.00    +0.000 OA
BRANCH  24  27
ATOM     27  N   UNL     1       4.568   5.561  16.634  0.00  0.00    +0.000 NA
ATOM     28  H   UNL     1       4.007   6.392  16.430  0.00  0.00    +0.000 HD
BRANCH  27  29
ATOM     29  C   UNL     1       6.043   5.763  16.747  0.00  0.00    +0.000 C 
BRANCH  29  30
ATOM     30  C   UNL     1       6.871   4.694  16.023  0.00  0.00    +0.000 C 
ATOM     31  F   UNL     1       6.105   3.660  15.604  0.00  0.00    +0.000 F 
ATOM     32  F   UNL     1       7.477   5.212  14.929  0.00  0.00    +0.000 F 
ATOM     33  F   UNL     1       7.835   4.192  16.827  0.00  0.00    +0.000 F 
ENDBRANCH  29  30
ENDBRANCH  27  29
ENDBRANCH  24  27
ENDBRANCH  22  24
ENDBRANCH   2  18
TORSDOF 8
ENDMDL
