MODEL 1
REMARK VINA RESULT:      -9.2      0.000      0.000
REMARK  Name = 
REMARK  6 active torsions:
REMARK  status: ('A' for Active; 'I' for Inactive)
REMARK    1  A    between atoms: C_1  and  O_2
REMARK    2  A    between atoms: O_2  and  C_3
REMARK    3  A    between atoms: C_8  and  C_9
REMARK    4  A    between atoms: C_9  and  C_10
REMARK    5  A    between atoms: C_9  and  C_11
REMARK    6  A    between atoms: C_17  and  C_18
REMARK                            x       y       z     vdW  Elec       q    Type
REMARK                         _______ _______ _______ _____ _____    ______ ____
ROOT
ATOM      1  C   UNL     1       3.386   4.064  18.715  0.00  0.00    +0.000 C 
ATOM      2  O   UNL     1       3.128   3.252  17.826  0.00  0.00    +0.000 OA
ATOM      3  N   UNL     1       4.591   4.725  18.808  0.00  0.00    +0.000 N 
ATOM      4  C   UNL     1       5.563   4.547  17.853  0.00  0.00    +0.000 A 
ATOM      5  N   UNL     1       6.856   4.577  18.077  0.00  0.00    +0.000 NA
ATOM      6  N   UNL     1       7.495   4.427  16.870  0.00  0.00    +0.000 NA
ATOM      7  C   UNL     1       6.582   4.423  15.913  0.00  0.00    +0.000 A 
ATOM      8  N   UNL     1       5.344   4.406  16.512  0.00  0.00    +0.000 N 
ATOM      9  H   UNL     1       4.918   5.035  19.716  0.00  0.00    +0.000 HD
ATOM     10  H   UNL     1       4.457   4.441  16.022  0.00  0.00    +0.000 HD
ENDROOT
BRANCH   7  11
ATOM     11  C   UNL     1       6.814   4.527  14.479  0.00  0.00    +0.000 A 
ATOM     12  C   UNL     1       6.151   3.689  13.587  0.00  0.00    +0.000 A 
ATOM     13  C   UNL     1       6.501   3.730  12.240  0.00  0.00    +0.000 A 
ATOM     14  C   UNL     1       7.496   4.604  11.826  0.00  0.00    +0.000 A 
ATOM     15  C   UNL     1       8.093   5.418  12.778  0.00  0.00    +0.000 A 
ATOM     16  N   UNL     1       7.777   5.405  14.095  0.00  0.00    +0.000 NA
ENDBRANCH   7  11
BRANCH   1  17
ATOM     17  C   UNL     1       2.369   4.465  19.791  0.00  0.00    +0.000 C 
ATOM     18  C   UNL     1       2.888   4.015  21.161  0.00  0.00    +0.000 C 
BRANCH  17  24
ATOM     19  C   UNL     1       1.227  10.948  19.161  0.00  0.00    +0.000 A 
ATOM     20  C   UNL     1       1.791  10.475  17.980  0.00  0.00    +0.000 A 
ATOM     21  C   UNL     1       2.125   9.118  17.856  0.00  0.00    +0.000 A 
ATOM     22  C   UNL     1       1.894   8.209  18.903  0.00  0.00    +0.000 A 
ATOM     23  C   UNL     1       2.223   6.838  18.793  0.00  0.00    +0.000 A 
ATOM     24  C   UNL     1       1.971   5.932  19.837  0.00  0.00    +0.000 A 
ATOM     25  C   UNL     1       1.396   6.439  21.019  0.00  0.00    +0.000 A 
ATOM     26  C   UNL     1       1.086   7.798  21.150  0.00  0.00    +0.000 A 
ATOM     27  C   UNL     1       1.327   8.694  20.101  0.00  0.00    +0.000 A 
ATOM     28  C   UNL     1       1.019  10.063  20.221  0.00  0.00    +0.000 A 
BRANCH  19  30
ATOM     29  C   UNL     1       1.614  12.909  20.430  0.00  0.00    +0.000 C 
ATOM     30  O   UNL     1       0.874  12.248  19.406  0.00  0.00    +0.000 OA
ENDBRANCH  19  30
ENDBRANCH  17  24
ENDBRANCH   1  17
TORSDOF 4
ENDMDL
MODEL 2
REMARK VINA RESULT:      -9.2      0.769      1.607
REMARK  Name = 
REMARK  6 active torsions:
REMARK  status: ('A' for Active; 'I' for Inactive)
REMARK    1  A    between atoms: C_1  and  O_2
REMARK    2  A    between atoms: O_2  and  C_3
REMARK    3  A    between atoms: C_8  and  C_9
REMARK    4  A    between atoms: C_9  and  C_10
REMARK    5  A    between atoms: C_9  and  C_11
REMARK    6  A    between atoms: C_17  and  C_18
REMARK                            x       y       z     vdW  Elec       q    Type
REMARK                         _______ _______ _______ _____ _____    ______ ____
ROOT
ATOM      1  C   UNL     1       3.207   4.385  18.656  0.00  0.00    +0.000 C 
ATOM      2  O   UNL     1       2.911   3.588  17.765  0.00  0.00    +0.000 OA
ATOM      3  N   UNL     1       4.455   4.958  18.774  0.00  0.00    +0.000 N 
ATOM      4  C   UNL     1       5.432   4.703  17.843  0.00  0.00    +0.000 A 
ATOM      5  N   UNL     1       6.719   4.641  18.097  0.00  0.00    +0.000 NA
ATOM      6  N   UNL     1       7.373   4.436  16.906  0.00  0.00    +0.000 NA
ATOM      7  C   UNL     1       6.485   4.491  15.929  0.00  0.00    +0.000 A 
ATOM      8  N   UNL     1       5.235   4.569  16.498  0.00  0.00    +0.000 N 
ATOM      9  H   UNL     1       4.782   5.250  19.687  0.00  0.00    +0.000 HD
ATOM     10  H   UNL     1       4.365   4.665  15.987  0.00  0.00    +0.000 HD
ENDROOT
BRANCH   7  11
ATOM     11  C   UNL     1       6.757   4.569  14.500  0.00  0.00    +0.000 A 
ATOM     12  C   UNL     1       6.113   3.719  13.605  0.00  0.00    +0.000 A 
ATOM     13  C   UNL     1       6.500   3.734  12.267  0.00  0.00    +0.000 A 
ATOM     14  C   UNL     1       7.512   4.594  11.866  0.00  0.00    +0.000 A 
ATOM     15  C   UNL     1       8.088   5.421  12.819  0.00  0.00    +0.000 A 
ATOM     16  N   UNL     1       7.735   5.434  14.127  0.00  0.00    +0.000 NA
ENDBRANCH   7  11
BRANCH   1  17
ATOM     17  C   UNL     1       2.197   4.866  19.706  0.00  0.00    +0.000 C 
ATOM     18  C   UNL     1       2.631   4.359  21.085  0.00  0.00    +0.000 C 
BRANCH  17  24
ATOM     19  C   UNL     1       0.493  11.167  20.767  0.00  0.00    +0.000 A 
ATOM     20  C   UNL     1       0.226  10.430  21.917  0.00  0.00    +0.000 A 
ATOM     21  C   UNL     1       0.506   9.056  21.951  0.00  0.00    +0.000 A 
ATOM     22  C   UNL     1       1.064   8.395  20.843  0.00  0.00    +0.000 A 
ATOM     23  C   UNL     1       1.355   7.011  20.862  0.00  0.00    +0.000 A 
ATOM     24  C   UNL     1       1.931   6.363  19.757  0.00  0.00    +0.000 A 
ATOM     25  C   UNL     1       2.193   7.135  18.608  0.00  0.00    +0.000 A 
ATOM     26  C   UNL     1       1.891   8.500  18.567  0.00  0.00    +0.000 A 
ATOM     27  C   UNL     1       1.329   9.145  19.677  0.00  0.00    +0.000 A 
ATOM     28  C   UNL     1       1.021  10.520  19.648  0.00  0.00    +0.000 A 
BRANCH  19  30
ATOM     29  C   UNL     1       0.131  12.958  19.262  0.00  0.00    +0.000 C 
ATOM     30  O   UNL     1       0.251  12.505  20.608  0.00  0.00    +0.000 OA
ENDBRANCH  19  30
ENDBRANCH  17  24
ENDBRANCH   1  17
TORSDOF 4
ENDMDL
MODEL 3
REMARK VINA RESULT:      -8.8      3.935      9.238
REMARK  Name = 
REMARK  6 active torsions:
REMARK  status: ('A' for Active; 'I' for Inactive)
REMARK    1  A    between atoms: C_1  and  O_2
REMARK    2  A    between atoms: O_2  and  C_3
REMARK    3  A    between atoms: C_8  and  C_9
REMARK    4  A    between atoms: C_9  and  C_10
REMARK    5  A    between atoms: C_9  and  C_11
REMARK    6  A    between atoms: C_17  and  C_18
REMARK                            x       y       z     vdW  Elec       q    Type
REMARK                         _______ _______ _______ _____ _____    ______ ____
ROOT
ATOM      1  C   UNL     1       2.020   7.074  20.266  0.00  0.00    +0.000 C 
ATOM      2  O   UNL     1       1.978   7.769  19.251  0.00  0.00    +0.000 OA
ATOM      3  N   UNL     1       1.616   7.518  21.505  0.00  0.00    +0.000 N 
ATOM      4  C   UNL     1       1.077   8.773  21.657  0.00  0.00    +0.000 A 
ATOM      5  N   UNL     1       1.215   9.531  22.720  0.00  0.00    +0.000 NA
ATOM      6  N   UNL     1       0.480  10.674  22.520  0.00  0.00    +0.000 NA
ATOM      7  C   UNL     1      -0.188  10.546  21.386  0.00  0.00    +0.000 A 
ATOM      8  N   UNL     1       0.239   9.392  20.772  0.00  0.00    +0.000 N 
ATOM      9  H   UNL     1       2.029   7.114  22.337  0.00  0.00    +0.000 HD
ATOM     10  H   UNL     1      -0.130   9.019  19.905  0.00  0.00    +0.000 HD
ENDROOT
BRANCH   7  11
ATOM     11  C   UNL     1      -1.265  11.399  20.902  0.00  0.00    +0.000 A 
ATOM     12  C   UNL     1      -2.019  12.166  21.786  0.00  0.00    +0.000 A 
ATOM     13  C   UNL     1      -3.123  12.861  21.300  0.00  0.00    +0.000 A 
ATOM     14  C   UNL     1      -3.439  12.771  19.952  0.00  0.00    +0.000 A 
ATOM     15  C   UNL     1      -2.624  11.999  19.136  0.00  0.00    +0.000 A 
ATOM     16  N   UNL     1      -1.542  11.311  19.575  0.00  0.00    +0.000 NA
ENDBRANCH   7  11
BRANCH   1  17
ATOM     17  C   UNL     1       2.483   5.611  20.248  0.00  0.00    +0.000 C 
ATOM     18  C   UNL     1       1.270   4.700  20.464  0.00  0.00    +0.000 C 
BRANCH  17  24
ATOM     19  C   UNL     1       6.423   4.512  15.052  0.00  0.00    +0.000 A 
ATOM     20  C   UNL     1       6.985   5.514  15.838  0.00  0.00    +0.000 A 
ATOM     21  C   UNL     1       6.340   5.931  17.011  0.00  0.00    +0.000 A 
ATOM     22  C   UNL     1       5.129   5.351  17.426  0.00  0.00    +0.000 A 
ATOM     23  C   UNL     1       4.466   5.759  18.607  0.00  0.00    +0.000 A 
ATOM     24  C   UNL     1       3.266   5.160  19.025  0.00  0.00    +0.000 A 
ATOM     25  C   UNL     1       2.722   4.147  18.211  0.00  0.00    +0.000 A 
ATOM     26  C   UNL     1       3.355   3.749  17.028  0.00  0.00    +0.000 A 
ATOM     27  C   UNL     1       4.559   4.339  16.624  0.00  0.00    +0.000 A 
ATOM     28  C   UNL     1       5.205   3.946  15.435  0.00  0.00    +0.000 A 
BRANCH  19  30
ATOM     29  C   UNL     1       6.002   3.610  12.904  0.00  0.00    +0.000 C 
ATOM     30  O   UNL     1       6.949   4.033  13.883  0.00  0.00    +0.000 OA
ENDBRANCH  19  30
ENDBRANCH  17  24
ENDBRANCH   1  17
TORSDOF 4
ENDMDL
MODEL 4
REMARK VINA RESULT:      -8.5      0.898      1.800
REMARK  Name = 
REMARK  6 active torsions:
REMARK  status: ('A' for Active; 'I' for Inactive)
REMARK    1  A    between atoms: C_1  and  O_2
REMARK    2  A    between atoms: O_2  and  C_3
REMARK    3  A    between atoms: C_8  and  C_9
REMARK    4  A    between atoms: C_9  and  C_10
REMARK    5  A    between atoms: C_9  and  C_11
REMARK    6  A    between atoms: C_17  and  C_18
REMARK                            x       y       z     vdW  Elec       q    Type
REMARK                         _______ _______ _______ _____ _____    ______ ____
ROOT
ATOM      1  C   UNL     1       3.322   4.361  18.680  0.00  0.00    +0.000 C 
ATOM      2  O   UNL     1       3.059   3.505  17.835  0.00  0.00    +0.000 OA
ATOM      3  N   UNL     1       4.551   4.975  18.778  0.00  0.00    +0.000 N 
ATOM      4  C   UNL     1       5.547   4.695  17.873  0.00  0.00    +0.000 A 
ATOM      5  N   UNL     1       6.831   4.685  18.143  0.00  0.00    +0.000 NA
ATOM      6  N   UNL     1       7.505   4.430  16.974  0.00  0.00    +0.000 NA
ATOM      7  C   UNL     1       6.627   4.401  15.986  0.00  0.00    +0.000 A 
ATOM      8  N   UNL     1       5.369   4.476  16.536  0.00  0.00    +0.000 N 
ATOM      9  H   UNL     1       4.859   5.330  19.675  0.00  0.00    +0.000 HD
ATOM     10  H   UNL     1       4.503   4.516  16.012  0.00  0.00    +0.000 HD
ENDROOT
BRANCH   7  11
ATOM     11  C   UNL     1       6.914   4.403  14.558  0.00  0.00    +0.000 A 
ATOM     12  C   UNL     1       7.791   5.333  14.007  0.00  0.00    +0.000 A 
ATOM     13  C   UNL     1       7.934   5.387  12.624  0.00  0.00    +0.000 A 
ATOM     14  C   UNL     1       7.201   4.512  11.834  0.00  0.00    +0.000 A 
ATOM     15  C   UNL     1       6.364   3.603  12.464  0.00  0.00    +0.000 A 
ATOM     16  N   UNL     1       6.202   3.523  13.807  0.00  0.00    +0.000 NA
ENDBRANCH   7  11
BRANCH   1  17
ATOM     17  C   UNL     1       2.286   4.874  19.690  0.00  0.00    +0.000 C 
ATOM     18  C   UNL     1       2.688   4.414  21.095  0.00  0.00    +0.000 C 
BRANCH  17  24
ATOM     19  C   UNL     1       0.590  11.210  20.531  0.00  0.00    +0.000 A 
ATOM     20  C   UNL     1       0.362  10.522  21.720  0.00  0.00    +0.000 A 
ATOM     21  C   UNL     1       0.649   9.152  21.804  0.00  0.00    +0.000 A 
ATOM     22  C   UNL     1       1.175   8.445  20.709  0.00  0.00    +0.000 A 
ATOM     23  C   UNL     1       1.472   7.064  20.778  0.00  0.00    +0.000 A 
ATOM     24  C   UNL     1       2.016   6.370  19.685  0.00  0.00    +0.000 A 
ATOM     25  C   UNL     1       2.238   7.093  18.496  0.00  0.00    +0.000 A 
ATOM     26  C   UNL     1       1.929   8.454  18.406  0.00  0.00    +0.000 A 
ATOM     27  C   UNL     1       1.400   9.145  19.504  0.00  0.00    +0.000 A 
ATOM     28  C   UNL     1       1.085  10.516  19.425  0.00  0.00    +0.000 A 
BRANCH  19  30
ATOM     29  C   UNL     1       0.193  13.334  21.498  0.00  0.00    +0.000 C 
ATOM     30  O   UNL     1       0.337  12.539  20.323  0.00  0.00    +0.000 OA
ENDBRANCH  19  30
ENDBRANCH  17  24
ENDBRANCH   1  17
TORSDOF 4
ENDMDL
MODEL 5
REMARK VINA RESULT:      -8.4      5.900      7.118
REMARK  Name = 
REMARK  6 active torsions:
REMARK  status: ('A' for Active; 'I' for Inactive)
REMARK    1  A    between atoms: C_1  and  O_2
REMARK    2  A    between atoms: O_2  and  C_3
REMARK    3  A    between atoms: C_8  and  C_9
REMARK    4  A    between atoms: C_9  and  C_10
REMARK    5  A    between atoms: C_9  and  C_11
REMARK    6  A    between atoms: C_17  and  C_18
REMARK                            x       y       z     vdW  Elec       q    Type
REMARK                         _______ _______ _______ _____ _____    ______ ____
ROOT
ATOM      1  C   UNL     1       8.791   9.735  18.529  0.00  0.00    +0.000 C 
ATOM      2  O   UNL     1       7.890  10.068  17.760  0.00  0.00    +0.000 OA
ATOM      3  N   UNL     1       8.974   8.442  18.966  0.00  0.00    +0.000 N 
ATOM      4  C   UNL     1       8.171   7.427  18.503  0.00  0.00    +0.000 A 
ATOM      5  N   UNL     1       7.807   6.375  19.199  0.00  0.00    +0.000 NA
ATOM      6  N   UNL     1       7.068   5.561  18.375  0.00  0.00    +0.000 NA
ATOM      7  C   UNL     1       7.088   6.074  17.156  0.00  0.00    +0.000 A 
ATOM      8  N   UNL     1       7.703   7.302  17.226  0.00  0.00    +0.000 N 
ATOM      9  H   UNL     1       9.416   8.279  19.863  0.00  0.00    +0.000 HD
ATOM     10  H   UNL     1       7.895   7.906  16.434  0.00  0.00    +0.000 HD
ENDROOT
BRANCH   7  11
ATOM     11  C   UNL     1       6.647   5.430  15.927  0.00  0.00    +0.000 A 
ATOM     12  C   UNL     1       5.434   4.750  15.874  0.00  0.00    +0.000 A 
ATOM     13  C   UNL     1       5.112   4.036  14.723  0.00  0.00    +0.000 A 
ATOM     14  C   UNL     1       6.007   4.025  13.662  0.00  0.00    +0.000 A 
ATOM     15  C   UNL     1       7.186   4.745  13.790  0.00  0.00    +0.000 A 
ATOM     16  N   UNL     1       7.529   5.451  14.895  0.00  0.00    +0.000 NA
ENDBRANCH   7  11
BRANCH   1  17
ATOM     17  C   UNL     1       9.845  10.723  19.047  0.00  0.00    +0.000 C 
ATOM     18  C   UNL     1      10.356  11.568  17.875  0.00  0.00    +0.000 C 
BRANCH  17  24
ATOM     19  C   UNL     1       7.627  13.790  24.469  0.00  0.00    +0.000 A 
ATOM     20  C   UNL     1       7.614  12.416  24.693  0.00  0.00    +0.000 A 
ATOM     21  C   UNL     1       8.046  11.537  23.690  0.00  0.00    +0.000 A 
ATOM     22  C   UNL     1       8.507  12.012  22.449  0.00  0.00    +0.000 A 
ATOM     23  C   UNL     1       8.948  11.140  21.428  0.00  0.00    +0.000 A 
ATOM     24  C   UNL     1       9.425  11.624  20.198  0.00  0.00    +0.000 A 
ATOM     25  C   UNL     1       9.430  13.019  20.001  0.00  0.00    +0.000 A 
ATOM     26  C   UNL     1       8.976  13.893  20.995  0.00  0.00    +0.000 A 
ATOM     27  C   UNL     1       8.514  13.406  22.224  0.00  0.00    +0.000 A 
ATOM     28  C   UNL     1       8.054  14.276  23.232  0.00  0.00    +0.000 A 
BRANCH  19  30
ATOM     29  C   UNL     1       6.142  14.367  26.221  0.00  0.00    +0.000 C 
ATOM     30  O   UNL     1       7.217  14.743  25.362  0.00  0.00    +0.000 OA
ENDBRANCH  19  30
ENDBRANCH  17  24
ENDBRANCH   1  17
TORSDOF 4
ENDMDL
MODEL 6
REMARK VINA RESULT:      -8.4      4.075      5.997
REMARK  Name = 
REMARK  6 active torsions:
REMARK  status: ('A' for Active; 'I' for Inactive)
REMARK    1  A    between atoms: C_1  and  O_2
REMARK    2  A    between atoms: O_2  and  C_3
REMARK    3  A    between atoms: C_8  and  C_9
REMARK    4  A    between atoms: C_9  and  C_10
REMARK    5  A    between atoms: C_9  and  C_11
REMARK    6  A    between atoms: C_17  and  C_18
REMARK                            x       y       z     vdW  Elec       q    Type
REMARK                         _______ _______ _______ _____ _____    ______ ____
ROOT
ATOM      1  C   UNL     1       1.424   9.282  18.553  0.00  0.00    +0.000 C 
ATOM      2  O   UNL     1       1.731   9.062  17.382  0.00  0.00    +0.000 OA
ATOM      3  N   UNL     1       1.676   8.398  19.580  0.00  0.00    +0.000 N 
ATOM      4  C   UNL     1       2.353   7.226  19.343  0.00  0.00    +0.000 A 
ATOM      5  N   UNL     1       2.149   6.095  19.977  0.00  0.00    +0.000 NA
ATOM      6  N   UNL     1       3.060   5.180  19.509  0.00  0.00    +0.000 NA
ATOM      7  C   UNL     1       3.882   5.799  18.679  0.00  0.00    +0.000 A 
ATOM      8  N   UNL     1       3.405   7.073  18.484  0.00  0.00    +0.000 N 
ATOM      9  H   UNL     1       1.078   8.403  20.397  0.00  0.00    +0.000 HD
ATOM     10  H   UNL     1       3.856   7.788  17.926  0.00  0.00    +0.000 HD
ENDROOT
BRANCH   7  11
ATOM     11  C   UNL     1       5.134   5.285  18.139  0.00  0.00    +0.000 A 
ATOM     12  C   UNL     1       6.323   5.414  18.851  0.00  0.00    +0.000 A 
ATOM     13  C   UNL     1       7.516   5.033  18.243  0.00  0.00    +0.000 A 
ATOM     14  C   UNL     1       7.485   4.534  16.948  0.00  0.00    +0.000 A 
ATOM     15  C   UNL     1       6.254   4.421  16.317  0.00  0.00    +0.000 A 
ATOM     16  N   UNL     1       5.076   4.781  16.879  0.00  0.00    +0.000 NA
ENDBRANCH   7  11
BRANCH   1  17
ATOM     17  C   UNL     1       0.769  10.593  19.006  0.00  0.00    +0.000 C 
ATOM     18  C   UNL     1       1.595  11.772  18.479  0.00  0.00    +0.000 C 
BRANCH  17  24
ATOM     19  C   UNL     1      -5.691  11.855  18.364  0.00  0.00    +0.000 A 
ATOM     20  C   UNL     1      -5.187  12.614  19.417  0.00  0.00    +0.000 A 
ATOM     21  C   UNL     1      -3.829  12.530  19.756  0.00  0.00    +0.000 A 
ATOM     22  C   UNL     1      -2.948  11.696  19.047  0.00  0.00    +0.000 A 
ATOM     23  C   UNL     1      -1.575  11.601  19.374  0.00  0.00    +0.000 A 
ATOM     24  C   UNL     1      -0.697  10.780  18.648  0.00  0.00    +0.000 A 
ATOM     25  C   UNL     1      -1.235  10.025  17.586  0.00  0.00    +0.000 A 
ATOM     26  C   UNL     1      -2.595  10.092  17.265  0.00  0.00    +0.000 A 
ATOM     27  C   UNL     1      -3.463  10.923  17.984  0.00  0.00    +0.000 A 
ATOM     28  C   UNL     1      -4.834  10.999  17.668  0.00  0.00    +0.000 A 
BRANCH  19  30
ATOM     29  C   UNL     1      -7.651  13.106  17.919  0.00  0.00    +0.000 C 
ATOM     30  O   UNL     1      -6.995  11.840  17.950  0.00  0.00    +0.000 OA
ENDBRANCH  19  30
ENDBRANCH  17  24
ENDBRANCH   1  17
TORSDOF 4
ENDMDL
MODEL 7
REMARK VINA RESULT:      -8.3      6.208     10.785
REMARK  Name = 
REMARK  6 active torsions:
REMARK  status: ('A' for Active; 'I' for Inactive)
REMARK    1  A    between atoms: C_1  and  O_2
REMARK    2  A    between atoms: O_2  and  C_3
REMARK    3  A    between atoms: C_8  and  C_9
REMARK    4  A    between atoms: C_9  and  C_10
REMARK    5  A    between atoms: C_9  and  C_11
REMARK    6  A    between atoms: C_17  and  C_18
REMARK                            x       y       z     vdW  Elec       q    Type
REMARK                         _______ _______ _______ _____ _____    ______ ____
ROOT
ATOM      1  C   UNL     1      -0.754  10.619  18.559  0.00  0.00    +0.000 C 
ATOM      2  O   UNL     1      -1.449  10.408  19.553  0.00  0.00    +0.000 OA
ATOM      3  N   UNL     1      -1.276  10.957  17.329  0.00  0.00    +0.000 N 
ATOM      4  C   UNL     1      -2.629  11.136  17.169  0.00  0.00    +0.000 A 
ATOM      5  N   UNL     1      -3.303  10.857  16.078  0.00  0.00    +0.000 NA
ATOM      6  N   UNL     1      -4.608  11.235  16.282  0.00  0.00    +0.000 NA
ATOM      7  C   UNL     1      -4.686  11.844  17.452  0.00  0.00    +0.000 A 
ATOM      8  N   UNL     1      -3.468  11.717  18.077  0.00  0.00    +0.000 N 
ATOM      9  H   UNL     1      -0.761  10.721  16.490  0.00  0.00    +0.000 HD
ATOM     10  H   UNL     1      -3.224  12.124  18.973  0.00  0.00    +0.000 HD
ENDROOT
BRANCH   7  11
ATOM     11  C   UNL     1      -5.811  12.614  17.966  0.00  0.00    +0.000 A 
ATOM     12  C   UNL     1      -6.850  13.006  17.127  0.00  0.00    +0.000 A 
ATOM     13  C   UNL     1      -7.836  13.852  17.626  0.00  0.00    +0.000 A 
ATOM     14  C   UNL     1      -7.755  14.280  18.944  0.00  0.00    +0.000 A 
ATOM     15  C   UNL     1      -6.696  13.828  19.718  0.00  0.00    +0.000 A 
ATOM     16  N   UNL     1      -5.721  13.003  19.265  0.00  0.00    +0.000 NA
ENDBRANCH   7  11
BRANCH   1  17
ATOM     17  C   UNL     1       0.780  10.577  18.596  0.00  0.00    +0.000 C 
ATOM     18  C   UNL     1       1.287  11.684  19.527  0.00  0.00    +0.000 C 
BRANCH  17  24
ATOM     19  C   UNL     1       3.676   4.664  19.209  0.00  0.00    +0.000 A 
ATOM     20  C   UNL     1       3.908   5.147  17.924  0.00  0.00    +0.000 A 
ATOM     21  C   UNL     1       3.399   6.396  17.541  0.00  0.00    +0.000 A 
ATOM     22  C   UNL     1       2.657   7.189  18.433  0.00  0.00    +0.000 A 
ATOM     23  C   UNL     1       2.138   8.451  18.064  0.00  0.00    +0.000 A 
ATOM     24  C   UNL     1       1.414   9.246  18.968  0.00  0.00    +0.000 A 
ATOM     25  C   UNL     1       1.198   8.733  20.262  0.00  0.00    +0.000 A 
ATOM     26  C   UNL     1       1.686   7.476  20.635  0.00  0.00    +0.000 A 
ATOM     27  C   UNL     1       2.419   6.694  19.734  0.00  0.00    +0.000 A 
ATOM     28  C   UNL     1       2.916   5.427  20.098  0.00  0.00    +0.000 A 
BRANCH  19  30
ATOM     29  C   UNL     1       3.826   2.325  18.874  0.00  0.00    +0.000 C 
ATOM     30  O   UNL     1       4.107   3.459  19.693  0.00  0.00    +0.000 OA
ENDBRANCH  19  30
ENDBRANCH  17  24
ENDBRANCH   1  17
TORSDOF 4
ENDMDL
MODEL 8
REMARK VINA RESULT:      -8.3      3.829      5.639
REMARK  Name = 
REMARK  6 active torsions:
REMARK  status: ('A' for Active; 'I' for Inactive)
REMARK    1  A    between atoms: C_1  and  O_2
REMARK    2  A    between atoms: O_2  and  C_3
REMARK    3  A    between atoms: C_8  and  C_9
REMARK    4  A    between atoms: C_9  and  C_10
REMARK    5  A    between atoms: C_9  and  C_11
REMARK    6  A    between atoms: C_17  and  C_18
REMARK                            x       y       z     vdW  Elec       q    Type
REMARK                         _______ _______ _______ _____ _____    ______ ____
ROOT
ATOM      1  C   UNL     1       1.633   9.349  18.557  0.00  0.00    +0.000 C 
ATOM      2  O   UNL     1       1.852   9.200  17.355  0.00  0.00    +0.000 OA
ATOM      3  N   UNL     1       1.872   8.369  19.496  0.00  0.00    +0.000 N 
ATOM      4  C   UNL     1       2.438   7.172  19.129  0.00  0.00    +0.000 A 
ATOM      5  N   UNL     1       2.181   6.013  19.689  0.00  0.00    +0.000 NA
ATOM      6  N   UNL     1       2.986   5.072  19.095  0.00  0.00    +0.000 NA
ATOM      7  C   UNL     1       3.805   5.690  18.262  0.00  0.00    +0.000 A 
ATOM      8  N   UNL     1       3.421   7.009  18.194  0.00  0.00    +0.000 N 
ATOM      9  H   UNL     1       1.326   8.355  20.349  0.00  0.00    +0.000 HD
ATOM     10  H   UNL     1       3.895   7.730  17.663  0.00  0.00    +0.000 HD
ENDROOT
BRANCH   7  11
ATOM     11  C   UNL     1       4.977   5.128  17.605  0.00  0.00    +0.000 A 
ATOM     12  C   UNL     1       6.224   5.161  18.222  0.00  0.00    +0.000 A 
ATOM     13  C   UNL     1       7.340   4.736  17.506  0.00  0.00    +0.000 A 
ATOM     14  C   UNL     1       7.178   4.292  16.201  0.00  0.00    +0.000 A 
ATOM     15  C   UNL     1       5.897   4.274  15.669  0.00  0.00    +0.000 A 
ATOM     16  N   UNL     1       4.790   4.679  16.337  0.00  0.00    +0.000 NA
ENDBRANCH   7  11
BRANCH   1  17
ATOM     17  C   UNL     1       1.113  10.666  19.148  0.00  0.00    +0.000 C 
ATOM     18  C   UNL     1       1.942  11.826  18.586  0.00  0.00    +0.000 C 
BRANCH  17  24
ATOM     19  C   UNL     1      -5.197  11.633  17.422  0.00  0.00    +0.000 A 
ATOM     20  C   UNL     1      -4.566  10.896  16.424  0.00  0.00    +0.000 A 
ATOM     21  C   UNL     1      -3.213  10.551  16.554  0.00  0.00    +0.000 A 
ATOM     22  C   UNL     1      -2.468  10.928  17.685  0.00  0.00    +0.000 A 
ATOM     23  C   UNL     1      -1.103  10.587  17.833  0.00  0.00    +0.000 A 
ATOM     24  C   UNL     1      -0.371  10.950  18.975  0.00  0.00    +0.000 A 
ATOM     25  C   UNL     1      -1.036  11.693  19.971  0.00  0.00    +0.000 A 
ATOM     26  C   UNL     1      -2.380  12.056  19.828  0.00  0.00    +0.000 A 
ATOM     27  C   UNL     1      -3.109  11.679  18.693  0.00  0.00    +0.000 A 
ATOM     28  C   UNL     1      -4.463  12.039  18.538  0.00  0.00    +0.000 A 
BRANCH  19  30
ATOM     29  C   UNL     1      -6.719  13.420  17.114  0.00  0.00    +0.000 C 
ATOM     30  O   UNL     1      -6.504  12.040  17.402  0.00  0.00    +0.000 OA
ENDBRANCH  19  30
ENDBRANCH  17  24
ENDBRANCH   1  17
TORSDOF 4
ENDMDL
MODEL 9
REMARK VINA RESULT:      -8.3      3.498      9.022
REMARK  Name = 
REMARK  6 active torsions:
REMARK  status: ('A' for Active; 'I' for Inactive)
REMARK    1  A    between atoms: C_1  and  O_2
REMARK    2  A    between atoms: O_2  and  C_3
REMARK    3  A    between atoms: C_8  and  C_9
REMARK    4  A    between atoms: C_9  and  C_10
REMARK    5  A    between atoms: C_9  and  C_11
REMARK    6  A    between atoms: C_17  and  C_18
REMARK                            x       y       z     vdW  Elec       q    Type
REMARK                         _______ _______ _______ _____ _____    ______ ____
ROOT
ATOM      1  C   UNL     1       1.780   6.276  20.546  0.00  0.00    +0.000 C 
ATOM      2  O   UNL     1       0.711   6.295  21.158  0.00  0.00    +0.000 OA
ATOM      3  N   UNL     1       2.274   7.360  19.854  0.00  0.00    +0.000 N 
ATOM      4  C   UNL     1       1.606   8.561  19.866  0.00  0.00    +0.000 A 
ATOM      5  N   UNL     1       1.573   9.416  18.870  0.00  0.00    +0.000 NA
ATOM      6  N   UNL     1       0.866  10.518  19.286  0.00  0.00    +0.000 NA
ATOM      7  C   UNL     1       0.577  10.368  20.567  0.00  0.00    +0.000 A 
ATOM      8  N   UNL     1       0.954   9.099  20.939  0.00  0.00    +0.000 N 
ATOM      9  H   UNL     1       2.889   7.206  19.064  0.00  0.00    +0.000 HD
ATOM     10  H   UNL     1       0.888   8.720  21.877  0.00  0.00    +0.000 HD
ENDROOT
BRANCH   7  11
ATOM     11  C   UNL     1       0.055  11.382  21.473  0.00  0.00    +0.000 A 
ATOM     12  C   UNL     1      -0.974  11.083  22.361  0.00  0.00    +0.000 A 
ATOM     13  C   UNL     1      -1.535  12.112  23.113  0.00  0.00    +0.000 A 
ATOM     14  C   UNL     1      -1.051  13.404  22.956  0.00  0.00    +0.000 A 
ATOM     15  C   UNL     1      -0.011  13.612  22.063  0.00  0.00    +0.000 A 
ATOM     16  N   UNL     1       0.558  12.634  21.317  0.00  0.00    +0.000 NA
ENDBRANCH   7  11
BRANCH   1  17
ATOM     17  C   UNL     1       2.705   5.052  20.532  0.00  0.00    +0.000 C 
ATOM     18  C   UNL     1       1.901   3.814  20.946  0.00  0.00    +0.000 C 
BRANCH  17  24
ATOM     19  C   UNL     1       6.555   4.662  15.170  0.00  0.00    +0.000 A 
ATOM     20  C   UNL     1       7.184   5.465  16.117  0.00  0.00    +0.000 A 
ATOM     21  C   UNL     1       6.570   5.703  17.355  0.00  0.00    +0.000 A 
ATOM     22  C   UNL     1       5.323   5.138  17.674  0.00  0.00    +0.000 A 
ATOM     23  C   UNL     1       4.691   5.366  18.918  0.00  0.00    +0.000 A 
ATOM     24  C   UNL     1       3.454   4.781  19.236  0.00  0.00    +0.000 A 
ATOM     25  C   UNL     1       2.842   3.971  18.259  0.00  0.00    +0.000 A 
ATOM     26  C   UNL     1       3.445   3.754  17.015  0.00  0.00    +0.000 A 
ATOM     27  C   UNL     1       4.686   4.328  16.709  0.00  0.00    +0.000 A 
ATOM     28  C   UNL     1       5.303   4.117  15.460  0.00  0.00    +0.000 A 
BRANCH  19  30
ATOM     29  C   UNL     1       6.146   3.702  13.045  0.00  0.00    +0.000 C 
ATOM     30  O   UNL     1       7.046   4.370  13.926  0.00  0.00    +0.000 OA
ENDBRANCH  19  30
ENDBRANCH  17  24
ENDBRANCH   1  17
TORSDOF 4
ENDMDL
