MODEL 1
REMARK VINA RESULT:      -9.5      0.000      0.000
REMARK  Name = 
REMARK  5 active torsions:
REMARK  status: ('A' for Active; 'I' for Inactive)
REMARK    1  A    between atoms: S_2  and  C_3
REMARK    2  A    between atoms: S_2  and  C_16
REMARK    3  A    between atoms: C_3  and  C_4
REMARK    4  A    between atoms: C_7  and  C_8
REMARK    5  A    between atoms: C_8  and  C_9
REMARK                            x       y       z     vdW  Elec       q    Type
REMARK                         _______ _______ _______ _____ _____    ______ ____
ROOT
ATOM      1  C   UNL     1       6.932   5.127  16.619  0.00  0.00    +0.000 C 
ENDROOT
BRANCH   1   2
ATOM      2  C   UNL     1       7.467   6.248  17.416  0.00  0.00    +0.000 A 
ATOM      3  N   UNL     1       7.947   6.240  18.637  0.00  0.00    +0.000 NA
ATOM      4  N   UNL     1       8.307   7.543  18.924  0.00  0.00    +0.000 NA
ATOM      5  C   UNL     1       8.027   8.253  17.852  0.00  0.00    +0.000 A 
ATOM      6  O   UNL     1       7.484   7.497  16.843  0.00  0.00    +0.000 OA
BRANCH   5   7
ATOM      7  C   UNL     1       8.104   9.723  17.655  0.00  0.00    +0.000 C 
BRANCH   7   8
ATOM      8  C   UNL     1       9.207  10.408  18.436  0.00  0.00    +0.000 A 
ATOM      9  C   UNL     1      10.266  11.032  17.757  0.00  0.00    +0.000 A 
ATOM     10  C   UNL     1      11.244  11.735  18.460  0.00  0.00    +0.000 A 
ATOM     11  C   UNL     1      11.171  11.839  19.847  0.00  0.00    +0.000 A 
ATOM     12  C   UNL     1      10.114  11.231  20.531  0.00  0.00    +0.000 A 
ATOM     13  C   UNL     1       9.137  10.527  19.828  0.00  0.00    +0.000 A 
ENDBRANCH   7   8
ENDBRANCH   5   7
ENDBRANCH   1   2
BRANCH   1  15
ATOM     14  O   UNL     1       5.477   7.091  15.527  0.00  0.00    +0.000 OA
ATOM     15  S   UNL     1       5.413   5.603  15.722  0.00  0.00    +0.000 S 
BRANCH  15  16
ATOM     16  C   UNL     1       4.246   5.374  17.086  0.00  0.00    +0.000 A 
ATOM     17  C   UNL     1       3.952   6.441  17.936  0.00  0.00    +0.000 A 
ATOM     18  C   UNL     1       3.187   6.229  19.077  0.00  0.00    +0.000 A 
ATOM     19  C   UNL     1       2.585   4.986  19.303  0.00  0.00    +0.000 A 
ATOM     20  C   UNL     1       1.794   4.780  20.439  0.00  0.00    +0.000 A 
ATOM     21  C   UNL     1       0.907   3.708  20.481  0.00  0.00    +0.000 A 
ATOM     22  C   UNL     1       0.925   2.757  19.466  0.00  0.00    +0.000 A 
ATOM     23  C   UNL     1       1.886   2.831  18.453  0.00  0.00    +0.000 A 
ATOM     24  C   UNL     1       2.710   3.963  18.339  0.00  0.00    +0.000 A 
ATOM     25  C   UNL     1       3.622   4.136  17.280  0.00  0.00    +0.000 A 
ENDBRANCH  15  16
ENDBRANCH   1  15
TORSDOF 5
ENDMDL
MODEL 2
REMARK VINA RESULT:      -9.5      4.278      6.660
REMARK  Name = 
REMARK  5 active torsions:
REMARK  status: ('A' for Active; 'I' for Inactive)
REMARK    1  A    between atoms: S_2  and  C_3
REMARK    2  A    between atoms: S_2  and  C_16
REMARK    3  A    between atoms: C_3  and  C_4
REMARK    4  A    between atoms: C_7  and  C_8
REMARK    5  A    between atoms: C_8  and  C_9
REMARK                            x       y       z     vdW  Elec       q    Type
REMARK                         _______ _______ _______ _____ _____    ______ ____
ROOT
ATOM      1  C   UNL     1       7.327   4.535  17.631  0.00  0.00    +0.000 C 
ENDROOT
BRANCH   1   2
ATOM      2  C   UNL     1       6.926   5.015  16.294  0.00  0.00    +0.000 A 
ATOM      3  N   UNL     1       5.941   5.818  15.965  0.00  0.00    +0.000 NA
ATOM      4  N   UNL     1       5.985   5.946  14.590  0.00  0.00    +0.000 NA
ATOM      5  C   UNL     1       7.000   5.217  14.179  0.00  0.00    +0.000 A 
ATOM      6  O   UNL     1       7.652   4.588  15.209  0.00  0.00    +0.000 OA
BRANCH   5   7
ATOM      7  C   UNL     1       7.429   4.905  12.791  0.00  0.00    +0.000 C 
BRANCH   7   8
ATOM      8  C   UNL     1       6.823   3.642  12.213  0.00  0.00    +0.000 A 
ATOM      9  C   UNL     1       5.427   3.496  12.152  0.00  0.00    +0.000 A 
ATOM     10  C   UNL     1       4.856   2.376  11.548  0.00  0.00    +0.000 A 
ATOM     11  C   UNL     1       5.668   1.395  10.984  0.00  0.00    +0.000 A 
ATOM     12  C   UNL     1       7.058   1.537  11.029  0.00  0.00    +0.000 A 
ATOM     13  C   UNL     1       7.628   2.657  11.633  0.00  0.00    +0.000 A 
ENDBRANCH   7   8
ENDBRANCH   5   7
ENDBRANCH   1   2
BRANCH   1  15
ATOM     14  O   UNL     1       7.551   5.262  20.198  0.00  0.00    +0.000 OA
ATOM     15  S   UNL     1       6.872   5.726  18.940  0.00  0.00    +0.000 S 
BRANCH  15  16
ATOM     16  C   UNL     1       5.148   5.214  19.141  0.00  0.00    +0.000 A 
ATOM     17  C   UNL     1       4.152   6.176  19.313  0.00  0.00    +0.000 A 
ATOM     18  C   UNL     1       2.856   5.784  19.630  0.00  0.00    +0.000 A 
ATOM     19  C   UNL     1       2.508   4.429  19.634  0.00  0.00    +0.000 A 
ATOM     20  C   UNL     1       1.197   4.036  19.929  0.00  0.00    +0.000 A 
ATOM     21  C   UNL     1       0.759   2.764  19.573  0.00  0.00    +0.000 A 
ATOM     22  C   UNL     1       1.666   1.836  19.075  0.00  0.00    +0.000 A 
ATOM     23  C   UNL     1       3.026   2.149  19.009  0.00  0.00    +0.000 A 
ATOM     24  C   UNL     1       3.464   3.461  19.259  0.00  0.00    +0.000 A 
ATOM     25  C   UNL     1       4.807   3.856  19.107  0.00  0.00    +0.000 A 
ENDBRANCH  15  16
ENDBRANCH   1  15
TORSDOF 5
ENDMDL
MODEL 3
REMARK VINA RESULT:      -9.2      1.057      1.304
REMARK  Name = 
REMARK  5 active torsions:
REMARK  status: ('A' for Active; 'I' for Inactive)
REMARK    1  A    between atoms: S_2  and  C_3
REMARK    2  A    between atoms: S_2  and  C_16
REMARK    3  A    between atoms: C_3  and  C_4
REMARK    4  A    between atoms: C_7  and  C_8
REMARK    5  A    between atoms: C_8  and  C_9
REMARK                            x       y       z     vdW  Elec       q    Type
REMARK                         _______ _______ _______ _____ _____    ______ ____
ROOT
ATOM      1  C   UNL     1       6.896   5.506  16.577  0.00  0.00    +0.000 C 
ENDROOT
BRANCH   1   2
ATOM      2  C   UNL     1       7.487   6.580  17.399  0.00  0.00    +0.000 A 
ATOM      3  N   UNL     1       8.006   6.511  18.602  0.00  0.00    +0.000 NA
ATOM      4  N   UNL     1       8.410   7.791  18.928  0.00  0.00    +0.000 NA
ATOM      5  C   UNL     1       8.115   8.550  17.895  0.00  0.00    +0.000 A 
ATOM      6  O   UNL     1       7.520   7.850  16.876  0.00  0.00    +0.000 OA
BRANCH   5   7
ATOM      7  C   UNL     1       8.226  10.025  17.753  0.00  0.00    +0.000 C 
BRANCH   7   8
ATOM      8  C   UNL     1       9.383  10.646  18.509  0.00  0.00    +0.000 A 
ATOM      9  C   UNL     1      10.494  11.143  17.809  0.00  0.00    +0.000 A 
ATOM     10  C   UNL     1      11.529  11.790  18.485  0.00  0.00    +0.000 A 
ATOM     11  C   UNL     1      11.462  11.964  19.865  0.00  0.00    +0.000 A 
ATOM     12  C   UNL     1      10.354  11.485  20.569  0.00  0.00    +0.000 A 
ATOM     13  C   UNL     1       9.320  10.836  19.893  0.00  0.00    +0.000 A 
ENDBRANCH   7   8
ENDBRANCH   5   7
ENDBRANCH   1   2
BRANCH   1  15
ATOM     14  O   UNL     1       4.861   7.247  16.589  0.00  0.00    +0.000 OA
ATOM     15  S   UNL     1       5.123   5.807  16.248  0.00  0.00    +0.000 S 
BRANCH  15  16
ATOM     16  C   UNL     1       4.458   4.881  17.653  0.00  0.00    +0.000 A 
ATOM     17  C   UNL     1       5.319   4.166  18.486  0.00  0.00    +0.000 A 
ATOM     18  C   UNL     1       4.800   3.325  19.464  0.00  0.00    +0.000 A 
ATOM     19  C   UNL     1       3.424   3.302  19.718  0.00  0.00    +0.000 A 
ATOM     20  C   UNL     1       2.904   2.473  20.719  0.00  0.00    +0.000 A 
ATOM     21  C   UNL     1       1.630   2.715  21.226  0.00  0.00    +0.000 A 
ATOM     22  C   UNL     1       0.820   3.673  20.628  0.00  0.00    +0.000 A 
ATOM     23  C   UNL     1       1.248   4.331  19.471  0.00  0.00    +0.000 A 
ATOM     24  C   UNL     1       2.569   4.178  19.017  0.00  0.00    +0.000 A 
ATOM     25  C   UNL     1       3.083   4.895  17.919  0.00  0.00    +0.000 A 
ENDBRANCH  15  16
ENDBRANCH   1  15
TORSDOF 5
ENDMDL
MODEL 4
REMARK VINA RESULT:      -8.9      1.543      2.221
REMARK  Name = 
REMARK  5 active torsions:
REMARK  status: ('A' for Active; 'I' for Inactive)
REMARK    1  A    between atoms: S_2  and  C_3
REMARK    2  A    between atoms: S_2  and  C_16
REMARK    3  A    between atoms: C_3  and  C_4
REMARK    4  A    between atoms: C_7  and  C_8
REMARK    5  A    between atoms: C_8  and  C_9
REMARK                            x       y       z     vdW  Elec       q    Type
REMARK                         _______ _______ _______ _____ _____    ______ ____
ROOT
ATOM      1  C   UNL     1       7.090   6.709  17.135  0.00  0.00    +0.000 C 
ENDROOT
BRANCH   1   2
ATOM      2  C   UNL     1       7.818   7.812  17.793  0.00  0.00    +0.000 A 
ATOM      3  N   UNL     1       8.558   7.785  18.876  0.00  0.00    +0.000 NA
ATOM      4  N   UNL     1       9.005   9.077  19.076  0.00  0.00    +0.000 NA
ATOM      5  C   UNL     1       8.511   9.799  18.094  0.00  0.00    +0.000 A 
ATOM      6  O   UNL     1       7.738   9.064  17.232  0.00  0.00    +0.000 OA
BRANCH   5   7
ATOM      7  C   UNL     1       8.579  11.269  17.886  0.00  0.00    +0.000 C 
BRANCH   7   8
ATOM      8  C   UNL     1       9.739  11.952  18.581  0.00  0.00    +0.000 A 
ATOM      9  C   UNL     1      10.954  11.269  18.757  0.00  0.00    +0.000 A 
ATOM     10  C   UNL     1      12.055  11.912  19.322  0.00  0.00    +0.000 A 
ATOM     11  C   UNL     1      11.965  13.249  19.704  0.00  0.00    +0.000 A 
ATOM     12  C   UNL     1      10.764  13.940  19.522  0.00  0.00    +0.000 A 
ATOM     13  C   UNL     1       9.663  13.296  18.959  0.00  0.00    +0.000 A 
ENDBRANCH   7   8
ENDBRANCH   5   7
ENDBRANCH   1   2
BRANCH   1  15
ATOM     14  O   UNL     1       7.978   4.188  16.969  0.00  0.00    +0.000 OA
ATOM     15  S   UNL     1       7.371   5.115  17.985  0.00  0.00    +0.000 S 
BRANCH  15  16
ATOM     16  C   UNL     1       5.642   4.594  18.096  0.00  0.00    +0.000 A 
ATOM     17  C   UNL     1       5.061   3.881  17.047  0.00  0.00    +0.000 A 
ATOM     18  C   UNL     1       3.695   3.621  17.056  0.00  0.00    +0.000 A 
ATOM     19  C   UNL     1       2.923   3.940  18.179  0.00  0.00    +0.000 A 
ATOM     20  C   UNL     1       1.552   3.657  18.197  0.00  0.00    +0.000 A 
ATOM     21  C   UNL     1       0.870   3.618  19.410  0.00  0.00    +0.000 A 
ATOM     22  C   UNL     1       1.512   4.017  20.577  0.00  0.00    +0.000 A 
ATOM     23  C   UNL     1       2.809   4.535  20.522  0.00  0.00    +0.000 A 
ATOM     24  C   UNL     1       3.545   4.476  19.326  0.00  0.00    +0.000 A 
ATOM     25  C   UNL     1       4.890   4.888  19.240  0.00  0.00    +0.000 A 
ENDBRANCH  15  16
ENDBRANCH   1  15
TORSDOF 5
ENDMDL
MODEL 5
REMARK VINA RESULT:      -8.9      1.904      2.521
REMARK  Name = 
REMARK  5 active torsions:
REMARK  status: ('A' for Active; 'I' for Inactive)
REMARK    1  A    between atoms: S_2  and  C_3
REMARK    2  A    between atoms: S_2  and  C_16
REMARK    3  A    between atoms: C_3  and  C_4
REMARK    4  A    between atoms: C_7  and  C_8
REMARK    5  A    between atoms: C_8  and  C_9
REMARK                            x       y       z     vdW  Elec       q    Type
REMARK                         _______ _______ _______ _____ _____    ______ ____
ROOT
ATOM      1  C   UNL     1       7.466   6.788  17.351  0.00  0.00    +0.000 C 
ENDROOT
BRANCH   1   2
ATOM      2  C   UNL     1       7.814   8.173  17.723  0.00  0.00    +0.000 A 
ATOM      3  N   UNL     1       7.374   9.301  17.216  0.00  0.00    +0.000 NA
ATOM      4  N   UNL     1       8.013  10.313  17.905  0.00  0.00    +0.000 NA
ATOM      5  C   UNL     1       8.793   9.730  18.790  0.00  0.00    +0.000 A 
ATOM      6  O   UNL     1       8.723   8.361  18.735  0.00  0.00    +0.000 OA
BRANCH   5   7
ATOM      7  C   UNL     1       9.787  10.340  19.710  0.00  0.00    +0.000 C 
BRANCH   7   8
ATOM      8  C   UNL     1      10.398  11.634  19.211  0.00  0.00    +0.000 A 
ATOM      9  C   UNL     1      10.077  12.850  19.837  0.00  0.00    +0.000 A 
ATOM     10  C   UNL     1      10.693  14.037  19.441  0.00  0.00    +0.000 A 
ATOM     11  C   UNL     1      11.649  14.025  18.428  0.00  0.00    +0.000 A 
ATOM     12  C   UNL     1      11.983  12.818  17.807  0.00  0.00    +0.000 A 
ATOM     13  C   UNL     1      11.366  11.632  18.202  0.00  0.00    +0.000 A 
ENDBRANCH   7   8
ENDBRANCH   5   7
ENDBRANCH   1   2
BRANCH   1  15
ATOM     14  O   UNL     1       8.118   4.477  18.538  0.00  0.00    +0.000 OA
ATOM     15  S   UNL     1       7.311   5.714  18.821  0.00  0.00    +0.000 S 
BRANCH  15  16
ATOM     16  C   UNL     1       5.595   5.202  18.567  0.00  0.00    +0.000 A 
ATOM     17  C   UNL     1       4.757   5.961  17.748  0.00  0.00    +0.000 A 
ATOM     18  C   UNL     1       3.400   5.666  17.680  0.00  0.00    +0.000 A 
ATOM     19  C   UNL     1       2.893   4.524  18.310  0.00  0.00    +0.000 A 
ATOM     20  C   UNL     1       1.531   4.213  18.220  0.00  0.00    +0.000 A 
ATOM     21  C   UNL     1       1.094   2.923  18.507  0.00  0.00    +0.000 A 
ATOM     22  C   UNL     1       1.984   1.994  19.034  0.00  0.00    +0.000 A 
ATOM     23  C   UNL     1       3.290   2.377  19.354  0.00  0.00    +0.000 A 
ATOM     24  C   UNL     1       3.773   3.639  18.968  0.00  0.00    +0.000 A 
ATOM     25  C   UNL     1       5.108   4.038  19.173  0.00  0.00    +0.000 A 
ENDBRANCH  15  16
ENDBRANCH   1  15
TORSDOF 5
ENDMDL
MODEL 6
REMARK VINA RESULT:      -8.8      1.371      2.127
REMARK  Name = 
REMARK  5 active torsions:
REMARK  status: ('A' for Active; 'I' for Inactive)
REMARK    1  A    between atoms: S_2  and  C_3
REMARK    2  A    between atoms: S_2  and  C_16
REMARK    3  A    between atoms: C_3  and  C_4
REMARK    4  A    between atoms: C_7  and  C_8
REMARK    5  A    between atoms: C_8  and  C_9
REMARK                            x       y       z     vdW  Elec       q    Type
REMARK                         _______ _______ _______ _____ _____    ______ ____
ROOT
ATOM      1  C   UNL     1       7.368   5.811  17.712  0.00  0.00    +0.000 C 
ENDROOT
BRANCH   1   2
ATOM      2  C   UNL     1       7.648   7.259  17.761  0.00  0.00    +0.000 A 
ATOM      3  N   UNL     1       7.235   8.209  16.955  0.00  0.00    +0.000 NA
ATOM      4  N   UNL     1       7.783   9.386  17.427  0.00  0.00    +0.000 NA
ATOM      5  C   UNL     1       8.486   9.071  18.493  0.00  0.00    +0.000 A 
ATOM      6  O   UNL     1       8.452   7.728  18.772  0.00  0.00    +0.000 OA
BRANCH   5   7
ATOM      7  C   UNL     1       9.373   9.930  19.318  0.00  0.00    +0.000 C 
BRANCH   7   8
ATOM      8  C   UNL     1       9.810  11.217  18.646  0.00  0.00    +0.000 A 
ATOM      9  C   UNL     1      11.076  11.300  18.044  0.00  0.00    +0.000 A 
ATOM     10  C   UNL     1      11.459  12.449  17.351  0.00  0.00    +0.000 A 
ATOM     11  C   UNL     1      10.579  13.522  17.236  0.00  0.00    +0.000 A 
ATOM     12  C   UNL     1       9.312  13.443  17.821  0.00  0.00    +0.000 A 
ATOM     13  C   UNL     1       8.930  12.296  18.515  0.00  0.00    +0.000 A 
ENDBRANCH   7   8
ENDBRANCH   5   7
ENDBRANCH   1   2
BRANCH   1  15
ATOM     14  O   UNL     1       5.889   6.663  15.649  0.00  0.00    +0.000 OA
ATOM     15  S   UNL     1       6.349   5.369  16.261  0.00  0.00    +0.000 S 
BRANCH  15  16
ATOM     16  C   UNL     1       4.904   4.754  17.159  0.00  0.00    +0.000 A 
ATOM     17  C   UNL     1       4.410   3.477  16.891  0.00  0.00    +0.000 A 
ATOM     18  C   UNL     1       3.209   3.065  17.458  0.00  0.00    +0.000 A 
ATOM     19  C   UNL     1       2.566   3.862  18.411  0.00  0.00    +0.000 A 
ATOM     20  C   UNL     1       1.370   3.436  19.000  0.00  0.00    +0.000 A 
ATOM     21  C   UNL     1       0.936   4.018  20.187  0.00  0.00    +0.000 A 
ATOM     22  C   UNL     1       1.603   5.126  20.696  0.00  0.00    +0.000 A 
ATOM     23  C   UNL     1       2.653   5.705  19.977  0.00  0.00    +0.000 A 
ATOM     24  C   UNL     1       3.171   5.064  18.839  0.00  0.00    +0.000 A 
ATOM     25  C   UNL     1       4.292   5.547  18.137  0.00  0.00    +0.000 A 
ENDBRANCH  15  16
ENDBRANCH   1  15
TORSDOF 5
ENDMDL
MODEL 7
REMARK VINA RESULT:      -8.8      4.260      6.646
REMARK  Name = 
REMARK  5 active torsions:
REMARK  status: ('A' for Active; 'I' for Inactive)
REMARK    1  A    between atoms: S_2  and  C_3
REMARK    2  A    between atoms: S_2  and  C_16
REMARK    3  A    between atoms: C_3  and  C_4
REMARK    4  A    between atoms: C_7  and  C_8
REMARK    5  A    between atoms: C_8  and  C_9
REMARK                            x       y       z     vdW  Elec       q    Type
REMARK                         _______ _______ _______ _____ _____    ______ ____
ROOT
ATOM      1  C   UNL     1       7.356   4.588  17.571  0.00  0.00    +0.000 C 
ENDROOT
BRANCH   1   2
ATOM      2  C   UNL     1       6.683   5.023  16.332  0.00  0.00    +0.000 A 
ATOM      3  N   UNL     1       6.434   6.240  15.909  0.00  0.00    +0.000 NA
ATOM      4  N   UNL     1       5.778   6.107  14.701  0.00  0.00    +0.000 NA
ATOM      5  C   UNL     1       5.679   4.816  14.469  0.00  0.00    +0.000 A 
ATOM      6  O   UNL     1       6.232   4.054  15.468  0.00  0.00    +0.000 OA
BRANCH   5   7
ATOM      7  C   UNL     1       4.963   4.112  13.375  0.00  0.00    +0.000 C 
BRANCH   7   8
ATOM      8  C   UNL     1       5.848   3.258  12.489  0.00  0.00    +0.000 A 
ATOM      9  C   UNL     1       5.330   2.099  11.886  0.00  0.00    +0.000 A 
ATOM     10  C   UNL     1       6.109   1.349  11.005  0.00  0.00    +0.000 A 
ATOM     11  C   UNL     1       7.406   1.753  10.700  0.00  0.00    +0.000 A 
ATOM     12  C   UNL     1       7.925   2.911  11.285  0.00  0.00    +0.000 A 
ATOM     13  C   UNL     1       7.148   3.660  12.167  0.00  0.00    +0.000 A 
ENDBRANCH   7   8
ENDBRANCH   5   7
ENDBRANCH   1   2
BRANCH   1  15
ATOM     14  O   UNL     1       7.643   5.109  20.182  0.00  0.00    +0.000 OA
ATOM     15  S   UNL     1       6.957   5.687  18.976  0.00  0.00    +0.000 S 
BRANCH  15  16
ATOM     16  C   UNL     1       5.223   5.211  19.169  0.00  0.00    +0.000 A 
ATOM     17  C   UNL     1       4.235   6.194  19.248  0.00  0.00    +0.000 A 
ATOM     18  C   UNL     1       2.927   5.841  19.559  0.00  0.00    +0.000 A 
ATOM     19  C   UNL     1       2.561   4.493  19.648  0.00  0.00    +0.000 A 
ATOM     20  C   UNL     1       1.238   4.138  19.937  0.00  0.00    +0.000 A 
ATOM     21  C   UNL     1       0.791   2.849  19.660  0.00  0.00    +0.000 A 
ATOM     22  C   UNL     1       1.698   1.877  19.250  0.00  0.00    +0.000 A 
ATOM     23  C   UNL     1       3.063   2.169  19.197  0.00  0.00    +0.000 A 
ATOM     24  C   UNL     1       3.513   3.490  19.366  0.00  0.00    +0.000 A 
ATOM     25  C   UNL     1       4.864   3.858  19.221  0.00  0.00    +0.000 A 
ENDBRANCH  15  16
ENDBRANCH   1  15
TORSDOF 5
ENDMDL
MODEL 8
REMARK VINA RESULT:      -8.7      3.646      6.541
REMARK  Name = 
REMARK  5 active torsions:
REMARK  status: ('A' for Active; 'I' for Inactive)
REMARK    1  A    between atoms: S_2  and  C_3
REMARK    2  A    between atoms: S_2  and  C_16
REMARK    3  A    between atoms: C_3  and  C_4
REMARK    4  A    between atoms: C_7  and  C_8
REMARK    5  A    between atoms: C_8  and  C_9
REMARK                            x       y       z     vdW  Elec       q    Type
REMARK                         _______ _______ _______ _____ _____    ______ ____
ROOT
ATOM      1  C   UNL     1       5.839   6.712  17.305  0.00  0.00    +0.000 C 
ENDROOT
BRANCH   1   2
ATOM      2  C   UNL     1       6.480   5.783  16.354  0.00  0.00    +0.000 A 
ATOM      3  N   UNL     1       7.160   4.687  16.599  0.00  0.00    +0.000 NA
ATOM      4  N   UNL     1       7.555   4.191  15.371  0.00  0.00    +0.000 NA
ATOM      5  C   UNL     1       7.080   5.016  14.463  0.00  0.00    +0.000 A 
ATOM      6  O   UNL     1       6.383   6.063  15.012  0.00  0.00    +0.000 OA
BRANCH   5   7
ATOM      7  C   UNL     1       7.305   5.024  12.995  0.00  0.00    +0.000 C 
BRANCH   7   8
ATOM      8  C   UNL     1       6.759   3.812  12.267  0.00  0.00    +0.000 A 
ATOM      9  C   UNL     1       7.640   2.873  11.706  0.00  0.00    +0.000 A 
ATOM     10  C   UNL     1       7.152   1.713  11.105  0.00  0.00    +0.000 A 
ATOM     11  C   UNL     1       5.782   1.466  11.068  0.00  0.00    +0.000 A 
ATOM     12  C   UNL     1       4.898   2.389  11.634  0.00  0.00    +0.000 A 
ATOM     13  C   UNL     1       5.386   3.550  12.234  0.00  0.00    +0.000 A 
ENDBRANCH   7   8
ENDBRANCH   5   7
ENDBRANCH   1   2
BRANCH   1  15
ATOM     14  O   UNL     1       3.627   8.164  17.712  0.00  0.00    +0.000 OA
ATOM     15  S   UNL     1       4.079   6.987  16.895  0.00  0.00    +0.000 S 
BRANCH  15  16
ATOM     16  C   UNL     1       3.403   5.549  17.761  0.00  0.00    +0.000 A 
ATOM     17  C   UNL     1       3.301   4.324  17.101  0.00  0.00    +0.000 A 
ATOM     18  C   UNL     1       2.635   3.263  17.704  0.00  0.00    +0.000 A 
ATOM     19  C   UNL     1       2.195   3.367  19.028  0.00  0.00    +0.000 A 
ATOM     20  C   UNL     1       1.546   2.290  19.644  0.00  0.00    +0.000 A 
ATOM     21  C   UNL     1       1.448   2.243  21.032  0.00  0.00    +0.000 A 
ATOM     22  C   UNL     1       1.849   3.337  21.790  0.00  0.00    +0.000 A 
ATOM     23  C   UNL     1       2.270   4.511  21.159  0.00  0.00    +0.000 A 
ATOM     24  C   UNL     1       2.478   4.534  19.770  0.00  0.00    +0.000 A 
ATOM     25  C   UNL     1       2.999   5.656  19.097  0.00  0.00    +0.000 A 
ENDBRANCH  15  16
ENDBRANCH   1  15
TORSDOF 5
ENDMDL
MODEL 9
REMARK VINA RESULT:      -8.6      2.829      9.776
REMARK  Name = 
REMARK  5 active torsions:
REMARK  status: ('A' for Active; 'I' for Inactive)
REMARK    1  A    between atoms: S_2  and  C_3
REMARK    2  A    between atoms: S_2  and  C_16
REMARK    3  A    between atoms: C_3  and  C_4
REMARK    4  A    between atoms: C_7  and  C_8
REMARK    5  A    between atoms: C_8  and  C_9
REMARK                            x       y       z     vdW  Elec       q    Type
REMARK                         _______ _______ _______ _____ _____    ______ ____
ROOT
ATOM      1  C   UNL     1       8.303   9.890  17.920  0.00  0.00    +0.000 C 
ENDROOT
BRANCH   1   2
ATOM      2  C   UNL     1       7.949   8.457  17.946  0.00  0.00    +0.000 A 
ATOM      3  N   UNL     1       8.396   7.508  18.735  0.00  0.00    +0.000 NA
ATOM      4  N   UNL     1       7.759   6.346  18.346  0.00  0.00    +0.000 NA
ATOM      5  C   UNL     1       6.961   6.670  17.351  0.00  0.00    +0.000 A 
ATOM      6  O   UNL     1       7.027   8.003  17.034  0.00  0.00    +0.000 OA
BRANCH   5   7
ATOM      7  C   UNL     1       6.134   5.789  16.488  0.00  0.00    +0.000 C 
BRANCH   7   8
ATOM      8  C   UNL     1       4.779   5.431  17.065  0.00  0.00    +0.000 A 
ATOM      9  C   UNL     1       3.997   6.418  17.687  0.00  0.00    +0.000 A 
ATOM     10  C   UNL     1       2.716   6.121  18.151  0.00  0.00    +0.000 A 
ATOM     11  C   UNL     1       2.191   4.842  17.985  0.00  0.00    +0.000 A 
ATOM     12  C   UNL     1       2.957   3.856  17.356  0.00  0.00    +0.000 A 
ATOM     13  C   UNL     1       4.239   4.153  16.894  0.00  0.00    +0.000 A 
ENDBRANCH   7   8
ENDBRANCH   5   7
ENDBRANCH   1   2
BRANCH   1  15
ATOM     14  O   UNL     1       9.009  10.615  20.399  0.00  0.00    +0.000 OA
ATOM     15  S   UNL     1       9.657  10.270  19.088  0.00  0.00    +0.000 S 
BRANCH  15  16
ATOM     16  C   UNL     1      10.138  11.867  18.386  0.00  0.00    +0.000 A 
ATOM     17  C   UNL     1      11.178  11.934  17.458  0.00  0.00    +0.000 A 
ATOM     18  C   UNL     1      11.657  13.171  17.041  0.00  0.00    +0.000 A 
ATOM     19  C   UNL     1      11.009  14.348  17.431  0.00  0.00    +0.000 A 
ATOM     20  C   UNL     1      11.478  15.592  16.992  0.00  0.00    +0.000 A 
ATOM     21  C   UNL     1      10.646  16.707  17.055  0.00  0.00    +0.000 A 
ATOM     22  C   UNL     1       9.418  16.616  17.701  0.00  0.00    +0.000 A 
ATOM     23  C   UNL     1       9.055  15.436  18.356  0.00  0.00    +0.000 A 
ATOM     24  C   UNL     1       9.831  14.274  18.205  0.00  0.00    +0.000 A 
ATOM     25  C   UNL     1       9.459  13.033  18.757  0.00  0.00    +0.000 A 
ENDBRANCH  15  16
ENDBRANCH   1  15
TORSDOF 5
ENDMDL
