MODEL 1
REMARK VINA RESULT:      -8.0      0.000      0.000
REMARK  Name = 
REMARK  5 active torsions:
REMARK  status: ('A' for Active; 'I' for Inactive)
REMARK    1  A    between atoms: C_2  and  C_3
REMARK    2  A    between atoms: C_3  and  N_4
REMARK    3  A    between atoms: N_15  and  C_16
REMARK    4  A    between atoms: C_16  and  C_17
REMARK    5  A    between atoms: C_17  and  C_18
REMARK                            x       y       z     vdW  Elec       q    Type
REMARK                         _______ _______ _______ _____ _____    ______ ____
ROOT
ATOM      1  O   UNL     1       0.862   4.114  19.684  0.00  0.00    +0.000 OA
ATOM      2  C   UNL     1       1.816   4.622  20.273  0.00  0.00    +0.000 C 
ATOM      3  N   UNL     1       3.081   4.066  20.262  0.00  0.00    +0.000 N 
ATOM      4  H   UNL     1       3.754   4.415  20.938  0.00  0.00    +0.000 HD
ENDROOT
BRANCH   2   5
ATOM      5  C   UNL     1       1.713   5.948  21.032  0.00  0.00    +0.000 C 
BRANCH   5   6
ATOM      6  N   UNL     1       1.899   7.113  20.146  0.00  0.00    +0.000 N 
ATOM      7  N   UNL     1       2.473   6.818  18.926  0.00  0.00    +0.000 NA
ATOM      8  C   UNL     1       2.525   7.736  18.013  0.00  0.00    +0.000 A 
ATOM      9  C   UNL     1       1.993   9.114  18.205  0.00  0.00    +0.000 A 
ATOM     10  O   UNL     1       2.200   9.957  17.348  0.00  0.00    +0.000 OA
ATOM     11  C   UNL     1       1.207   9.341  19.417  0.00  0.00    +0.000 A 
ATOM     12  C   UNL     1       0.503  10.542  19.576  0.00  0.00    +0.000 A 
ATOM     13  C   UNL     1      -0.285  10.724  20.705  0.00  0.00    +0.000 A 
ATOM     14  C   UNL     1      -0.338   9.723  21.669  0.00  0.00    +0.000 A 
ATOM     15  C   UNL     1       0.391   8.536  21.502  0.00  0.00    +0.000 A 
ATOM     16  C   UNL     1       1.172   8.302  20.359  0.00  0.00    +0.000 A 
ENDBRANCH   5   6
ENDBRANCH   2   5
BRANCH   3  17
ATOM     17  C   UNL     1       3.367   2.837  19.540  0.00  0.00    +0.000 C 
BRANCH  17  18
ATOM     18  C   UNL     1       4.808   2.805  19.035  0.00  0.00    +0.000 C 
BRANCH  18  19
ATOM     19  C   UNL     1       5.082   3.870  17.996  0.00  0.00    +0.000 A 
ATOM     20  C   UNL     1       4.289   3.905  16.833  0.00  0.00    +0.000 A 
ATOM     21  C   UNL     1       4.520   4.859  15.850  0.00  0.00    +0.000 A 
ATOM     22  C   UNL     1       5.536   5.793  16.024  0.00  0.00    +0.000 A 
ATOM     23  C   UNL     1       6.306   5.794  17.198  0.00  0.00    +0.000 A 
ATOM     24  C   UNL     1       7.292   6.765  17.411  0.00  0.00    +0.000 A 
ATOM     25  C   UNL     1       8.013   6.772  18.598  0.00  0.00    +0.000 A 
ATOM     26  C   UNL     1       7.741   5.784  19.521  0.00  0.00    +0.000 A 
ATOM     27  N   UNL     1       6.812   4.819  19.342  0.00  0.00    +0.000 NA
ATOM     28  C   UNL     1       6.087   4.823  18.203  0.00  0.00    +0.000 A 
ENDBRANCH  18  19
ENDBRANCH  17  18
ENDBRANCH   3  17
TORSDOF 5
ENDMDL
MODEL 2
REMARK VINA RESULT:      -8.0      3.642      8.713
REMARK  Name = 
REMARK  5 active torsions:
REMARK  status: ('A' for Active; 'I' for Inactive)
REMARK    1  A    between atoms: C_2  and  C_3
REMARK    2  A    between atoms: C_3  and  N_4
REMARK    3  A    between atoms: N_15  and  C_16
REMARK    4  A    between atoms: C_16  and  C_17
REMARK    5  A    between atoms: C_17  and  C_18
REMARK                            x       y       z     vdW  Elec       q    Type
REMARK                         _______ _______ _______ _____ _____    ______ ____
ROOT
ATOM      1  O   UNL     1       2.054   8.901  17.259  0.00  0.00    +0.000 OA
ATOM      2  C   UNL     1       1.846   8.646  18.445  0.00  0.00    +0.000 C 
ATOM      3  N   UNL     1       1.015   9.414  19.238  0.00  0.00    +0.000 N 
ATOM      4  H   UNL     1       1.064   9.275  20.242  0.00  0.00    +0.000 HD
ENDROOT
BRANCH   2   5
ATOM      5  C   UNL     1       2.441   7.423  19.148  0.00  0.00    +0.000 C 
BRANCH   5   6
ATOM      6  N   UNL     1       3.059   6.480  18.198  0.00  0.00    +0.000 N 
ATOM      7  N   UNL     1       4.251   6.914  17.654  0.00  0.00    +0.000 NA
ATOM      8  C   UNL     1       4.956   6.094  16.941  0.00  0.00    +0.000 A 
ATOM      9  C   UNL     1       4.553   4.686  16.670  0.00  0.00    +0.000 A 
ATOM     10  O   UNL     1       5.203   4.022  15.881  0.00  0.00    +0.000 OA
ATOM     11  C   UNL     1       3.403   4.187  17.424  0.00  0.00    +0.000 A 
ATOM     12  C   UNL     1       3.083   2.824  17.383  0.00  0.00    +0.000 A 
ATOM     13  C   UNL     1       2.023   2.351  18.147  0.00  0.00    +0.000 A 
ATOM     14  C   UNL     1       1.285   3.244  18.915  0.00  0.00    +0.000 A 
ATOM     15  C   UNL     1       1.607   4.609  18.926  0.00  0.00    +0.000 A 
ATOM     16  C   UNL     1       2.691   5.119  18.193  0.00  0.00    +0.000 A 
ENDBRANCH   5   6
ENDBRANCH   2   5
BRANCH   3  17
ATOM     17  C   UNL     1       0.323  10.579  18.712  0.00  0.00    +0.000 C 
BRANCH  17  18
ATOM     18  C   UNL     1      -1.120  10.646  19.207  0.00  0.00    +0.000 C 
BRANCH  18  19
ATOM     19  C   UNL     1      -2.122  10.668  18.073  0.00  0.00    +0.000 A 
ATOM     20  C   UNL     1      -1.828   9.959  16.893  0.00  0.00    +0.000 A 
ATOM     21  C   UNL     1      -2.717   9.967  15.825  0.00  0.00    +0.000 A 
ATOM     22  C   UNL     1      -3.910  10.673  15.930  0.00  0.00    +0.000 A 
ATOM     23  C   UNL     1      -4.233  11.351  17.117  0.00  0.00    +0.000 A 
ATOM     24  C   UNL     1      -5.457  12.016  17.256  0.00  0.00    +0.000 A 
ATOM     25  C   UNL     1      -5.773  12.644  18.454  0.00  0.00    +0.000 A 
ATOM     26  C   UNL     1      -4.835  12.608  19.465  0.00  0.00    +0.000 A 
ATOM     27  N   UNL     1      -3.636  11.994  19.361  0.00  0.00    +0.000 NA
ATOM     28  C   UNL     1      -3.334  11.357  18.209  0.00  0.00    +0.000 A 
ENDBRANCH  18  19
ENDBRANCH  17  18
ENDBRANCH   3  17
TORSDOF 5
ENDMDL
MODEL 3
REMARK VINA RESULT:      -7.8      1.785      6.806
REMARK  Name = 
REMARK  5 active torsions:
REMARK  status: ('A' for Active; 'I' for Inactive)
REMARK    1  A    between atoms: C_2  and  C_3
REMARK    2  A    between atoms: C_3  and  N_4
REMARK    3  A    between atoms: N_15  and  C_16
REMARK    4  A    between atoms: C_16  and  C_17
REMARK    5  A    between atoms: C_17  and  C_18
REMARK                            x       y       z     vdW  Elec       q    Type
REMARK                         _______ _______ _______ _____ _____    ______ ____
ROOT
ATOM      1  O   UNL     1       3.073   2.941  20.933  0.00  0.00    +0.000 OA
ATOM      2  C   UNL     1       3.293   3.526  19.872  0.00  0.00    +0.000 C 
ATOM      3  N   UNL     1       2.587   4.646  19.478  0.00  0.00    +0.000 N 
ATOM      4  H   UNL     1       2.672   4.938  18.510  0.00  0.00    +0.000 HD
ENDROOT
BRANCH   2   5
ATOM      5  C   UNL     1       4.406   3.107  18.908  0.00  0.00    +0.000 C 
BRANCH   5   6
ATOM      6  N   UNL     1       5.294   4.231  18.559  0.00  0.00    +0.000 N 
ATOM      7  N   UNL     1       5.945   4.801  19.634  0.00  0.00    +0.000 NA
ATOM      8  C   UNL     1       6.871   5.681  19.419  0.00  0.00    +0.000 A 
ATOM      9  C   UNL     1       7.284   6.121  18.057  0.00  0.00    +0.000 A 
ATOM     10  O   UNL     1       8.067   7.049  17.942  0.00  0.00    +0.000 OA
ATOM     11  C   UNL     1       6.735   5.357  16.937  0.00  0.00    +0.000 A 
ATOM     12  C   UNL     1       7.225   5.571  15.642  0.00  0.00    +0.000 A 
ATOM     13  C   UNL     1       6.736   4.801  14.594  0.00  0.00    +0.000 A 
ATOM     14  C   UNL     1       5.750   3.853  14.846  0.00  0.00    +0.000 A 
ATOM     15  C   UNL     1       5.256   3.669  16.147  0.00  0.00    +0.000 A 
ATOM     16  C   UNL     1       5.749   4.405  17.236  0.00  0.00    +0.000 A 
ENDBRANCH   5   6
ENDBRANCH   2   5
BRANCH   3  17
ATOM     17  C   UNL     1       1.533   5.212  20.304  0.00  0.00    +0.000 C 
BRANCH  17  18
ATOM     18  C   UNL     1       1.974   6.519  20.959  0.00  0.00    +0.000 C 
BRANCH  18  19
ATOM     19  C   UNL     1       1.768   7.718  20.060  0.00  0.00    +0.000 A 
ATOM     20  C   UNL     1       2.304   7.691  18.759  0.00  0.00    +0.000 A 
ATOM     21  C   UNL     1       2.147   8.779  17.908  0.00  0.00    +0.000 A 
ATOM     22  C   UNL     1       1.445   9.896  18.345  0.00  0.00    +0.000 A 
ATOM     23  C   UNL     1       0.871   9.918  19.626  0.00  0.00    +0.000 A 
ATOM     24  C   UNL     1       0.111  11.014  20.056  0.00  0.00    +0.000 A 
ATOM     25  C   UNL     1      -0.482  10.996  21.311  0.00  0.00    +0.000 A 
ATOM     26  C   UNL     1      -0.269   9.890  22.107  0.00  0.00    +0.000 A 
ATOM     27  N   UNL     1       0.473   8.824  21.735  0.00  0.00    +0.000 NA
ATOM     28  C   UNL     1       1.029   8.822  20.505  0.00  0.00    +0.000 A 
ENDBRANCH  18  19
ENDBRANCH  17  18
ENDBRANCH   3  17
TORSDOF 5
ENDMDL
MODEL 4
REMARK VINA RESULT:      -7.7      5.025      8.445
REMARK  Name = 
REMARK  5 active torsions:
REMARK  status: ('A' for Active; 'I' for Inactive)
REMARK    1  A    between atoms: C_2  and  C_3
REMARK    2  A    between atoms: C_3  and  N_4
REMARK    3  A    between atoms: N_15  and  C_16
REMARK    4  A    between atoms: C_16  and  C_17
REMARK    5  A    between atoms: C_17  and  C_18
REMARK                            x       y       z     vdW  Elec       q    Type
REMARK                         _______ _______ _______ _____ _____    ______ ____
ROOT
ATOM      1  O   UNL     1       7.037   7.854  17.141  0.00  0.00    +0.000 OA
ATOM      2  C   UNL     1       7.774   7.424  18.027  0.00  0.00    +0.000 C 
ATOM      3  N   UNL     1       8.592   8.244  18.780  0.00  0.00    +0.000 N 
ATOM      4  H   UNL     1       9.321   7.802  19.332  0.00  0.00    +0.000 HD
ENDROOT
BRANCH   2   5
ATOM      5  C   UNL     1       7.821   5.946  18.424  0.00  0.00    +0.000 C 
BRANCH   5   6
ATOM      6  N   UNL     1       6.587   5.229  18.050  0.00  0.00    +0.000 N 
ATOM      7  N   UNL     1       5.553   5.362  18.954  0.00  0.00    +0.000 NA
ATOM      8  C   UNL     1       4.378   4.914  18.642  0.00  0.00    +0.000 A 
ATOM      9  C   UNL     1       4.072   4.254  17.342  0.00  0.00    +0.000 A 
ATOM     10  O   UNL     1       2.977   3.741  17.178  0.00  0.00    +0.000 OA
ATOM     11  C   UNL     1       5.120   4.312  16.324  0.00  0.00    +0.000 A 
ATOM     12  C   UNL     1       4.842   3.899  15.015  0.00  0.00    +0.000 A 
ATOM     13  C   UNL     1       5.829   4.010  14.042  0.00  0.00    +0.000 A 
ATOM     14  C   UNL     1       7.080   4.504  14.394  0.00  0.00    +0.000 A 
ATOM     15  C   UNL     1       7.345   4.893  15.716  0.00  0.00    +0.000 A 
ATOM     16  C   UNL     1       6.365   4.825  16.718  0.00  0.00    +0.000 A 
ENDBRANCH   5   6
ENDBRANCH   2   5
BRANCH   3  17
ATOM     17  C   UNL     1       8.627   9.683  18.574  0.00  0.00    +0.000 C 
BRANCH  17  18
ATOM     18  C   UNL     1       9.400  10.391  19.684  0.00  0.00    +0.000 C 
BRANCH  18  19
ATOM     19  C   UNL     1      10.182  11.583  19.178  0.00  0.00    +0.000 A 
ATOM     20  C   UNL     1      10.798  11.504  17.915  0.00  0.00    +0.000 A 
ATOM     21  C   UNL     1      11.536  12.574  17.421  0.00  0.00    +0.000 A 
ATOM     22  C   UNL     1      11.655  13.733  18.179  0.00  0.00    +0.000 A 
ATOM     23  C   UNL     1      11.011  13.839  19.422  0.00  0.00    +0.000 A 
ATOM     24  C   UNL     1      11.075  15.023  20.168  0.00  0.00    +0.000 A 
ATOM     25  C   UNL     1      10.396  15.119  21.375  0.00  0.00    +0.000 A 
ATOM     26  C   UNL     1       9.698  14.011  21.810  0.00  0.00    +0.000 A 
ATOM     27  N   UNL     1       9.629  12.847  21.128  0.00  0.00    +0.000 NA
ATOM     28  C   UNL     1      10.264  12.756  19.940  0.00  0.00    +0.000 A 
ENDBRANCH  18  19
ENDBRANCH  17  18
ENDBRANCH   3  17
TORSDOF 5
ENDMDL
MODEL 5
REMARK VINA RESULT:      -7.6      5.460      8.444
REMARK  Name = 
REMARK  5 active torsions:
REMARK  status: ('A' for Active; 'I' for Inactive)
REMARK    1  A    between atoms: C_2  and  C_3
REMARK    2  A    between atoms: C_3  and  N_4
REMARK    3  A    between atoms: N_15  and  C_16
REMARK    4  A    between atoms: C_16  and  C_17
REMARK    5  A    between atoms: C_17  and  C_18
REMARK                            x       y       z     vdW  Elec       q    Type
REMARK                         _______ _______ _______ _____ _____    ______ ____
ROOT
ATOM      1  O   UNL     1       7.627   8.597  17.007  0.00  0.00    +0.000 OA
ATOM      2  C   UNL     1       8.032   8.034  18.024  0.00  0.00    +0.000 C 
ATOM      3  N   UNL     1       8.719   8.699  19.021  0.00  0.00    +0.000 N 
ATOM      4  H   UNL     1       9.205   8.136  19.712  0.00  0.00    +0.000 HD
ENDROOT
BRANCH   2   5
ATOM      5  C   UNL     1       7.770   6.553  18.314  0.00  0.00    +0.000 C 
BRANCH   5   6
ATOM      6  N   UNL     1       6.931   5.923  17.277  0.00  0.00    +0.000 N 
ATOM      7  N   UNL     1       7.575   5.704  16.076  0.00  0.00    +0.000 NA
ATOM      8  C   UNL     1       6.983   5.006  15.159  0.00  0.00    +0.000 A 
ATOM      9  C   UNL     1       5.626   4.414  15.327  0.00  0.00    +0.000 A 
ATOM     10  O   UNL     1       5.084   3.886  14.371  0.00  0.00    +0.000 OA
ATOM     11  C   UNL     1       5.055   4.479  16.672  0.00  0.00    +0.000 A 
ATOM     12  C   UNL     1       3.880   3.773  16.964  0.00  0.00    +0.000 A 
ATOM     13  C   UNL     1       3.376   3.796  18.258  0.00  0.00    +0.000 A 
ATOM     14  C   UNL     1       4.033   4.541  19.232  0.00  0.00    +0.000 A 
ATOM     15  C   UNL     1       5.196   5.259  18.915  0.00  0.00    +0.000 A 
ATOM     16  C   UNL     1       5.752   5.234  17.626  0.00  0.00    +0.000 A 
ENDBRANCH   5   6
ENDBRANCH   2   5
BRANCH   3  17
ATOM     17  C   UNL     1       9.003  10.122  18.932  0.00  0.00    +0.000 C 
BRANCH  17  18
ATOM     18  C   UNL     1       9.945  10.578  20.045  0.00  0.00    +0.000 C 
BRANCH  18  19
ATOM     19  C   UNL     1      10.719  11.823  19.676  0.00  0.00    +0.000 A 
ATOM     20  C   UNL     1      11.579  11.783  18.562  0.00  0.00    +0.000 A 
ATOM     21  C   UNL     1      12.318  12.904  18.201  0.00  0.00    +0.000 A 
ATOM     22  C   UNL     1      12.195  14.075  18.939  0.00  0.00    +0.000 A 
ATOM     23  C   UNL     1      11.310  14.140  20.027  0.00  0.00    +0.000 A 
ATOM     24  C   UNL     1      11.133  15.331  20.742  0.00  0.00    +0.000 A 
ATOM     25  C   UNL     1      10.221  15.383  21.788  0.00  0.00    +0.000 A 
ATOM     26  C   UNL     1       9.536  14.227  22.101  0.00  0.00    +0.000 A 
ATOM     27  N   UNL     1       9.693  13.055  21.447  0.00  0.00    +0.000 NA
ATOM     28  C   UNL     1      10.558  13.005  20.411  0.00  0.00    +0.000 A 
ENDBRANCH  18  19
ENDBRANCH  17  18
ENDBRANCH   3  17
TORSDOF 5
ENDMDL
MODEL 6
REMARK VINA RESULT:      -7.6      2.481      4.321
REMARK  Name = 
REMARK  5 active torsions:
REMARK  status: ('A' for Active; 'I' for Inactive)
REMARK    1  A    between atoms: C_2  and  C_3
REMARK    2  A    between atoms: C_3  and  N_4
REMARK    3  A    between atoms: N_15  and  C_16
REMARK    4  A    between atoms: C_16  and  C_17
REMARK    5  A    between atoms: C_17  and  C_18
REMARK                            x       y       z     vdW  Elec       q    Type
REMARK                         _______ _______ _______ _____ _____    ______ ____
ROOT
ATOM      1  O   UNL     1       2.220  10.877  17.957  0.00  0.00    +0.000 OA
ATOM      2  C   UNL     1       1.337  10.040  18.140  0.00  0.00    +0.000 C 
ATOM      3  N   UNL     1       1.532   8.690  17.921  0.00  0.00    +0.000 N 
ATOM      4  H   UNL     1       0.709   8.096  17.883  0.00  0.00    +0.000 HD
ENDROOT
BRANCH   2   5
ATOM      5  C   UNL     1      -0.050  10.401  18.682  0.00  0.00    +0.000 C 
BRANCH   5   6
ATOM      6  N   UNL     1      -0.156  10.178  20.136  0.00  0.00    +0.000 N 
ATOM      7  N   UNL     1       0.806   9.336  20.657  0.00  0.00    +0.000 NA
ATOM      8  C   UNL     1       0.905   9.208  21.942  0.00  0.00    +0.000 A 
ATOM      9  C   UNL     1       0.029   9.929  22.908  0.00  0.00    +0.000 A 
ATOM     10  O   UNL     1       0.097   9.653  24.094  0.00  0.00    +0.000 OA
ATOM     11  C   UNL     1      -0.835  10.967  22.347  0.00  0.00    +0.000 A 
ATOM     12  C   UNL     1      -1.536  11.827  23.203  0.00  0.00    +0.000 A 
ATOM     13  C   UNL     1      -2.310  12.845  22.660  0.00  0.00    +0.000 A 
ATOM     14  C   UNL     1      -2.394  12.974  21.278  0.00  0.00    +0.000 A 
ATOM     15  C   UNL     1      -1.702  12.090  20.437  0.00  0.00    +0.000 A 
ATOM     16  C   UNL     1      -0.885  11.069  20.949  0.00  0.00    +0.000 A 
ENDBRANCH   5   6
ENDBRANCH   2   5
BRANCH   3  17
ATOM     17  C   UNL     1       2.809   8.169  17.462  0.00  0.00    +0.000 C 
BRANCH  17  18
ATOM     18  C   UNL     1       3.386   7.150  18.442  0.00  0.00    +0.000 C 
BRANCH  18  19
ATOM     19  C   UNL     1       3.452   5.756  17.858  0.00  0.00    +0.000 A 
ATOM     20  C   UNL     1       2.335   4.911  17.989  0.00  0.00    +0.000 A 
ATOM     21  C   UNL     1       2.364   3.619  17.478  0.00  0.00    +0.000 A 
ATOM     22  C   UNL     1       3.503   3.165  16.821  0.00  0.00    +0.000 A 
ATOM     23  C   UNL     1       4.608   4.013  16.648  0.00  0.00    +0.000 A 
ATOM     24  C   UNL     1       5.738   3.588  15.938  0.00  0.00    +0.000 A 
ATOM     25  C   UNL     1       6.802   4.459  15.743  0.00  0.00    +0.000 A 
ATOM     26  C   UNL     1       6.710   5.720  16.294  0.00  0.00    +0.000 A 
ATOM     27  N   UNL     1       5.646   6.159  17.001  0.00  0.00    +0.000 NA
ATOM     28  C   UNL     1       4.595   5.328  17.170  0.00  0.00    +0.000 A 
ENDBRANCH  18  19
ENDBRANCH  17  18
ENDBRANCH   3  17
TORSDOF 5
ENDMDL
MODEL 7
REMARK VINA RESULT:      -7.6      5.447      8.100
REMARK  Name = 
REMARK  5 active torsions:
REMARK  status: ('A' for Active; 'I' for Inactive)
REMARK    1  A    between atoms: C_2  and  C_3
REMARK    2  A    between atoms: C_3  and  N_4
REMARK    3  A    between atoms: N_15  and  C_16
REMARK    4  A    between atoms: C_16  and  C_17
REMARK    5  A    between atoms: C_17  and  C_18
REMARK                            x       y       z     vdW  Elec       q    Type
REMARK                         _______ _______ _______ _____ _____    ______ ____
ROOT
ATOM      1  O   UNL     1       8.142  10.440  17.723  0.00  0.00    +0.000 OA
ATOM      2  C   UNL     1       8.757   9.818  18.590  0.00  0.00    +0.000 C 
ATOM      3  N   UNL     1       8.651   8.449  18.743  0.00  0.00    +0.000 N 
ATOM      4  H   UNL     1       9.009   8.043  19.602  0.00  0.00    +0.000 HD
ENDROOT
BRANCH   2   5
ATOM      5  C   UNL     1       9.743  10.488  19.552  0.00  0.00    +0.000 C 
BRANCH   5   6
ATOM      6  N   UNL     1       9.578  11.954  19.586  0.00  0.00    +0.000 N 
ATOM      7  N   UNL     1       8.946  12.432  20.716  0.00  0.00    +0.000 NA
ATOM      8  C   UNL     1       8.902  13.710  20.923  0.00  0.00    +0.000 A 
ATOM      9  C   UNL     1       9.505  14.711  20.000  0.00  0.00    +0.000 A 
ATOM     10  O   UNL     1       9.305  15.899  20.197  0.00  0.00    +0.000 OA
ATOM     11  C   UNL     1      10.346  14.179  18.929  0.00  0.00    +0.000 A 
ATOM     12  C   UNL     1      11.110  15.053  18.145  0.00  0.00    +0.000 A 
ATOM     13  C   UNL     1      11.948  14.532  17.166  0.00  0.00    +0.000 A 
ATOM     14  C   UNL     1      11.991  13.157  16.966  0.00  0.00    +0.000 A 
ATOM     15  C   UNL     1      11.201  12.299  17.747  0.00  0.00    +0.000 A 
ATOM     16  C   UNL     1      10.367  12.786  18.766  0.00  0.00    +0.000 A 
ENDBRANCH   5   6
ENDBRANCH   2   5
BRANCH   3  17
ATOM     17  C   UNL     1       7.802   7.649  17.875  0.00  0.00    +0.000 C 
BRANCH  17  18
ATOM     18  C   UNL     1       7.608   6.238  18.424  0.00  0.00    +0.000 C 
BRANCH  18  19
ATOM     19  C   UNL     1       6.683   5.403  17.567  0.00  0.00    +0.000 A 
ATOM     20  C   UNL     1       7.167   4.886  16.350  0.00  0.00    +0.000 A 
ATOM     21  C   UNL     1       6.343   4.126  15.528  0.00  0.00    +0.000 A 
ATOM     22  C   UNL     1       5.035   3.866  15.920  0.00  0.00    +0.000 A 
ATOM     23  C   UNL     1       4.553   4.342  17.150  0.00  0.00    +0.000 A 
ATOM     24  C   UNL     1       3.256   4.037  17.582  0.00  0.00    +0.000 A 
ATOM     25  C   UNL     1       2.816   4.483  18.821  0.00  0.00    +0.000 A 
ATOM     26  C   UNL     1       3.683   5.246  19.575  0.00  0.00    +0.000 A 
ATOM     27  N   UNL     1       4.933   5.577  19.184  0.00  0.00    +0.000 NA
ATOM     28  C   UNL     1       5.378   5.123  17.992  0.00  0.00    +0.000 A 
ENDBRANCH  18  19
ENDBRANCH  17  18
ENDBRANCH   3  17
TORSDOF 5
ENDMDL
MODEL 8
REMARK VINA RESULT:      -7.6      1.926      7.507
REMARK  Name = 
REMARK  5 active torsions:
REMARK  status: ('A' for Active; 'I' for Inactive)
REMARK    1  A    between atoms: C_2  and  C_3
REMARK    2  A    between atoms: C_3  and  N_4
REMARK    3  A    between atoms: N_15  and  C_16
REMARK    4  A    between atoms: C_16  and  C_17
REMARK    5  A    between atoms: C_17  and  C_18
REMARK                            x       y       z     vdW  Elec       q    Type
REMARK                         _______ _______ _______ _____ _____    ______ ____
ROOT
ATOM      1  O   UNL     1       1.466   4.118  19.155  0.00  0.00    +0.000 OA
ATOM      2  C   UNL     1       2.609   4.470  19.447  0.00  0.00    +0.000 C 
ATOM      3  N   UNL     1       2.870   5.574  20.236  0.00  0.00    +0.000 N 
ATOM      4  H   UNL     1       3.823   5.924  20.253  0.00  0.00    +0.000 HD
ENDROOT
BRANCH   2   5
ATOM      5  C   UNL     1       3.854   3.691  19.014  0.00  0.00    +0.000 C 
BRANCH   5   6
ATOM      6  N   UNL     1       4.969   4.583  18.645  0.00  0.00    +0.000 N 
ATOM      7  N   UNL     1       5.750   4.993  19.707  0.00  0.00    +0.000 NA
ATOM      8  C   UNL     1       6.848   5.638  19.472  0.00  0.00    +0.000 A 
ATOM      9  C   UNL     1       7.328   5.969  18.101  0.00  0.00    +0.000 A 
ATOM     10  O   UNL     1       8.301   6.694  17.970  0.00  0.00    +0.000 OA
ATOM     11  C   UNL     1       6.602   5.348  16.995  0.00  0.00    +0.000 A 
ATOM     12  C   UNL     1       7.107   5.440  15.691  0.00  0.00    +0.000 A 
ATOM     13  C   UNL     1       6.439   4.800  14.655  0.00  0.00    +0.000 A 
ATOM     14  C   UNL     1       5.268   4.102  14.928  0.00  0.00    +0.000 A 
ATOM     15  C   UNL     1       4.766   4.038  16.237  0.00  0.00    +0.000 A 
ATOM     16  C   UNL     1       5.430   4.646  17.314  0.00  0.00    +0.000 A 
ENDBRANCH   5   6
ENDBRANCH   2   5
BRANCH   3  17
ATOM     17  C   UNL     1       1.799   6.393  20.780  0.00  0.00    +0.000 C 
BRANCH  17  18
ATOM     18  C   UNL     1       1.786   7.787  20.157  0.00  0.00    +0.000 C 
BRANCH  18  19
ATOM     19  C   UNL     1       0.965   8.773  20.958  0.00  0.00    +0.000 A 
ATOM     20  C   UNL     1       0.982   8.688  22.362  0.00  0.00    +0.000 A 
ATOM     21  C   UNL     1       0.230   9.568  23.132  0.00  0.00    +0.000 A 
ATOM     22  C   UNL     1      -0.536  10.545  22.506  0.00  0.00    +0.000 A 
ATOM     23  C   UNL     1      -0.529  10.666  21.108  0.00  0.00    +0.000 A 
ATOM     24  C   UNL     1      -1.250  11.683  20.469  0.00  0.00    +0.000 A 
ATOM     25  C   UNL     1      -1.195  11.809  19.087  0.00  0.00    +0.000 A 
ATOM     26  C   UNL     1      -0.441  10.889  18.388  0.00  0.00    +0.000 A 
ATOM     27  N   UNL     1       0.251   9.883  18.966  0.00  0.00    +0.000 NA
ATOM     28  C   UNL     1       0.225   9.772  20.312  0.00  0.00    +0.000 A 
ENDBRANCH  18  19
ENDBRANCH  17  18
ENDBRANCH   3  17
TORSDOF 5
ENDMDL
MODEL 9
REMARK VINA RESULT:      -7.5      5.497      8.478
REMARK  Name = 
REMARK  5 active torsions:
REMARK  status: ('A' for Active; 'I' for Inactive)
REMARK    1  A    between atoms: C_2  and  C_3
REMARK    2  A    between atoms: C_3  and  N_4
REMARK    3  A    between atoms: N_15  and  C_16
REMARK    4  A    between atoms: C_16  and  C_17
REMARK    5  A    between atoms: C_17  and  C_18
REMARK                            x       y       z     vdW  Elec       q    Type
REMARK                         _______ _______ _______ _____ _____    ______ ____
ROOT
ATOM      1  O   UNL     1       7.169   8.724  17.183  0.00  0.00    +0.000 OA
ATOM      2  C   UNL     1       7.883   8.141  18.000  0.00  0.00    +0.000 C 
ATOM      3  N   UNL     1       8.779   8.805  18.816  0.00  0.00    +0.000 N 
ATOM      4  H   UNL     1       9.477   8.247  19.298  0.00  0.00    +0.000 HD
ENDROOT
BRANCH   2   5
ATOM      5  C   UNL     1       7.812   6.629  18.235  0.00  0.00    +0.000 C 
BRANCH   5   6
ATOM      6  N   UNL     1       6.965   5.949  17.237  0.00  0.00    +0.000 N 
ATOM      7  N   UNL     1       7.600   5.670  16.044  0.00  0.00    +0.000 NA
ATOM      8  C   UNL     1       7.000   4.929  15.167  0.00  0.00    +0.000 A 
ATOM      9  C   UNL     1       5.644   4.348  15.373  0.00  0.00    +0.000 A 
ATOM     10  O   UNL     1       5.095   3.774  14.448  0.00  0.00    +0.000 OA
ATOM     11  C   UNL     1       5.083   4.480  16.717  0.00  0.00    +0.000 A 
ATOM     12  C   UNL     1       3.909   3.791  17.052  0.00  0.00    +0.000 A 
ATOM     13  C   UNL     1       3.415   3.879  18.347  0.00  0.00    +0.000 A 
ATOM     14  C   UNL     1       4.079   4.670  19.278  0.00  0.00    +0.000 A 
ATOM     15  C   UNL     1       5.240   5.370  18.918  0.00  0.00    +0.000 A 
ATOM     16  C   UNL     1       5.788   5.280  17.628  0.00  0.00    +0.000 A 
ENDBRANCH   5   6
ENDBRANCH   2   5
BRANCH   3  17
ATOM     17  C   UNL     1       8.931  10.250  18.763  0.00  0.00    +0.000 C 
BRANCH  17  18
ATOM     18  C   UNL     1      10.241  10.700  19.405  0.00  0.00    +0.000 C 
BRANCH  18  19
ATOM     19  C   UNL     1      10.065  11.911  20.295  0.00  0.00    +0.000 A 
ATOM     20  C   UNL     1       9.215  11.814  21.413  0.00  0.00    +0.000 A 
ATOM     21  C   UNL     1       9.018  12.909  22.246  0.00  0.00    +0.000 A 
ATOM     22  C   UNL     1       9.675  14.104  21.976  0.00  0.00    +0.000 A 
ATOM     23  C   UNL     1      10.557  14.200  20.888  0.00  0.00    +0.000 A 
ATOM     24  C   UNL     1      11.270  15.381  20.641  0.00  0.00    +0.000 A 
ATOM     25  C   UNL     1      12.168  15.439  19.584  0.00  0.00    +0.000 A 
ATOM     26  C   UNL     1      12.300  14.319  18.789  0.00  0.00    +0.000 A 
ATOM     27  N   UNL     1      11.616  13.170  18.984  0.00  0.00    +0.000 NA
ATOM     28  C   UNL     1      10.761  13.097  20.028  0.00  0.00    +0.000 A 
ENDBRANCH  18  19
ENDBRANCH  17  18
ENDBRANCH   3  17
TORSDOF 5
ENDMDL
