MODEL 1
REMARK VINA RESULT:      -8.6      0.000      0.000
REMARK  Name = 
REMARK  6 active torsions:
REMARK  status: ('A' for Active; 'I' for Inactive)
REMARK    1  A    between atoms: C_2  and  C_4
REMARK    2  A    between atoms: C_8  and  O_9
REMARK    3  A    between atoms: O_9  and  C_10
REMARK    4  A    between atoms: C_13  and  N_14
REMARK    5  A    between atoms: C_15  and  C_17
REMARK    6  A    between atoms: C_19  and  C_20
REMARK                            x       y       z     vdW  Elec       q    Type
REMARK                         _______ _______ _______ _____ _____    ______ ____
ROOT
ATOM      1  C   UNL     1       6.317   4.747  17.847  0.00  0.00    +0.000 A 
ATOM      2  C   UNL     1       6.517   5.662  16.827  0.00  0.00    +0.000 A 
ATOM      3  C   UNL     1       7.305   6.790  17.081  0.00  0.00    +0.000 A 
ATOM      4  C   UNL     1       7.871   6.970  18.340  0.00  0.00    +0.000 A 
ATOM      5  C   UNL     1       7.625   5.976  19.286  0.00  0.00    +0.000 A 
ATOM      6  N   UNL     1       6.881   4.868  19.068  0.00  0.00    +0.000 NA
ENDROOT
BRANCH   4   7
ATOM      7  N   UNL     1       8.659   8.077  18.721  0.00  0.00    +0.000 N 
ATOM      8  C   UNL     1       8.416   9.406  18.448  0.00  0.00    +0.000 C 
ATOM      9  O   UNL     1       7.486   9.866  17.802  0.00  0.00    +0.000 OA
ATOM     10  H   UNL     1       9.496   7.867  19.250  0.00  0.00    +0.000 HD
BRANCH   8  11
ATOM     11  C   UNL     1       9.458  10.324  19.010  0.00  0.00    +0.000 C 
ATOM     12  C   UNL     1       9.502  10.629  20.486  0.00  0.00    +0.000 C 
ATOM     13  C   UNL     1       9.020  11.686  19.523  0.00  0.00    +0.000 C 
BRANCH  13  14
ATOM     14  C   UNL     1       9.850  12.917  19.248  0.00  0.00    +0.000 A 
ATOM     15  C   UNL     1      10.858  13.337  20.136  0.00  0.00    +0.000 A 
ATOM     16  C   UNL     1      11.687  14.421  19.836  0.00  0.00    +0.000 A 
ATOM     17  C   UNL     1      11.520  15.097  18.636  0.00  0.00    +0.000 A 
ATOM     18  F   UNL     1      12.333  16.117  18.333  0.00  0.00    +0.000 F 
ATOM     19  C   UNL     1      10.529  14.720  17.741  0.00  0.00    +0.000 A 
ATOM     20  C   UNL     1       9.700  13.638  18.050  0.00  0.00    +0.000 A 
ENDBRANCH  13  14
ENDBRANCH   8  11
ENDBRANCH   4   7
BRANCH   1  21
ATOM     21  O   UNL     1       5.512   3.649  17.557  0.00  0.00    +0.000 OA
BRANCH  21  26
ATOM     22  C   UNL     1       2.630   3.308  19.776  0.00  0.00    +0.000 A 
ATOM     23  C   UNL     1       1.570   3.629  18.916  0.00  0.00    +0.000 A 
ATOM     24  C   UNL     1       1.820   3.952  17.584  0.00  0.00    +0.000 A 
ATOM     25  C   UNL     1       3.130   3.955  17.107  0.00  0.00    +0.000 A 
ATOM     26  C   UNL     1       4.196   3.679  17.968  0.00  0.00    +0.000 A 
ATOM     27  C   UNL     1       3.946   3.327  19.298  0.00  0.00    +0.000 A 
BRANCH  22  29
ATOM     28  N   UNL     1       1.044   3.234  21.628  0.00  0.00    +0.000 N 
ATOM     29  C   UNL     1       2.299   2.935  21.176  0.00  0.00    +0.000 C 
ATOM     30  O   UNL     1       3.100   2.350  21.894  0.00  0.00    +0.000 OA
ATOM     31  H   UNL     1       0.805   2.873  22.543  0.00  0.00    +0.000 HD
ATOM     32  H   UNL     1       0.286   3.472  21.005  0.00  0.00    +0.000 HD
ENDBRANCH  22  29
ENDBRANCH  21  26
ENDBRANCH   1  21
TORSDOF 6
ENDMDL
MODEL 2
REMARK VINA RESULT:      -8.6      7.478      9.083
REMARK  Name = 
REMARK  6 active torsions:
REMARK  status: ('A' for Active; 'I' for Inactive)
REMARK    1  A    between atoms: C_2  and  C_4
REMARK    2  A    between atoms: C_8  and  O_9
REMARK    3  A    between atoms: O_9  and  C_10
REMARK    4  A    between atoms: C_13  and  N_14
REMARK    5  A    between atoms: C_15  and  C_17
REMARK    6  A    between atoms: C_19  and  C_20
REMARK                            x       y       z     vdW  Elec       q    Type
REMARK                         _______ _______ _______ _____ _____    ______ ____
ROOT
ATOM      1  C   UNL     1       2.517   6.226  18.744  0.00  0.00    +0.000 A 
ATOM      2  C   UNL     1       2.493   7.249  17.810  0.00  0.00    +0.000 A 
ATOM      3  C   UNL     1       2.010   8.503  18.199  0.00  0.00    +0.000 A 
ATOM      4  C   UNL     1       1.570   8.701  19.504  0.00  0.00    +0.000 A 
ATOM      5  C   UNL     1       1.661   7.611  20.369  0.00  0.00    +0.000 A 
ATOM      6  N   UNL     1       2.136   6.392  20.029  0.00  0.00    +0.000 NA
ENDROOT
BRANCH   4   7
ATOM      7  N   UNL     1       1.039   9.910  20.004  0.00  0.00    +0.000 N 
ATOM      8  C   UNL     1      -0.228  10.411  19.797  0.00  0.00    +0.000 C 
ATOM      9  O   UNL     1      -1.115   9.912  19.119  0.00  0.00    +0.000 OA
ATOM     10  H   UNL     1       1.661  10.469  20.573  0.00  0.00    +0.000 HD
BRANCH   8  11
ATOM     11  C   UNL     1      -0.463  11.723  20.482  0.00  0.00    +0.000 C 
ATOM     12  C   UNL     1       0.677  12.474  21.122  0.00  0.00    +0.000 C 
ATOM     13  C   UNL     1      -0.339  11.780  21.995  0.00  0.00    +0.000 C 
BRANCH  13  14
ATOM     14  C   UNL     1      -1.321  12.576  22.820  0.00  0.00    +0.000 A 
ATOM     15  C   UNL     1      -1.054  13.904  23.202  0.00  0.00    +0.000 A 
ATOM     16  C   UNL     1      -2.002  14.670  23.884  0.00  0.00    +0.000 A 
ATOM     17  C   UNL     1      -3.237  14.115  24.190  0.00  0.00    +0.000 A 
ATOM     18  F   UNL     1      -4.158  14.858  24.818  0.00  0.00    +0.000 F 
ATOM     19  C   UNL     1      -3.532  12.805  23.843  0.00  0.00    +0.000 A 
ATOM     20  C   UNL     1      -2.577  12.043  23.164  0.00  0.00    +0.000 A 
ENDBRANCH  13  14
ENDBRANCH   8  11
ENDBRANCH   4   7
BRANCH   1  21
ATOM     21  O   UNL     1       2.989   4.990  18.311  0.00  0.00    +0.000 OA
BRANCH  21  26
ATOM     22  C   UNL     1       6.624   5.321  18.455  0.00  0.00    +0.000 A 
ATOM     23  C   UNL     1       7.003   4.844  17.192  0.00  0.00    +0.000 A 
ATOM     24  C   UNL     1       6.036   4.417  16.284  0.00  0.00    +0.000 A 
ATOM     25  C   UNL     1       4.688   4.467  16.635  0.00  0.00    +0.000 A 
ATOM     26  C   UNL     1       4.304   4.901  17.907  0.00  0.00    +0.000 A 
ATOM     27  C   UNL     1       5.270   5.356  18.810  0.00  0.00    +0.000 A 
BRANCH  22  29
ATOM     28  N   UNL     1       8.390   6.916  18.993  0.00  0.00    +0.000 N 
ATOM     29  C   UNL     1       7.697   5.798  19.366  0.00  0.00    +0.000 C 
ATOM     30  O   UNL     1       7.936   5.239  20.429  0.00  0.00    +0.000 OA
ATOM     31  H   UNL     1       9.038   7.285  19.679  0.00  0.00    +0.000 HD
ATOM     32  H   UNL     1       8.060   7.543  18.275  0.00  0.00    +0.000 HD
ENDBRANCH  22  29
ENDBRANCH  21  26
ENDBRANCH   1  21
TORSDOF 6
ENDMDL
MODEL 3
REMARK VINA RESULT:      -8.5      1.820      2.239
REMARK  Name = 
REMARK  6 active torsions:
REMARK  status: ('A' for Active; 'I' for Inactive)
REMARK    1  A    between atoms: C_2  and  C_4
REMARK    2  A    between atoms: C_8  and  O_9
REMARK    3  A    between atoms: O_9  and  C_10
REMARK    4  A    between atoms: C_13  and  N_14
REMARK    5  A    between atoms: C_15  and  C_17
REMARK    6  A    between atoms: C_19  and  C_20
REMARK                            x       y       z     vdW  Elec       q    Type
REMARK                         _______ _______ _______ _____ _____    ______ ____
ROOT
ATOM      1  C   UNL     1       6.681   5.461  18.174  0.00  0.00    +0.000 A 
ATOM      2  C   UNL     1       7.742   5.821  18.988  0.00  0.00    +0.000 A 
ATOM      3  C   UNL     1       8.305   7.093  18.834  0.00  0.00    +0.000 A 
ATOM      4  C   UNL     1       7.793   7.967  17.879  0.00  0.00    +0.000 A 
ATOM      5  C   UNL     1       6.708   7.511  17.131  0.00  0.00    +0.000 A 
ATOM      6  N   UNL     1       6.132   6.295  17.265  0.00  0.00    +0.000 NA
ENDROOT
BRANCH   4   7
ATOM      7  N   UNL     1       8.293   9.260  17.615  0.00  0.00    +0.000 N 
ATOM      8  C   UNL     1       8.961  10.089  18.490  0.00  0.00    +0.000 C 
ATOM      9  O   UNL     1       9.220   9.864  19.664  0.00  0.00    +0.000 OA
ATOM     10  H   UNL     1       8.137   9.616  16.681  0.00  0.00    +0.000 HD
BRANCH   8  11
ATOM     11  C   UNL     1       9.359  11.396  17.877  0.00  0.00    +0.000 C 
ATOM     12  C   UNL     1      10.792  11.862  17.914  0.00  0.00    +0.000 C 
ATOM     13  C   UNL     1       9.770  12.532  18.799  0.00  0.00    +0.000 C 
BRANCH  13  14
ATOM     14  C   UNL     1       9.322  13.947  18.528  0.00  0.00    +0.000 A 
ATOM     15  C   UNL     1       8.079  14.426  18.985  0.00  0.00    +0.000 A 
ATOM     16  C   UNL     1       7.705  15.761  18.816  0.00  0.00    +0.000 A 
ATOM     17  C   UNL     1       8.577  16.639  18.186  0.00  0.00    +0.000 A 
ATOM     18  F   UNL     1       8.233  17.927  18.049  0.00  0.00    +0.000 F 
ATOM     19  C   UNL     1       9.804  16.202  17.710  0.00  0.00    +0.000 A 
ATOM     20  C   UNL     1      10.170  14.863  17.879  0.00  0.00    +0.000 A 
ENDBRANCH  13  14
ENDBRANCH   8  11
ENDBRANCH   4   7
BRANCH   1  21
ATOM     21  O   UNL     1       6.162   4.181  18.348  0.00  0.00    +0.000 OA
BRANCH  21  26
ATOM     22  C   UNL     1       2.643   4.274  19.324  0.00  0.00    +0.000 A 
ATOM     23  C   UNL     1       2.025   3.671  18.219  0.00  0.00    +0.000 A 
ATOM     24  C   UNL     1       2.792   3.221  17.146  0.00  0.00    +0.000 A 
ATOM     25  C   UNL     1       4.177   3.374  17.173  0.00  0.00    +0.000 A 
ATOM     26  C   UNL     1       4.797   4.013  18.251  0.00  0.00    +0.000 A 
ATOM     27  C   UNL     1       4.034   4.439  19.342  0.00  0.00    +0.000 A 
BRANCH  22  29
ATOM     28  N   UNL     1       1.867   5.999  20.865  0.00  0.00    +0.000 N 
ATOM     29  C   UNL     1       1.778   4.698  20.456  0.00  0.00    +0.000 C 
ATOM     30  O   UNL     1       0.987   3.927  20.986  0.00  0.00    +0.000 OA
ATOM     31  H   UNL     1       1.192   6.292  21.561  0.00  0.00    +0.000 HD
ATOM     32  H   UNL     1       2.301   6.716  20.302  0.00  0.00    +0.000 HD
ENDBRANCH  22  29
ENDBRANCH  21  26
ENDBRANCH   1  21
TORSDOF 6
ENDMDL
MODEL 4
REMARK VINA RESULT:      -8.4      7.614      9.359
REMARK  Name = 
REMARK  6 active torsions:
REMARK  status: ('A' for Active; 'I' for Inactive)
REMARK    1  A    between atoms: C_2  and  C_4
REMARK    2  A    between atoms: C_8  and  O_9
REMARK    3  A    between atoms: O_9  and  C_10
REMARK    4  A    between atoms: C_13  and  N_14
REMARK    5  A    between atoms: C_15  and  C_17
REMARK    6  A    between atoms: C_19  and  C_20
REMARK                            x       y       z     vdW  Elec       q    Type
REMARK                         _______ _______ _______ _____ _____    ______ ____
ROOT
ATOM      1  C   UNL     1       2.677   6.402  18.638  0.00  0.00    +0.000 A 
ATOM      2  C   UNL     1       2.190   6.364  19.934  0.00  0.00    +0.000 A 
ATOM      3  C   UNL     1       1.623   7.525  20.473  0.00  0.00    +0.000 A 
ATOM      4  C   UNL     1       1.556   8.684  19.704  0.00  0.00    +0.000 A 
ATOM      5  C   UNL     1       2.054   8.603  18.404  0.00  0.00    +0.000 A 
ATOM      6  N   UNL     1       2.593   7.495  17.849  0.00  0.00    +0.000 NA
ENDROOT
BRANCH   4   7
ATOM      7  N   UNL     1       1.033   9.918  20.147  0.00  0.00    +0.000 N 
ATOM      8  C   UNL     1      -0.221  10.429  19.894  0.00  0.00    +0.000 C 
ATOM      9  O   UNL     1      -1.102   9.917  19.217  0.00  0.00    +0.000 OA
ATOM     10  H   UNL     1       1.653  10.489  20.707  0.00  0.00    +0.000 HD
BRANCH   8  11
ATOM     11  C   UNL     1      -0.450  11.769  20.524  0.00  0.00    +0.000 C 
ATOM     12  C   UNL     1       0.679  12.509  21.196  0.00  0.00    +0.000 C 
ATOM     13  C   UNL     1      -0.399  11.874  22.039  0.00  0.00    +0.000 C 
BRANCH  13  14
ATOM     14  C   UNL     1      -1.397  12.725  22.787  0.00  0.00    +0.000 A 
ATOM     15  C   UNL     1      -2.634  12.205  23.211  0.00  0.00    +0.000 A 
ATOM     16  C   UNL     1      -3.517  12.964  23.984  0.00  0.00    +0.000 A 
ATOM     17  C   UNL     1      -3.167  14.257  24.348  0.00  0.00    +0.000 A 
ATOM     18  F   UNL     1      -3.998  14.976  25.115  0.00  0.00    +0.000 F 
ATOM     19  C   UNL     1      -1.962  14.808  23.938  0.00  0.00    +0.000 A 
ATOM     20  C   UNL     1      -1.086  14.045  23.161  0.00  0.00    +0.000 A 
ENDBRANCH  13  14
ENDBRANCH   8  11
ENDBRANCH   4   7
BRANCH   1  21
ATOM     21  O   UNL     1       3.247   5.231  18.148  0.00  0.00    +0.000 OA
BRANCH  21  26
ATOM     22  C   UNL     1       6.385   4.925  16.301  0.00  0.00    +0.000 A 
ATOM     23  C   UNL     1       7.332   5.090  17.321  0.00  0.00    +0.000 A 
ATOM     24  C   UNL     1       6.919   5.294  18.636  0.00  0.00    +0.000 A 
ATOM     25  C   UNL     1       5.558   5.336  18.935  0.00  0.00    +0.000 A 
ATOM     26  C   UNL     1       4.607   5.216  17.918  0.00  0.00    +0.000 A 
ATOM     27  C   UNL     1       5.018   4.981  16.602  0.00  0.00    +0.000 A 
BRANCH  22  29
ATOM     28  N   UNL     1       6.334   3.626  14.237  0.00  0.00    +0.000 N 
ATOM     29  C   UNL     1       6.885   4.671  14.925  0.00  0.00    +0.000 C 
ATOM     30  O   UNL     1       7.734   5.385  14.406  0.00  0.00    +0.000 OA
ATOM     31  H   UNL     1       6.610   3.540  13.266  0.00  0.00    +0.000 HD
ATOM     32  H   UNL     1       5.471   3.186  14.519  0.00  0.00    +0.000 HD
ENDBRANCH  22  29
ENDBRANCH  21  26
ENDBRANCH   1  21
TORSDOF 6
ENDMDL
MODEL 5
REMARK VINA RESULT:      -8.4      7.703      9.423
REMARK  Name = 
REMARK  6 active torsions:
REMARK  status: ('A' for Active; 'I' for Inactive)
REMARK    1  A    between atoms: C_2  and  C_4
REMARK    2  A    between atoms: C_8  and  O_9
REMARK    3  A    between atoms: O_9  and  C_10
REMARK    4  A    between atoms: C_13  and  N_14
REMARK    5  A    between atoms: C_15  and  C_17
REMARK    6  A    between atoms: C_19  and  C_20
REMARK                            x       y       z     vdW  Elec       q    Type
REMARK                         _______ _______ _______ _____ _____    ______ ____
ROOT
ATOM      1  C   UNL     1       2.584   6.561  18.647  0.00  0.00    +0.000 A 
ATOM      2  C   UNL     1       2.530   7.592  17.724  0.00  0.00    +0.000 A 
ATOM      3  C   UNL     1       2.008   8.826  18.125  0.00  0.00    +0.000 A 
ATOM      4  C   UNL     1       1.559   8.997  19.432  0.00  0.00    +0.000 A 
ATOM      5  C   UNL     1       1.682   7.900  20.285  0.00  0.00    +0.000 A 
ATOM      6  N   UNL     1       2.196   6.700  19.933  0.00  0.00    +0.000 NA
ENDROOT
BRANCH   4   7
ATOM      7  N   UNL     1       0.990  10.183  19.943  0.00  0.00    +0.000 N 
ATOM      8  C   UNL     1      -0.312  10.610  19.801  0.00  0.00    +0.000 C 
ATOM      9  O   UNL     1      -1.206  10.051  19.182  0.00  0.00    +0.000 OA
ATOM     10  H   UNL     1       1.611  10.785  20.468  0.00  0.00    +0.000 HD
BRANCH   8  11
ATOM     11  C   UNL     1      -0.582  11.918  20.480  0.00  0.00    +0.000 C 
ATOM     12  C   UNL     1       0.511  12.639  21.227  0.00  0.00    +0.000 C 
ATOM     13  C   UNL     1      -0.592  11.956  21.999  0.00  0.00    +0.000 C 
BRANCH  13  14
ATOM     14  C   UNL     1      -1.627  12.763  22.744  0.00  0.00    +0.000 A 
ATOM     15  C   UNL     1      -2.773  12.158  23.295  0.00  0.00    +0.000 A 
ATOM     16  C   UNL     1      -3.684  12.887  24.063  0.00  0.00    +0.000 A 
ATOM     17  C   UNL     1      -3.455  14.236  24.295  0.00  0.00    +0.000 A 
ATOM     18  F   UNL     1      -4.310  14.931  25.057  0.00  0.00    +0.000 F 
ATOM     19  C   UNL     1      -2.344  14.870  23.758  0.00  0.00    +0.000 A 
ATOM     20  C   UNL     1      -1.439  14.136  22.986  0.00  0.00    +0.000 A 
ENDBRANCH  13  14
ENDBRANCH   8  11
ENDBRANCH   4   7
BRANCH   1  21
ATOM     21  O   UNL     1       3.095   5.345  18.201  0.00  0.00    +0.000 OA
BRANCH  21  26
ATOM     22  C   UNL     1       6.207   4.868  16.349  0.00  0.00    +0.000 A 
ATOM     23  C   UNL     1       7.164   4.977  17.368  0.00  0.00    +0.000 A 
ATOM     24  C   UNL     1       6.765   5.202  18.684  0.00  0.00    +0.000 A 
ATOM     25  C   UNL     1       5.409   5.319  18.985  0.00  0.00    +0.000 A 
ATOM     26  C   UNL     1       4.451   5.254  17.969  0.00  0.00    +0.000 A 
ATOM     27  C   UNL     1       4.847   5.000  16.653  0.00  0.00    +0.000 A 
BRANCH  22  29
ATOM     28  N   UNL     1       7.682   5.390  14.477  0.00  0.00    +0.000 N 
ATOM     29  C   UNL     1       6.691   4.589  14.972  0.00  0.00    +0.000 C 
ATOM     30  O   UNL     1       6.249   3.658  14.310  0.00  0.00    +0.000 OA
ATOM     31  H   UNL     1       8.070   5.114  13.583  0.00  0.00    +0.000 HD
ATOM     32  H   UNL     1       8.242   5.986  15.068  0.00  0.00    +0.000 HD
ENDBRANCH  22  29
ENDBRANCH  21  26
ENDBRANCH   1  21
TORSDOF 6
ENDMDL
MODEL 6
REMARK VINA RESULT:      -8.3      7.345      9.000
REMARK  Name = 
REMARK  6 active torsions:
REMARK  status: ('A' for Active; 'I' for Inactive)
REMARK    1  A    between atoms: C_2  and  C_4
REMARK    2  A    between atoms: C_8  and  O_9
REMARK    3  A    between atoms: O_9  and  C_10
REMARK    4  A    between atoms: C_13  and  N_14
REMARK    5  A    between atoms: C_15  and  C_17
REMARK    6  A    between atoms: C_19  and  C_20
REMARK                            x       y       z     vdW  Elec       q    Type
REMARK                         _______ _______ _______ _____ _____    ______ ____
ROOT
ATOM      1  C   UNL     1       2.772   6.437  18.756  0.00  0.00    +0.000 A 
ATOM      2  C   UNL     1       2.655   7.349  17.720  0.00  0.00    +0.000 A 
ATOM      3  C   UNL     1       2.026   8.573  17.969  0.00  0.00    +0.000 A 
ATOM      4  C   UNL     1       1.536   8.854  19.242  0.00  0.00    +0.000 A 
ATOM      5  C   UNL     1       1.728   7.876  20.217  0.00  0.00    +0.000 A 
ATOM      6  N   UNL     1       2.344   6.690  20.013  0.00  0.00    +0.000 NA
ENDROOT
BRANCH   4   7
ATOM      7  N   UNL     1       0.861  10.039  19.606  0.00  0.00    +0.000 N 
ATOM      8  C   UNL     1       1.174  11.326  19.223  0.00  0.00    +0.000 C 
ATOM      9  O   UNL     1       2.110  11.677  18.519  0.00  0.00    +0.000 OA
ATOM     10  H   UNL     1       0.064   9.928  20.218  0.00  0.00    +0.000 HD
BRANCH   8  11
ATOM     11  C   UNL     1       0.241  12.352  19.790  0.00  0.00    +0.000 C 
ATOM     12  C   UNL     1       0.745  13.716  20.189  0.00  0.00    +0.000 C 
ATOM     13  C   UNL     1       0.375  12.718  21.258  0.00  0.00    +0.000 C 
BRANCH  13  14
ATOM     14  C   UNL     1      -0.850  12.924  22.117  0.00  0.00    +0.000 A 
ATOM     15  C   UNL     1      -1.645  11.841  22.535  0.00  0.00    +0.000 A 
ATOM     16  C   UNL     1      -2.722  12.022  23.406  0.00  0.00    +0.000 A 
ATOM     17  C   UNL     1      -3.016  13.295  23.874  0.00  0.00    +0.000 A 
ATOM     18  F   UNL     1      -4.030  13.466  24.732  0.00  0.00    +0.000 F 
ATOM     19  C   UNL     1      -2.264  14.389  23.473  0.00  0.00    +0.000 A 
ATOM     20  C   UNL     1      -1.189  14.202  22.598  0.00  0.00    +0.000 A 
ENDBRANCH  13  14
ENDBRANCH   8  11
ENDBRANCH   4   7
BRANCH   1  21
ATOM     21  O   UNL     1       3.389   5.225  18.461  0.00  0.00    +0.000 OA
BRANCH  21  26
ATOM     22  C   UNL     1       6.451   4.941  16.488  0.00  0.00    +0.000 A 
ATOM     23  C   UNL     1       7.437   5.154  17.462  0.00  0.00    +0.000 A 
ATOM     24  C   UNL     1       7.076   5.385  18.788  0.00  0.00    +0.000 A 
ATOM     25  C   UNL     1       5.728   5.404  19.144  0.00  0.00    +0.000 A 
ATOM     26  C   UNL     1       4.738   5.235  18.172  0.00  0.00    +0.000 A 
ATOM     27  C   UNL     1       5.097   4.975  16.847  0.00  0.00    +0.000 A 
BRANCH  22  29
ATOM     28  N   UNL     1       6.334   3.593  14.458  0.00  0.00    +0.000 N 
ATOM     29  C   UNL     1       6.898   4.661  15.099  0.00  0.00    +0.000 C 
ATOM     30  O   UNL     1       7.714   5.374  14.528  0.00  0.00    +0.000 OA
ATOM     31  H   UNL     1       6.572   3.488  13.479  0.00  0.00    +0.000 HD
ATOM     32  H   UNL     1       5.490   3.148  14.786  0.00  0.00    +0.000 HD
ENDBRANCH  22  29
ENDBRANCH  21  26
ENDBRANCH   1  21
TORSDOF 6
ENDMDL
MODEL 7
REMARK VINA RESULT:      -8.3      7.291      9.026
REMARK  Name = 
REMARK  6 active torsions:
REMARK  status: ('A' for Active; 'I' for Inactive)
REMARK    1  A    between atoms: C_2  and  C_4
REMARK    2  A    between atoms: C_8  and  O_9
REMARK    3  A    between atoms: O_9  and  C_10
REMARK    4  A    between atoms: C_13  and  N_14
REMARK    5  A    between atoms: C_15  and  C_17
REMARK    6  A    between atoms: C_19  and  C_20
REMARK                            x       y       z     vdW  Elec       q    Type
REMARK                         _______ _______ _______ _____ _____    ______ ____
ROOT
ATOM      1  C   UNL     1       2.605   5.883  19.084  0.00  0.00    +0.000 A 
ATOM      2  C   UNL     1       2.030   5.926  20.344  0.00  0.00    +0.000 A 
ATOM      3  C   UNL     1       1.476   7.131  20.789  0.00  0.00    +0.000 A 
ATOM      4  C   UNL     1       1.509   8.254  19.966  0.00  0.00    +0.000 A 
ATOM      5  C   UNL     1       2.090   8.093  18.709  0.00  0.00    +0.000 A 
ATOM      6  N   UNL     1       2.620   6.940  18.243  0.00  0.00    +0.000 NA
ENDROOT
BRANCH   4   7
ATOM      7  N   UNL     1       1.008   9.527  20.315  0.00  0.00    +0.000 N 
ATOM      8  C   UNL     1       0.005  10.229  19.683  0.00  0.00    +0.000 C 
ATOM      9  O   UNL     1      -0.617   9.887  18.687  0.00  0.00    +0.000 OA
ATOM     10  H   UNL     1       1.439   9.971  21.115  0.00  0.00    +0.000 HD
BRANCH   8  11
ATOM     11  C   UNL     1      -0.282  11.553  20.322  0.00  0.00    +0.000 C 
ATOM     12  C   UNL     1       0.833  12.390  20.897  0.00  0.00    +0.000 C 
ATOM     13  C   UNL     1      -0.119  11.679  21.828  0.00  0.00    +0.000 C 
BRANCH  13  14
ATOM     14  C   UNL     1      -1.120  12.455  22.649  0.00  0.00    +0.000 A 
ATOM     15  C   UNL     1      -0.928  13.818  22.947  0.00  0.00    +0.000 A 
ATOM     16  C   UNL     1      -1.898  14.559  23.627  0.00  0.00    +0.000 A 
ATOM     17  C   UNL     1      -3.079  13.943  24.015  0.00  0.00    +0.000 A 
ATOM     18  F   UNL     1      -4.024  14.659  24.640  0.00  0.00    +0.000 F 
ATOM     19  C   UNL     1      -3.299  12.599  23.751  0.00  0.00    +0.000 A 
ATOM     20  C   UNL     1      -2.323  11.863  23.074  0.00  0.00    +0.000 A 
ENDBRANCH  13  14
ENDBRANCH   8  11
ENDBRANCH   4   7
BRANCH   1  21
ATOM     21  O   UNL     1       3.159   4.669  18.688  0.00  0.00    +0.000 OA
BRANCH  21  26
ATOM     22  C   UNL     1       6.730   5.364  18.351  0.00  0.00    +0.000 A 
ATOM     23  C   UNL     1       7.003   4.840  17.079  0.00  0.00    +0.000 A 
ATOM     24  C   UNL     1       5.984   4.260  16.326  0.00  0.00    +0.000 A 
ATOM     25  C   UNL     1       4.690   4.201  16.842  0.00  0.00    +0.000 A 
ATOM     26  C   UNL     1       4.419   4.682  18.126  0.00  0.00    +0.000 A 
ATOM     27  C   UNL     1       5.432   5.290  18.872  0.00  0.00    +0.000 A 
BRANCH  22  29
ATOM     28  N   UNL     1       8.355   5.338  20.170  0.00  0.00    +0.000 N 
ATOM     29  C   UNL     1       7.848   6.005  19.090  0.00  0.00    +0.000 C 
ATOM     30  O   UNL     1       8.327   7.074  18.733  0.00  0.00    +0.000 OA
ATOM     31  H   UNL     1       9.185   5.740  20.589  0.00  0.00    +0.000 HD
ATOM     32  H   UNL     1       8.171   4.360  20.337  0.00  0.00    +0.000 HD
ENDBRANCH  22  29
ENDBRANCH  21  26
ENDBRANCH   1  21
TORSDOF 6
ENDMDL
MODEL 8
REMARK VINA RESULT:      -8.2      7.488      9.180
REMARK  Name = 
REMARK  6 active torsions:
REMARK  status: ('A' for Active; 'I' for Inactive)
REMARK    1  A    between atoms: C_2  and  C_4
REMARK    2  A    between atoms: C_8  and  O_9
REMARK    3  A    between atoms: O_9  and  C_10
REMARK    4  A    between atoms: C_13  and  N_14
REMARK    5  A    between atoms: C_15  and  C_17
REMARK    6  A    between atoms: C_19  and  C_20
REMARK                            x       y       z     vdW  Elec       q    Type
REMARK                         _______ _______ _______ _____ _____    ______ ____
ROOT
ATOM      1  C   UNL     1       2.548   6.317  18.790  0.00  0.00    +0.000 A 
ATOM      2  C   UNL     1       2.422   7.288  17.809  0.00  0.00    +0.000 A 
ATOM      3  C   UNL     1       1.925   8.545  18.169  0.00  0.00    +0.000 A 
ATOM      4  C   UNL     1       1.572   8.799  19.491  0.00  0.00    +0.000 A 
ATOM      5  C   UNL     1       1.762   7.759  20.401  0.00  0.00    +0.000 A 
ATOM      6  N   UNL     1       2.253   6.538  20.089  0.00  0.00    +0.000 NA
ENDROOT
BRANCH   4   7
ATOM      7  N   UNL     1       1.037  10.015  19.967  0.00  0.00    +0.000 N 
ATOM      8  C   UNL     1      -0.245  10.487  19.786  0.00  0.00    +0.000 C 
ATOM      9  O   UNL     1      -1.146   9.949  19.158  0.00  0.00    +0.000 OA
ATOM     10  H   UNL     1       1.668  10.604  20.494  0.00  0.00    +0.000 HD
BRANCH   8  11
ATOM     11  C   UNL     1      -0.481  11.818  20.433  0.00  0.00    +0.000 C 
ATOM     12  C   UNL     1       0.663  12.599  21.028  0.00  0.00    +0.000 C 
ATOM     13  C   UNL     1      -0.331  11.925  21.942  0.00  0.00    +0.000 C 
BRANCH  13  14
ATOM     14  C   UNL     1      -1.306  12.738  22.758  0.00  0.00    +0.000 A 
ATOM     15  C   UNL     1      -2.571  12.231  23.111  0.00  0.00    +0.000 A 
ATOM     16  C   UNL     1      -3.435  12.946  23.944  0.00  0.00    +0.000 A 
ATOM     17  C   UNL     1      -3.040  14.180  24.440  0.00  0.00    +0.000 A 
ATOM     18  F   UNL     1      -3.855  14.853  25.264  0.00  0.00    +0.000 F 
ATOM     19  C   UNL     1      -1.807  14.718  24.104  0.00  0.00    +0.000 A 
ATOM     20  C   UNL     1      -0.949  14.000  23.266  0.00  0.00    +0.000 A 
ENDBRANCH  13  14
ENDBRANCH   8  11
ENDBRANCH   4   7
BRANCH   1  21
ATOM     21  O   UNL     1       3.030   5.075  18.386  0.00  0.00    +0.000 OA
BRANCH  21  26
ATOM     22  C   UNL     1       6.454   5.969  17.480  0.00  0.00    +0.000 A 
ATOM     23  C   UNL     1       6.701   5.099  16.408  0.00  0.00    +0.000 A 
ATOM     24  C   UNL     1       5.712   4.215  15.980  0.00  0.00    +0.000 A 
ATOM     25  C   UNL     1       4.475   4.198  16.622  0.00  0.00    +0.000 A 
ATOM     26  C   UNL     1       4.236   5.031  17.718  0.00  0.00    +0.000 A 
ATOM     27  C   UNL     1       5.215   5.939  18.132  0.00  0.00    +0.000 A 
BRANCH  22  29
ATOM     28  N   UNL     1       8.213   6.659  19.024  0.00  0.00    +0.000 N 
ATOM     29  C   UNL     1       7.533   6.916  17.866  0.00  0.00    +0.000 C 
ATOM     30  O   UNL     1       7.832   7.873  17.163  0.00  0.00    +0.000 OA
ATOM     31  H   UNL     1       9.012   7.252  19.209  0.00  0.00    +0.000 HD
ATOM     32  H   UNL     1       8.177   5.762  19.485  0.00  0.00    +0.000 HD
ENDBRANCH  22  29
ENDBRANCH  21  26
ENDBRANCH   1  21
TORSDOF 6
ENDMDL
MODEL 9
REMARK VINA RESULT:      -8.2      6.517      7.915
REMARK  Name = 
REMARK  6 active torsions:
REMARK  status: ('A' for Active; 'I' for Inactive)
REMARK    1  A    between atoms: C_2  and  C_4
REMARK    2  A    between atoms: C_8  and  O_9
REMARK    3  A    between atoms: O_9  and  C_10
REMARK    4  A    between atoms: C_13  and  N_14
REMARK    5  A    between atoms: C_15  and  C_17
REMARK    6  A    between atoms: C_19  and  C_20
REMARK                            x       y       z     vdW  Elec       q    Type
REMARK                         _______ _______ _______ _____ _____    ______ ____
ROOT
ATOM      1  C   UNL     1       2.732   6.534  18.614  0.00  0.00    +0.000 A 
ATOM      2  C   UNL     1       2.227   6.684  19.895  0.00  0.00    +0.000 A 
ATOM      3  C   UNL     1       1.663   7.912  20.255  0.00  0.00    +0.000 A 
ATOM      4  C   UNL     1       1.616   8.951  19.330  0.00  0.00    +0.000 A 
ATOM      5  C   UNL     1       2.131   8.684  18.061  0.00  0.00    +0.000 A 
ATOM      6  N   UNL     1       2.668   7.505  17.677  0.00  0.00    +0.000 NA
ENDROOT
BRANCH   4   7
ATOM      7  N   UNL     1       1.097  10.239  19.585  0.00  0.00    +0.000 N 
ATOM      8  C   UNL     1      -0.220  10.636  19.506  0.00  0.00    +0.000 C 
ATOM      9  O   UNL     1      -1.177   9.951  19.176  0.00  0.00    +0.000 OA
ATOM     10  H   UNL     1       1.771  10.946  19.850  0.00  0.00    +0.000 HD
BRANCH   8  11
ATOM     11  C   UNL     1      -0.422  12.080  19.851  0.00  0.00    +0.000 C 
ATOM     12  C   UNL     1      -1.714  12.780  19.514  0.00  0.00    +0.000 C 
ATOM     13  C   UNL     1      -0.470  13.093  18.719  0.00  0.00    +0.000 C 
BRANCH  13  14
ATOM     14  C   UNL     1       0.216  14.431  18.851  0.00  0.00    +0.000 A 
ATOM     15  C   UNL     1      -0.501  15.594  19.191  0.00  0.00    +0.000 A 
ATOM     16  C   UNL     1       0.147  16.813  19.405  0.00  0.00    +0.000 A 
ATOM     17  C   UNL     1       1.528  16.882  19.285  0.00  0.00    +0.000 A 
ATOM     18  F   UNL     1       2.155  18.043  19.519  0.00  0.00    +0.000 F 
ATOM     19  C   UNL     1       2.267  15.760  18.938  0.00  0.00    +0.000 A 
ATOM     20  C   UNL     1       1.612  14.545  18.722  0.00  0.00    +0.000 A 
ENDBRANCH  13  14
ENDBRANCH   8  11
ENDBRANCH   4   7
BRANCH   1  21
ATOM     21  O   UNL     1       3.300   5.302  18.303  0.00  0.00    +0.000 OA
BRANCH  21  26
ATOM     22  C   UNL     1       6.389   4.921  16.389  0.00  0.00    +0.000 A 
ATOM     23  C   UNL     1       7.362   5.067  17.388  0.00  0.00    +0.000 A 
ATOM     24  C   UNL     1       6.982   5.284  18.711  0.00  0.00    +0.000 A 
ATOM     25  C   UNL     1       5.629   5.357  19.040  0.00  0.00    +0.000 A 
ATOM     26  C   UNL     1       4.654   5.256  18.044  0.00  0.00    +0.000 A 
ATOM     27  C   UNL     1       5.031   5.009  16.720  0.00  0.00    +0.000 A 
BRANCH  22  29
ATOM     28  N   UNL     1       6.296   3.590  14.347  0.00  0.00    +0.000 N 
ATOM     29  C   UNL     1       6.853   4.652  15.003  0.00  0.00    +0.000 C 
ATOM     30  O   UNL     1       7.677   5.369  14.449  0.00  0.00    +0.000 OA
ATOM     31  H   UNL     1       6.546   3.493  13.370  0.00  0.00    +0.000 HD
ATOM     32  H   UNL     1       5.447   3.144  14.660  0.00  0.00    +0.000 HD
ENDBRANCH  22  29
ENDBRANCH  21  26
ENDBRANCH   1  21
TORSDOF 6
ENDMDL
