MODEL 1
REMARK VINA RESULT:      -8.4      0.000      0.000
REMARK  Name = 
REMARK  4 active torsions:
REMARK  status: ('A' for Active; 'I' for Inactive)
REMARK    1  A    between atoms: S_2  and  N_4
REMARK    2  A    between atoms: S_2  and  C_14
REMARK    3  A    between atoms: N_4  and  C_5
REMARK    4  A    between atoms: C_19  and  C_20
REMARK                            x       y       z     vdW  Elec       q    Type
REMARK                         _______ _______ _______ _____ _____    ______ ____
ROOT
ATOM      1  O   UNL     1       2.143   3.291  16.434  0.00  0.00    +0.000 OA
ATOM      2  S   UNL     1       2.571   3.012  17.784  0.00  0.00    +0.000 S 
ATOM      3  O   UNL     1       1.967   1.926  18.524  0.00  0.00    +0.000 OA
ENDROOT
BRANCH   2   4
ATOM      4  C   UNL     1       2.364   4.521  18.717  0.00  0.00    +0.000 A 
ATOM      5  C   UNL     1       2.378   5.715  17.968  0.00  0.00    +0.000 A 
ATOM      6  C   UNL     1       2.236   6.953  18.592  0.00  0.00    +0.000 A 
ATOM      7  C   UNL     1       2.057   7.016  19.967  0.00  0.00    +0.000 A 
ATOM      8  C   UNL     1       2.058   5.840  20.717  0.00  0.00    +0.000 A 
ATOM      9  C   UNL     1       2.238   4.569  20.116  0.00  0.00    +0.000 A 
BRANCH   9  10
ATOM     10  C   UNL     1       2.304   3.398  21.068  0.00  0.00    +0.000 C 
ATOM     11  F   UNL     1       3.332   2.531  20.915  0.00  0.00    +0.000 F 
ATOM     12  F   UNL     1       2.356   3.814  22.367  0.00  0.00    +0.000 F 
ATOM     13  F   UNL     1       1.177   2.630  20.985  0.00  0.00    +0.000 F 
ENDBRANCH   9  10
ENDBRANCH   2   4
BRANCH   2  14
ATOM     14  N   UNL     1       4.236   2.750  17.758  0.00  0.00    +0.000 N 
ATOM     15  H   UNL     1       4.530   2.117  18.503  0.00  0.00    +0.000 HD
BRANCH  14  16
ATOM     16  C   UNL     1       5.117   3.808  17.401  0.00  0.00    +0.000 A 
ATOM     17  C   UNL     1       5.208   4.275  16.083  0.00  0.00    +0.000 A 
ATOM     18  C   UNL     1       6.037   5.361  15.748  0.00  0.00    +0.000 A 
ATOM     19  C   UNL     1       6.752   5.941  16.801  0.00  0.00    +0.000 A 
ATOM     20  N   UNL     1       7.627   6.990  16.876  0.00  0.00    +0.000 N 
ATOM     21  N   UNL     1       8.067   7.176  18.133  0.00  0.00    +0.000 NA
ATOM     22  N   UNL     1       7.480   6.269  18.902  0.00  0.00    +0.000 NA
ATOM     23  C   UNL     1       6.674   5.495  18.111  0.00  0.00    +0.000 A 
ATOM     24  C   UNL     1       5.847   4.410  18.428  0.00  0.00    +0.000 A 
ATOM     25  H   UNL     1       7.967   7.604  16.148  0.00  0.00    +0.000 HD
ENDBRANCH  14  16
ENDBRANCH   2  14
TORSDOF 4
ENDMDL
MODEL 2
REMARK VINA RESULT:      -8.2      1.147      1.942
REMARK  Name = 
REMARK  4 active torsions:
REMARK  status: ('A' for Active; 'I' for Inactive)
REMARK    1  A    between atoms: S_2  and  N_4
REMARK    2  A    between atoms: S_2  and  C_14
REMARK    3  A    between atoms: N_4  and  C_5
REMARK    4  A    between atoms: C_19  and  C_20
REMARK                            x       y       z     vdW  Elec       q    Type
REMARK                         _______ _______ _______ _____ _____    ______ ____
ROOT
ATOM      1  O   UNL     1       1.999   3.456  16.546  0.00  0.00    +0.000 OA
ATOM      2  S   UNL     1       2.332   3.113  17.908  0.00  0.00    +0.000 S 
ATOM      3  O   UNL     1       1.599   2.070  18.591  0.00  0.00    +0.000 OA
ENDROOT
BRANCH   2   4
ATOM      4  C   UNL     1       2.210   4.616  18.866  0.00  0.00    +0.000 A 
ATOM      5  C   UNL     1       2.273   5.820  18.135  0.00  0.00    +0.000 A 
ATOM      6  C   UNL     1       2.199   7.053  18.779  0.00  0.00    +0.000 A 
ATOM      7  C   UNL     1       2.039   7.103  20.157  0.00  0.00    +0.000 A 
ATOM      8  C   UNL     1       1.992   5.917  20.889  0.00  0.00    +0.000 A 
ATOM      9  C   UNL     1       2.102   4.648  20.267  0.00  0.00    +0.000 A 
BRANCH   9  10
ATOM     10  C   UNL     1       2.122   3.461  21.200  0.00  0.00    +0.000 C 
ATOM     11  F   UNL     1       2.261   3.713  22.523  0.00  0.00    +0.000 F 
ATOM     12  F   UNL     1       0.988   2.712  21.079  0.00  0.00    +0.000 F 
ATOM     13  F   UNL     1       3.146   2.610  20.894  0.00  0.00    +0.000 F 
ENDBRANCH   9  10
ENDBRANCH   2   4
BRANCH   2  14
ATOM     14  N   UNL     1       3.967   2.706  17.957  0.00  0.00    +0.000 N 
ATOM     15  H   UNL     1       4.203   2.195  18.808  0.00  0.00    +0.000 HD
BRANCH  14  16
ATOM     16  C   UNL     1       4.939   3.601  17.430  0.00  0.00    +0.000 A 
ATOM     17  C   UNL     1       5.660   4.472  18.258  0.00  0.00    +0.000 A 
ATOM     18  C   UNL     1       6.662   5.311  17.738  0.00  0.00    +0.000 A 
ATOM     19  C   UNL     1       6.895   5.218  16.362  0.00  0.00    +0.000 A 
ATOM     20  N   UNL     1       7.768   5.841  15.513  0.00  0.00    +0.000 N 
ATOM     21  N   UNL     1       7.616   5.413  14.247  0.00  0.00    +0.000 NA
ATOM     22  N   UNL     1       6.659   4.495  14.246  0.00  0.00    +0.000 NA
ATOM     23  C   UNL     1       6.196   4.360  15.528  0.00  0.00    +0.000 A 
ATOM     24  C   UNL     1       5.198   3.533  16.060  0.00  0.00    +0.000 A 
ATOM     25  H   UNL     1       8.468   6.545  15.706  0.00  0.00    +0.000 HD
ENDBRANCH  14  16
ENDBRANCH   2  14
TORSDOF 4
ENDMDL
MODEL 3
REMARK VINA RESULT:      -8.2      0.580      1.578
REMARK  Name = 
REMARK  4 active torsions:
REMARK  status: ('A' for Active; 'I' for Inactive)
REMARK    1  A    between atoms: S_2  and  N_4
REMARK    2  A    between atoms: S_2  and  C_14
REMARK    3  A    between atoms: N_4  and  C_5
REMARK    4  A    between atoms: C_19  and  C_20
REMARK                            x       y       z     vdW  Elec       q    Type
REMARK                         _______ _______ _______ _____ _____    ______ ____
ROOT
ATOM      1  O   UNL     1       2.100   3.182  16.565  0.00  0.00    +0.000 OA
ATOM      2  S   UNL     1       2.470   2.969  17.944  0.00  0.00    +0.000 S 
ATOM      3  O   UNL     1       1.813   1.941  18.719  0.00  0.00    +0.000 OA
ENDROOT
BRANCH   2   4
ATOM      4  C   UNL     1       2.264   4.533  18.782  0.00  0.00    +0.000 A 
ATOM      5  C   UNL     1       2.307   5.681  17.966  0.00  0.00    +0.000 A 
ATOM      6  C   UNL     1       2.169   6.955  18.513  0.00  0.00    +0.000 A 
ATOM      7  C   UNL     1       1.964   7.100  19.878  0.00  0.00    +0.000 A 
ATOM      8  C   UNL     1       1.936   5.971  20.696  0.00  0.00    +0.000 A 
ATOM      9  C   UNL     1       2.112   4.665  20.174  0.00  0.00    +0.000 A 
BRANCH   9  10
ATOM     10  C   UNL     1       2.145   3.551  21.193  0.00  0.00    +0.000 C 
ATOM     11  F   UNL     1       2.299   3.903  22.491  0.00  0.00    +0.000 F 
ATOM     12  F   UNL     1       1.010   2.794  21.143  0.00  0.00    +0.000 F 
ATOM     13  F   UNL     1       3.166   2.680  20.939  0.00  0.00    +0.000 F 
ENDBRANCH   9  10
ENDBRANCH   2   4
BRANCH   2  14
ATOM     14  N   UNL     1       4.128   2.671  17.997  0.00  0.00    +0.000 N 
ATOM     15  H   UNL     1       4.343   1.833  18.538  0.00  0.00    +0.000 HD
BRANCH  14  16
ATOM     16  C   UNL     1       5.045   3.756  18.064  0.00  0.00    +0.000 A 
ATOM     17  C   UNL     1       5.516   4.246  19.289  0.00  0.00    +0.000 A 
ATOM     18  C   UNL     1       6.469   5.280  19.345  0.00  0.00    +0.000 A 
ATOM     19  C   UNL     1       6.915   5.777  18.116  0.00  0.00    +0.000 A 
ATOM     20  N   UNL     1       7.818   6.744  17.767  0.00  0.00    +0.000 N 
ATOM     21  N   UNL     1       7.913   6.869  16.431  0.00  0.00    +0.000 NA
ATOM     22  N   UNL     1       7.092   5.983  15.885  0.00  0.00    +0.000 NA
ATOM     23  C   UNL     1       6.464   5.304  16.894  0.00  0.00    +0.000 A 
ATOM     24  C   UNL     1       5.513   4.276  16.855  0.00  0.00    +0.000 A 
ATOM     25  H   UNL     1       8.385   7.343  18.352  0.00  0.00    +0.000 HD
ENDBRANCH  14  16
ENDBRANCH   2  14
TORSDOF 4
ENDMDL
MODEL 4
REMARK VINA RESULT:      -8.1      1.166      1.753
REMARK  Name = 
REMARK  4 active torsions:
REMARK  status: ('A' for Active; 'I' for Inactive)
REMARK    1  A    between atoms: S_2  and  N_4
REMARK    2  A    between atoms: S_2  and  C_14
REMARK    3  A    between atoms: N_4  and  C_5
REMARK    4  A    between atoms: C_19  and  C_20
REMARK                            x       y       z     vdW  Elec       q    Type
REMARK                         _______ _______ _______ _____ _____    ______ ____
ROOT
ATOM      1  O   UNL     1       2.259   3.105  16.824  0.00  0.00    +0.000 OA
ATOM      2  S   UNL     1       3.345   3.525  17.678  0.00  0.00    +0.000 S 
ATOM      3  O   UNL     1       4.114   2.540  18.408  0.00  0.00    +0.000 OA
ENDROOT
BRANCH   2   4
ATOM      4  C   UNL     1       2.663   4.692  18.846  0.00  0.00    +0.000 A 
ATOM      5  C   UNL     1       2.807   6.054  18.512  0.00  0.00    +0.000 A 
ATOM      6  C   UNL     1       2.323   7.053  19.354  0.00  0.00    +0.000 A 
ATOM      7  C   UNL     1       1.670   6.708  20.529  0.00  0.00    +0.000 A 
ATOM      8  C   UNL     1       1.537   5.363  20.875  0.00  0.00    +0.000 A 
ATOM      9  C   UNL     1       2.052   4.326  20.058  0.00  0.00    +0.000 A 
BRANCH   9  10
ATOM     10  C   UNL     1       1.908   2.927  20.609  0.00  0.00    +0.000 C 
ATOM     11  F   UNL     1       1.474   1.967  19.759  0.00  0.00    +0.000 F 
ATOM     12  F   UNL     1       3.088   2.468  21.119  0.00  0.00    +0.000 F 
ATOM     13  F   UNL     1       1.031   2.896  21.656  0.00  0.00    +0.000 F 
ENDBRANCH   9  10
ENDBRANCH   2   4
BRANCH   2  14
ATOM     14  N   UNL     1       4.420   4.429  16.748  0.00  0.00    +0.000 N 
ATOM     15  H   UNL     1       4.622   3.975  15.857  0.00  0.00    +0.000 HD
BRANCH  14  16
ATOM     16  C   UNL     1       5.472   5.152  17.376  0.00  0.00    +0.000 A 
ATOM     17  C   UNL     1       6.263   4.575  18.378  0.00  0.00    +0.000 A 
ATOM     18  C   UNL     1       7.339   5.275  18.953  0.00  0.00    +0.000 A 
ATOM     19  C   UNL     1       7.570   6.565  18.463  0.00  0.00    +0.000 A 
ATOM     20  N   UNL     1       8.500   7.526  18.751  0.00  0.00    +0.000 N 
ATOM     21  N   UNL     1       8.317   8.629  18.004  0.00  0.00    +0.000 NA
ATOM     22  N   UNL     1       7.281   8.406  17.207  0.00  0.00    +0.000 NA
ATOM     23  C   UNL     1       6.801   7.152  17.471  0.00  0.00    +0.000 A 
ATOM     24  C   UNL     1       5.730   6.443  16.911  0.00  0.00    +0.000 A 
ATOM     25  H   UNL     1       9.260   7.514  19.419  0.00  0.00    +0.000 HD
ENDBRANCH  14  16
ENDBRANCH   2  14
TORSDOF 4
ENDMDL
MODEL 5
REMARK VINA RESULT:      -7.8      0.890      1.564
REMARK  Name = 
REMARK  4 active torsions:
REMARK  status: ('A' for Active; 'I' for Inactive)
REMARK    1  A    between atoms: S_2  and  N_4
REMARK    2  A    between atoms: S_2  and  C_14
REMARK    3  A    between atoms: N_4  and  C_5
REMARK    4  A    between atoms: C_19  and  C_20
REMARK                            x       y       z     vdW  Elec       q    Type
REMARK                         _______ _______ _______ _____ _____    ______ ____
ROOT
ATOM      1  O   UNL     1       1.491   3.720  16.582  0.00  0.00    +0.000 OA
ATOM      2  S   UNL     1       1.809   3.296  17.925  0.00  0.00    +0.000 S 
ATOM      3  O   UNL     1       0.974   2.322  18.593  0.00  0.00    +0.000 OA
ENDROOT
BRANCH   2   4
ATOM      4  C   UNL     1       1.880   4.770  18.931  0.00  0.00    +0.000 A 
ATOM      5  C   UNL     1       1.936   5.992  18.230  0.00  0.00    +0.000 A 
ATOM      6  C   UNL     1       2.006   7.205  18.911  0.00  0.00    +0.000 A 
ATOM      7  C   UNL     1       1.998   7.219  20.299  0.00  0.00    +0.000 A 
ATOM      8  C   UNL     1       1.959   6.014  21.000  0.00  0.00    +0.000 A 
ATOM      9  C   UNL     1       1.926   4.762  20.336  0.00  0.00    +0.000 A 
BRANCH   9  10
ATOM     10  C   UNL     1       1.975   3.545  21.229  0.00  0.00    +0.000 C 
ATOM     11  F   UNL     1       2.806   2.541  20.865  0.00  0.00    +0.000 F 
ATOM     12  F   UNL     1       2.327   3.877  22.505  0.00  0.00    +0.000 F 
ATOM     13  F   UNL     1       0.744   2.963  21.339  0.00  0.00    +0.000 F 
ENDBRANCH   9  10
ENDBRANCH   2   4
BRANCH   2  14
ATOM     14  N   UNL     1       3.387   2.703  17.924  0.00  0.00    +0.000 N 
ATOM     15  H   UNL     1       3.485   1.891  18.534  0.00  0.00    +0.000 HD
BRANCH  14  16
ATOM     16  C   UNL     1       4.485   3.601  17.834  0.00  0.00    +0.000 A 
ATOM     17  C   UNL     1       5.185   4.023  18.973  0.00  0.00    +0.000 A 
ATOM     18  C   UNL     1       6.307   4.864  18.871  0.00  0.00    +0.000 A 
ATOM     19  C   UNL     1       6.680   5.245  17.578  0.00  0.00    +0.000 A 
ATOM     20  N   UNL     1       7.692   6.021  17.083  0.00  0.00    +0.000 N 
ATOM     21  N   UNL     1       7.643   6.098  15.741  0.00  0.00    +0.000 NA
ATOM     22  N   UNL     1       6.615   5.366  15.334  0.00  0.00    +0.000 NA
ATOM     23  C   UNL     1       6.004   4.836  16.439  0.00  0.00    +0.000 A 
ATOM     24  C   UNL     1       4.886   4.001  16.557  0.00  0.00    +0.000 A 
ATOM     25  H   UNL     1       8.426   6.518  17.570  0.00  0.00    +0.000 HD
ENDBRANCH  14  16
ENDBRANCH   2  14
TORSDOF 4
ENDMDL
MODEL 6
REMARK VINA RESULT:      -7.6      3.000      3.840
REMARK  Name = 
REMARK  4 active torsions:
REMARK  status: ('A' for Active; 'I' for Inactive)
REMARK    1  A    between atoms: S_2  and  N_4
REMARK    2  A    between atoms: S_2  and  C_14
REMARK    3  A    between atoms: N_4  and  C_5
REMARK    4  A    between atoms: C_19  and  C_20
REMARK                            x       y       z     vdW  Elec       q    Type
REMARK                         _______ _______ _______ _____ _____    ______ ____
ROOT
ATOM      1  O   UNL     1       5.692   5.409  19.712  0.00  0.00    +0.000 OA
ATOM      2  S   UNL     1       5.101   5.046  18.446  0.00  0.00    +0.000 S 
ATOM      3  O   UNL     1       4.697   6.076  17.514  0.00  0.00    +0.000 OA
ENDROOT
BRANCH   2   4
ATOM      4  C   UNL     1       3.684   4.021  18.810  0.00  0.00    +0.000 A 
ATOM      5  C   UNL     1       3.801   2.661  18.462  0.00  0.00    +0.000 A 
ATOM      6  C   UNL     1       2.754   1.770  18.689  0.00  0.00    +0.000 A 
ATOM      7  C   UNL     1       1.584   2.220  19.286  0.00  0.00    +0.000 A 
ATOM      8  C   UNL     1       1.453   3.568  19.619  0.00  0.00    +0.000 A 
ATOM      9  C   UNL     1       2.486   4.505  19.366  0.00  0.00    +0.000 A 
BRANCH   9  10
ATOM     10  C   UNL     1       2.163   5.941  19.701  0.00  0.00    +0.000 C 
ATOM     11  F   UNL     1       3.132   6.672  20.300  0.00  0.00    +0.000 F 
ATOM     12  F   UNL     1       1.799   6.643  18.588  0.00  0.00    +0.000 F 
ATOM     13  F   UNL     1       1.089   6.023  20.540  0.00  0.00    +0.000 F 
ENDBRANCH   9  10
ENDBRANCH   2   4
BRANCH   2  14
ATOM     14  N   UNL     1       6.174   4.023  17.645  0.00  0.00    +0.000 N 
ATOM     15  H   UNL     1       7.001   3.826  18.210  0.00  0.00    +0.000 HD
BRANCH  14  16
ATOM     16  C   UNL     1       6.345   4.131  16.237  0.00  0.00    +0.000 A 
ATOM     17  C   UNL     1       5.449   3.534  15.340  0.00  0.00    +0.000 A 
ATOM     18  C   UNL     1       5.590   3.695  13.950  0.00  0.00    +0.000 A 
ATOM     19  C   UNL     1       6.663   4.484  13.525  0.00  0.00    +0.000 A 
ATOM     20  N   UNL     1       7.112   4.875  12.292  0.00  0.00    +0.000 N 
ATOM     21  N   UNL     1       8.207   5.650  12.388  0.00  0.00    +0.000 NA
ATOM     22  N   UNL     1       8.484   5.794  13.677  0.00  0.00    +0.000 NA
ATOM     23  C   UNL     1       7.558   5.086  14.396  0.00  0.00    +0.000 A 
ATOM     24  C   UNL     1       7.406   4.913  15.777  0.00  0.00    +0.000 A 
ATOM     25  H   UNL     1       6.748   4.661  11.373  0.00  0.00    +0.000 HD
ENDBRANCH  14  16
ENDBRANCH   2  14
TORSDOF 4
ENDMDL
MODEL 7
REMARK VINA RESULT:      -7.5      2.096      2.591
REMARK  Name = 
REMARK  4 active torsions:
REMARK  status: ('A' for Active; 'I' for Inactive)
REMARK    1  A    between atoms: S_2  and  N_4
REMARK    2  A    between atoms: S_2  and  C_14
REMARK    3  A    between atoms: N_4  and  C_5
REMARK    4  A    between atoms: C_19  and  C_20
REMARK                            x       y       z     vdW  Elec       q    Type
REMARK                         _______ _______ _______ _____ _____    ______ ____
ROOT
ATOM      1  O   UNL     1       3.810   2.643  17.743  0.00  0.00    +0.000 OA
ATOM      2  S   UNL     1       4.496   3.323  18.816  0.00  0.00    +0.000 S 
ATOM      3  O   UNL     1       5.067   2.563  19.906  0.00  0.00    +0.000 OA
ENDROOT
BRANCH   2   4
ATOM      4  C   UNL     1       3.348   4.513  19.493  0.00  0.00    +0.000 A 
ATOM      5  C   UNL     1       3.558   5.855  19.116  0.00  0.00    +0.000 A 
ATOM      6  C   UNL     1       2.731   6.870  19.593  0.00  0.00    +0.000 A 
ATOM      7  C   UNL     1       1.670   6.558  20.433  0.00  0.00    +0.000 A 
ATOM      8  C   UNL     1       1.465   5.235  20.823  0.00  0.00    +0.000 A 
ATOM      9  C   UNL     1       2.312   4.186  20.385  0.00  0.00    +0.000 A 
BRANCH   9  10
ATOM     10  C   UNL     1       2.016   2.822  20.963  0.00  0.00    +0.000 C 
ATOM     11  F   UNL     1       2.931   2.295  21.810  0.00  0.00    +0.000 F 
ATOM     12  F   UNL     1       0.831   2.813  21.639  0.00  0.00    +0.000 F 
ATOM     13  F   UNL     1       1.870   1.889  19.975  0.00  0.00    +0.000 F 
ENDBRANCH   9  10
ENDBRANCH   2   4
BRANCH   2  14
ATOM     14  N   UNL     1       5.727   4.253  18.139  0.00  0.00    +0.000 N 
ATOM     15  H   UNL     1       5.840   5.143  18.627  0.00  0.00    +0.000 HD
BRANCH  14  16
ATOM     16  C   UNL     1       5.941   4.238  16.733  0.00  0.00    +0.000 A 
ATOM     17  C   UNL     1       5.044   3.607  15.861  0.00  0.00    +0.000 A 
ATOM     18  C   UNL     1       5.230   3.647  14.467  0.00  0.00    +0.000 A 
ATOM     19  C   UNL     1       6.349   4.352  14.012  0.00  0.00    +0.000 A 
ATOM     20  N   UNL     1       6.848   4.620  12.767  0.00  0.00    +0.000 N 
ATOM     21  N   UNL     1       7.973   5.353  12.833  0.00  0.00    +0.000 NA
ATOM     22  N   UNL     1       8.222   5.592  14.114  0.00  0.00    +0.000 NA
ATOM     23  C   UNL     1       7.245   4.986  14.859  0.00  0.00    +0.000 A 
ATOM     24  C   UNL     1       7.049   4.934  16.245  0.00  0.00    +0.000 A 
ATOM     25  H   UNL     1       6.500   4.347  11.857  0.00  0.00    +0.000 HD
ENDBRANCH  14  16
ENDBRANCH   2  14
TORSDOF 4
ENDMDL
MODEL 8
REMARK VINA RESULT:      -7.5      2.929      3.845
REMARK  Name = 
REMARK  4 active torsions:
REMARK  status: ('A' for Active; 'I' for Inactive)
REMARK    1  A    between atoms: S_2  and  N_4
REMARK    2  A    between atoms: S_2  and  C_14
REMARK    3  A    between atoms: N_4  and  C_5
REMARK    4  A    between atoms: C_19  and  C_20
REMARK                            x       y       z     vdW  Elec       q    Type
REMARK                         _______ _______ _______ _____ _____    ______ ____
ROOT
ATOM      1  O   UNL     1       4.999   5.323  19.778  0.00  0.00    +0.000 OA
ATOM      2  S   UNL     1       4.478   4.990  18.473  0.00  0.00    +0.000 S 
ATOM      3  O   UNL     1       4.138   6.042  17.541  0.00  0.00    +0.000 OA
ENDROOT
BRANCH   2   4
ATOM      4  C   UNL     1       3.033   3.974  18.736  0.00  0.00    +0.000 A 
ATOM      5  C   UNL     1       2.954   2.801  17.958  0.00  0.00    +0.000 A 
ATOM      6  C   UNL     1       1.866   1.939  18.071  0.00  0.00    +0.000 A 
ATOM      7  C   UNL     1       0.853   2.222  18.977  0.00  0.00    +0.000 A 
ATOM      8  C   UNL     1       0.915   3.388  19.739  0.00  0.00    +0.000 A 
ATOM      9  C   UNL     1       1.990   4.304  19.619  0.00  0.00    +0.000 A 
BRANCH   9  10
ATOM     10  C   UNL     1       1.873   5.562  20.446  0.00  0.00    +0.000 C 
ATOM     11  F   UNL     1       2.322   6.713  19.892  0.00  0.00    +0.000 F 
ATOM     12  F   UNL     1       0.579   5.802  20.809  0.00  0.00    +0.000 F 
ATOM     13  F   UNL     1       2.557   5.446  21.623  0.00  0.00    +0.000 F 
ENDBRANCH   9  10
ENDBRANCH   2   4
BRANCH   2  14
ATOM     14  N   UNL     1       5.586   3.971  17.715  0.00  0.00    +0.000 N 
ATOM     15  H   UNL     1       6.210   3.525  18.388  0.00  0.00    +0.000 HD
BRANCH  14  16
ATOM     16  C   UNL     1       6.122   4.321  16.445  0.00  0.00    +0.000 A 
ATOM     17  C   UNL     1       7.112   5.303  16.311  0.00  0.00    +0.000 A 
ATOM     18  C   UNL     1       7.680   5.601  15.059  0.00  0.00    +0.000 A 
ATOM     19  C   UNL     1       7.204   4.862  13.971  0.00  0.00    +0.000 A 
ATOM     20  N   UNL     1       7.508   4.851  12.637  0.00  0.00    +0.000 N 
ATOM     21  N   UNL     1       6.770   3.946  11.970  0.00  0.00    +0.000 NA
ATOM     22  N   UNL     1       5.986   3.339  12.851  0.00  0.00    +0.000 NA
ATOM     23  C   UNL     1       6.228   3.884  14.084  0.00  0.00    +0.000 A 
ATOM     24  C   UNL     1       5.669   3.601  15.337  0.00  0.00    +0.000 A 
ATOM     25  H   UNL     1       8.174   5.410  12.120  0.00  0.00    +0.000 HD
ENDBRANCH  14  16
ENDBRANCH   2  14
TORSDOF 4
ENDMDL
MODEL 9
REMARK VINA RESULT:      -7.4      2.927      3.786
REMARK  Name = 
REMARK  4 active torsions:
REMARK  status: ('A' for Active; 'I' for Inactive)
REMARK    1  A    between atoms: S_2  and  N_4
REMARK    2  A    between atoms: S_2  and  C_14
REMARK    3  A    between atoms: N_4  and  C_5
REMARK    4  A    between atoms: C_19  and  C_20
REMARK                            x       y       z     vdW  Elec       q    Type
REMARK                         _______ _______ _______ _____ _____    ______ ____
ROOT
ATOM      1  O   UNL     1       5.604   4.922  18.981  0.00  0.00    +0.000 OA
ATOM      2  S   UNL     1       4.707   4.685  17.874  0.00  0.00    +0.000 S 
ATOM      3  O   UNL     1       4.322   5.777  17.008  0.00  0.00    +0.000 OA
ENDROOT
BRANCH   2   4
ATOM      4  C   UNL     1       3.228   3.950  18.554  0.00  0.00    +0.000 A 
ATOM      5  C   UNL     1       3.026   2.586  18.260  0.00  0.00    +0.000 A 
ATOM      6  C   UNL     1       1.901   1.911  18.729  0.00  0.00    +0.000 A 
ATOM      7  C   UNL     1       0.973   2.581  19.515  0.00  0.00    +0.000 A 
ATOM      8  C   UNL     1       1.157   3.934  19.797  0.00  0.00    +0.000 A 
ATOM      9  C   UNL     1       2.271   4.657  19.303  0.00  0.00    +0.000 A 
BRANCH   9  10
ATOM     10  C   UNL     1       2.286   6.134  19.619  0.00  0.00    +0.000 C 
ATOM     11  F   UNL     1       1.991   6.987  18.611  0.00  0.00    +0.000 F 
ATOM     12  F   UNL     1       1.421   6.436  20.631  0.00  0.00    +0.000 F 
ATOM     13  F   UNL     1       3.513   6.529  20.071  0.00  0.00    +0.000 F 
ENDBRANCH   9  10
ENDBRANCH   2   4
BRANCH   2  14
ATOM     14  N   UNL     1       5.380   3.478  16.909  0.00  0.00    +0.000 N 
ATOM     15  H   UNL     1       5.906   2.802  17.463  0.00  0.00    +0.000 HD
BRANCH  14  16
ATOM     16  C   UNL     1       5.867   3.794  15.611  0.00  0.00    +0.000 A 
ATOM     17  C   UNL     1       5.225   3.334  14.453  0.00  0.00    +0.000 A 
ATOM     18  C   UNL     1       5.678   3.700  13.173  0.00  0.00    +0.000 A 
ATOM     19  C   UNL     1       6.792   4.545  13.128  0.00  0.00    +0.000 A 
ATOM     20  N   UNL     1       7.499   5.114  12.104  0.00  0.00    +0.000 N 
ATOM     21  N   UNL     1       8.513   5.868  12.564  0.00  0.00    +0.000 NA
ATOM     22  N   UNL     1       8.479   5.821  13.889  0.00  0.00    +0.000 NA
ATOM     23  C   UNL     1       7.438   5.013  14.261  0.00  0.00    +0.000 A 
ATOM     24  C   UNL     1       6.978   4.637  15.529  0.00  0.00    +0.000 A 
ATOM     25  H   UNL     1       7.365   5.039  11.104  0.00  0.00    +0.000 HD
ENDBRANCH  14  16
ENDBRANCH   2  14
TORSDOF 4
ENDMDL
