MODEL 1
REMARK VINA RESULT:      -9.0      0.000      0.000
REMARK  Name = 
REMARK  4 active torsions:
REMARK  status: ('A' for Active; 'I' for Inactive)
REMARK    1  A    between atoms: C_7  and  C_8
REMARK    2  A    between atoms: C_8  and  C_9
REMARK    3  A    between atoms: C_11  and  C_12
REMARK    4  A    between atoms: C_12  and  C_13
REMARK                            x       y       z     vdW  Elec       q    Type
REMARK                         _______ _______ _______ _____ _____    ______ ____
ROOT
ATOM      1  C   UNL     1       2.120   8.162  18.542  0.00  0.00    +0.000 A 
ATOM      2  N   UNL     1       2.482   7.043  17.961  0.00  0.00    +0.000 NA
ATOM      3  C   UNL     1       2.472   6.148  19.009  0.00  0.00    +0.000 A 
ATOM      4  N   UNL     1       2.142   6.687  20.191  0.00  0.00    +0.000 NA
ATOM      5  O   UNL     1       1.919   8.032  19.884  0.00  0.00    +0.000 OA
ENDROOT
BRANCH   3   6
ATOM      6  C   UNL     1       2.727   4.675  18.793  0.00  0.00    +0.000 C 
ATOM      7  C   UNL     1       1.567   4.011  18.003  0.00  0.00    +0.000 C 
ATOM      8  C   UNL     1       1.610   2.526  18.357  0.00  0.00    +0.000 C 
ATOM      9  C   UNL     1       2.387   2.426  19.665  0.00  0.00    +0.000 C 
ATOM     10  C   UNL     1       2.619   3.870  20.107  0.00  0.00    +0.000 C 
BRANCH   6  11
ATOM     11  C   UNL     1       4.055   4.617  18.016  0.00  0.00    +0.000 A 
ATOM     12  C   UNL     1       4.073   4.150  16.678  0.00  0.00    +0.000 A 
ATOM     13  C   UNL     1       5.259   4.082  15.943  0.00  0.00    +0.000 A 
ATOM     14  C   UNL     1       6.455   4.461  16.534  0.00  0.00    +0.000 A 
ATOM     15  F   UNL     1       7.593   4.387  15.833  0.00  0.00    +0.000 F 
ATOM     16  C   UNL     1       6.483   4.912  17.841  0.00  0.00    +0.000 A 
ATOM     17  C   UNL     1       5.293   4.997  18.561  0.00  0.00    +0.000 A 
ATOM     18  F   UNL     1       5.392   5.452  19.816  0.00  0.00    +0.000 F 
ENDBRANCH   6  11
ENDBRANCH   3   6
BRANCH   1  19
ATOM     19  C   UNL     1       1.752   9.455  17.909  0.00  0.00    +0.000 C 
BRANCH  19  26
ATOM     20  O   UNL     1      -0.618  13.741  19.486  0.00  0.00    +0.000 OA
ATOM     21  S   UNL     1      -0.779  12.302  19.555  0.00  0.00    +0.000 S 
ATOM     22  O   UNL     1      -1.044  11.645  20.822  0.00  0.00    +0.000 OA
ATOM     23  C   UNL     1      -2.049  11.837  18.403  0.00  0.00    +0.000 C 
ATOM     24  C   UNL     1      -2.073  10.332  18.195  0.00  0.00    +0.000 C 
ATOM     25  C   UNL     1      -0.759   9.809  17.617  0.00  0.00    +0.000 C 
ATOM     26  C   UNL     1       0.467  10.067  18.520  0.00  0.00    +0.000 C 
ATOM     27  C   UNL     1       0.663  11.556  18.836  0.00  0.00    +0.000 C 
ENDBRANCH  19  26
ENDBRANCH   1  19
TORSDOF 4
ENDMDL
MODEL 2
REMARK VINA RESULT:      -8.5      0.949      1.327
REMARK  Name = 
REMARK  4 active torsions:
REMARK  status: ('A' for Active; 'I' for Inactive)
REMARK    1  A    between atoms: C_7  and  C_8
REMARK    2  A    between atoms: C_8  and  C_9
REMARK    3  A    between atoms: C_11  and  C_12
REMARK    4  A    between atoms: C_12  and  C_13
REMARK                            x       y       z     vdW  Elec       q    Type
REMARK                         _______ _______ _______ _____ _____    ______ ____
ROOT
ATOM      1  C   UNL     1       1.981   8.196  18.672  0.00  0.00    +0.000 A 
ATOM      2  N   UNL     1       2.367   7.043  18.178  0.00  0.00    +0.000 NA
ATOM      3  C   UNL     1       2.347   6.223  19.286  0.00  0.00    +0.000 A 
ATOM      4  N   UNL     1       1.987   6.841  20.421  0.00  0.00    +0.000 NA
ATOM      5  O   UNL     1       1.756   8.158  20.016  0.00  0.00    +0.000 OA
ENDROOT
BRANCH   3   6
ATOM      6  C   UNL     1       2.622   4.742  19.179  0.00  0.00    +0.000 C 
ATOM      7  C   UNL     1       1.535   4.026  18.334  0.00  0.00    +0.000 C 
ATOM      8  C   UNL     1       1.550   2.564  18.775  0.00  0.00    +0.000 C 
ATOM      9  C   UNL     1       2.213   2.545  20.148  0.00  0.00    +0.000 C 
ATOM     10  C   UNL     1       2.404   4.014  20.523  0.00  0.00    +0.000 C 
BRANCH   6  11
ATOM     11  C   UNL     1       4.011   4.648  18.522  0.00  0.00    +0.000 A 
ATOM     12  C   UNL     1       5.163   5.050  19.243  0.00  0.00    +0.000 A 
ATOM     13  C   UNL     1       6.440   4.980  18.680  0.00  0.00    +0.000 A 
ATOM     14  C   UNL     1       6.591   4.527  17.378  0.00  0.00    +0.000 A 
ATOM     15  F   UNL     1       7.813   4.469  16.834  0.00  0.00    +0.000 F 
ATOM     16  C   UNL     1       5.492   4.136  16.636  0.00  0.00    +0.000 A 
ATOM     17  C   UNL     1       4.224   4.188  17.212  0.00  0.00    +0.000 A 
ATOM     18  F   UNL     1       3.207   3.784  16.441  0.00  0.00    +0.000 F 
ENDBRANCH   6  11
ENDBRANCH   3   6
BRANCH   1  19
ATOM     19  C   UNL     1       1.612   9.436  17.943  0.00  0.00    +0.000 C 
BRANCH  19  26
ATOM     20  O   UNL     1      -0.737  13.800  19.328  0.00  0.00    +0.000 OA
ATOM     21  S   UNL     1      -0.922  12.366  19.432  0.00  0.00    +0.000 S 
ATOM     22  O   UNL     1      -1.235  11.749  20.709  0.00  0.00    +0.000 OA
ATOM     23  C   UNL     1      -2.164  11.887  18.256  0.00  0.00    +0.000 C 
ATOM     24  C   UNL     1      -2.206  10.378  18.089  0.00  0.00    +0.000 C 
ATOM     25  C   UNL     1      -0.883   9.819  17.566  0.00  0.00    +0.000 C 
ATOM     26  C   UNL     1       0.319  10.084  18.498  0.00  0.00    +0.000 C 
ATOM     27  C   UNL     1       0.529  11.579  18.778  0.00  0.00    +0.000 C 
ENDBRANCH  19  26
ENDBRANCH   1  19
TORSDOF 4
ENDMDL
MODEL 3
REMARK VINA RESULT:      -8.2      1.273      1.471
REMARK  Name = 
REMARK  4 active torsions:
REMARK  status: ('A' for Active; 'I' for Inactive)
REMARK    1  A    between atoms: C_7  and  C_8
REMARK    2  A    between atoms: C_8  and  C_9
REMARK    3  A    between atoms: C_11  and  C_12
REMARK    4  A    between atoms: C_12  and  C_13
REMARK                            x       y       z     vdW  Elec       q    Type
REMARK                         _______ _______ _______ _____ _____    ______ ____
ROOT
ATOM      1  C   UNL     1       1.977   8.198  18.976  0.00  0.00    +0.000 A 
ATOM      2  N   UNL     1       2.350   6.975  18.681  0.00  0.00    +0.000 NA
ATOM      3  C   UNL     1       2.117   6.301  19.860  0.00  0.00    +0.000 A 
ATOM      4  N   UNL     1       1.643   7.071  20.850  0.00  0.00    +0.000 NA
ATOM      5  O   UNL     1       1.562   8.339  20.267  0.00  0.00    +0.000 OA
ENDROOT
BRANCH   3   6
ATOM      6  C   UNL     1       2.303   4.806  19.966  0.00  0.00    +0.000 C 
ATOM      7  C   UNL     1       0.952   4.057  19.817  0.00  0.00    +0.000 C 
ATOM      8  C   UNL     1       1.136   2.709  20.513  0.00  0.00    +0.000 C 
ATOM      9  C   UNL     1       2.319   2.882  21.459  0.00  0.00    +0.000 C 
ATOM     10  C   UNL     1       2.668   4.368  21.401  0.00  0.00    +0.000 C 
BRANCH   6  11
ATOM     11  C   UNL     1       3.281   4.452  18.831  0.00  0.00    +0.000 A 
ATOM     12  C   UNL     1       2.821   3.740  17.696  0.00  0.00    +0.000 A 
ATOM     13  C   UNL     1       3.680   3.401  16.648  0.00  0.00    +0.000 A 
ATOM     14  C   UNL     1       5.021   3.747  16.720  0.00  0.00    +0.000 A 
ATOM     15  F   UNL     1       5.847   3.413  15.721  0.00  0.00    +0.000 F 
ATOM     16  C   UNL     1       5.514   4.432  17.815  0.00  0.00    +0.000 A 
ATOM     17  C   UNL     1       4.647   4.786  18.847  0.00  0.00    +0.000 A 
ATOM     18  F   UNL     1       5.188   5.458  19.871  0.00  0.00    +0.000 F 
ENDBRANCH   6  11
ENDBRANCH   3   6
BRANCH   1  19
ATOM     19  C   UNL     1       1.800   9.356  18.062  0.00  0.00    +0.000 C 
BRANCH  19  26
ATOM     20  O   UNL     1       1.439  14.454  18.660  0.00  0.00    +0.000 OA
ATOM     21  S   UNL     1       0.910  13.235  19.239  0.00  0.00    +0.000 S 
ATOM     22  O   UNL     1       0.922  13.030  20.676  0.00  0.00    +0.000 OA
ATOM     23  C   UNL     1      -0.756  13.028  18.654  0.00  0.00    +0.000 C 
ATOM     24  C   UNL     1      -1.276  11.636  18.969  0.00  0.00    +0.000 C 
ATOM     25  C   UNL     1      -0.446  10.544  18.293  0.00  0.00    +0.000 C 
ATOM     26  C   UNL     1       1.034  10.524  18.730  0.00  0.00    +0.000 C 
ATOM     27  C   UNL     1       1.741  11.863  18.477  0.00  0.00    +0.000 C 
ENDBRANCH  19  26
ENDBRANCH   1  19
TORSDOF 4
ENDMDL
MODEL 4
REMARK VINA RESULT:      -8.2      5.848      7.723
REMARK  Name = 
REMARK  4 active torsions:
REMARK  status: ('A' for Active; 'I' for Inactive)
REMARK    1  A    between atoms: C_7  and  C_8
REMARK    2  A    between atoms: C_8  and  C_9
REMARK    3  A    between atoms: C_11  and  C_12
REMARK    4  A    between atoms: C_12  and  C_13
REMARK                            x       y       z     vdW  Elec       q    Type
REMARK                         _______ _______ _______ _____ _____    ______ ____
ROOT
ATOM      1  C   UNL     1       7.788   8.986  17.856  0.00  0.00    +0.000 A 
ATOM      2  N   UNL     1       6.995   8.298  17.068  0.00  0.00    +0.000 NA
ATOM      3  C   UNL     1       7.162   7.011  17.532  0.00  0.00    +0.000 A 
ATOM      4  N   UNL     1       8.034   6.898  18.544  0.00  0.00    +0.000 NA
ATOM      5  O   UNL     1       8.462   8.212  18.753  0.00  0.00    +0.000 OA
ENDROOT
BRANCH   3   6
ATOM      6  C   UNL     1       6.348   5.862  16.984  0.00  0.00    +0.000 C 
ATOM      7  C   UNL     1       7.170   4.546  16.966  0.00  0.00    +0.000 C 
ATOM      8  C   UNL     1       6.528   3.661  15.898  0.00  0.00    +0.000 C 
ATOM      9  C   UNL     1       5.738   4.599  14.993  0.00  0.00    +0.000 C 
ATOM     10  C   UNL     1       6.088   6.008  15.469  0.00  0.00    +0.000 C 
BRANCH   6  11
ATOM     11  C   UNL     1       5.130   5.764  17.921  0.00  0.00    +0.000 A 
ATOM     12  C   UNL     1       5.141   4.848  19.002  0.00  0.00    +0.000 A 
ATOM     13  C   UNL     1       4.054   4.730  19.872  0.00  0.00    +0.000 A 
ATOM     14  C   UNL     1       2.925   5.510  19.669  0.00  0.00    +0.000 A 
ATOM     15  F   UNL     1       1.880   5.391  20.496  0.00  0.00    +0.000 F 
ATOM     16  C   UNL     1       2.869   6.409  18.620  0.00  0.00    +0.000 A 
ATOM     17  C   UNL     1       3.966   6.536  17.769  0.00  0.00    +0.000 A 
ATOM     18  F   UNL     1       3.848   7.433  16.781  0.00  0.00    +0.000 F 
ENDBRANCH   6  11
ENDBRANCH   3   6
BRANCH   1  19
ATOM     19  C   UNL     1       7.901  10.462  17.992  0.00  0.00    +0.000 C 
BRANCH  19  26
ATOM     20  O   UNL     1      11.555  14.080  17.819  0.00  0.00    +0.000 OA
ATOM     21  S   UNL     1      11.372  12.718  18.280  0.00  0.00    +0.000 S 
ATOM     22  O   UNL     1      12.329  11.682  17.935  0.00  0.00    +0.000 OA
ATOM     23  C   UNL     1      11.198  12.756  20.048  0.00  0.00    +0.000 C 
ATOM     24  C   UNL     1      10.707  11.420  20.578  0.00  0.00    +0.000 C 
ATOM     25  C   UNL     1       9.333  11.048  20.020  0.00  0.00    +0.000 C 
ATOM     26  C   UNL     1       9.301  10.904  18.483  0.00  0.00    +0.000 C 
ATOM     27  C   UNL     1       9.762  12.178  17.762  0.00  0.00    +0.000 C 
ENDBRANCH  19  26
ENDBRANCH   1  19
TORSDOF 4
ENDMDL
MODEL 5
REMARK VINA RESULT:      -8.2      5.779      7.655
REMARK  Name = 
REMARK  4 active torsions:
REMARK  status: ('A' for Active; 'I' for Inactive)
REMARK    1  A    between atoms: C_7  and  C_8
REMARK    2  A    between atoms: C_8  and  C_9
REMARK    3  A    between atoms: C_11  and  C_12
REMARK    4  A    between atoms: C_12  and  C_13
REMARK                            x       y       z     vdW  Elec       q    Type
REMARK                         _______ _______ _______ _____ _____    ______ ____
ROOT
ATOM      1  C   UNL     1       7.698   8.946  17.801  0.00  0.00    +0.000 A 
ATOM      2  N   UNL     1       6.839   8.303  17.045  0.00  0.00    +0.000 NA
ATOM      3  C   UNL     1       7.032   6.992  17.427  0.00  0.00    +0.000 A 
ATOM      4  N   UNL     1       7.980   6.824  18.359  0.00  0.00    +0.000 NA
ATOM      5  O   UNL     1       8.434   8.124  18.600  0.00  0.00    +0.000 OA
ENDROOT
BRANCH   3   6
ATOM      6  C   UNL     1       6.167   5.877  16.888  0.00  0.00    +0.000 C 
ATOM      7  C   UNL     1       6.927   4.524  16.885  0.00  0.00    +0.000 C 
ATOM      8  C   UNL     1       6.248   3.659  15.825  0.00  0.00    +0.000 C 
ATOM      9  C   UNL     1       5.505   4.624  14.907  0.00  0.00    +0.000 C 
ATOM     10  C   UNL     1       5.918   6.020  15.370  0.00  0.00    +0.000 C 
BRANCH   6  11
ATOM     11  C   UNL     1       4.943   5.845  17.821  0.00  0.00    +0.000 A 
ATOM     12  C   UNL     1       3.800   6.625  17.518  0.00  0.00    +0.000 A 
ATOM     13  C   UNL     1       2.672   6.622  18.342  0.00  0.00    +0.000 A 
ATOM     14  C   UNL     1       2.669   5.855  19.498  0.00  0.00    +0.000 A 
ATOM     15  F   UNL     1       1.593   5.859  20.293  0.00  0.00    +0.000 F 
ATOM     16  C   UNL     1       3.768   5.088  19.837  0.00  0.00    +0.000 A 
ATOM     17  C   UNL     1       4.881   5.080  18.999  0.00  0.00    +0.000 A 
ATOM     18  F   UNL     1       5.905   4.306  19.382  0.00  0.00    +0.000 F 
ENDBRANCH   6  11
ENDBRANCH   3   6
BRANCH   1  19
ATOM     19  C   UNL     1       7.834  10.412  18.003  0.00  0.00    +0.000 C 
BRANCH  19  26
ATOM     20  O   UNL     1      11.729  13.758  17.676  0.00  0.00    +0.000 OA
ATOM     21  S   UNL     1      11.434  12.460  18.250  0.00  0.00    +0.000 S 
ATOM     22  O   UNL     1      12.333  11.338  18.048  0.00  0.00    +0.000 OA
ATOM     23  C   UNL     1      11.189  12.677  19.997  0.00  0.00    +0.000 C 
ATOM     24  C   UNL     1      10.586  11.431  20.623  0.00  0.00    +0.000 C 
ATOM     25  C   UNL     1       9.216  11.096  20.036  0.00  0.00    +0.000 C 
ATOM     26  C   UNL     1       9.239  10.809  18.519  0.00  0.00    +0.000 C 
ATOM     27  C   UNL     1       9.815  11.977  17.707  0.00  0.00    +0.000 C 
ENDBRANCH  19  26
ENDBRANCH   1  19
TORSDOF 4
ENDMDL
MODEL 6
REMARK VINA RESULT:      -8.1      2.031      2.390
REMARK  Name = 
REMARK  4 active torsions:
REMARK  status: ('A' for Active; 'I' for Inactive)
REMARK    1  A    between atoms: C_7  and  C_8
REMARK    2  A    between atoms: C_8  and  C_9
REMARK    3  A    between atoms: C_11  and  C_12
REMARK    4  A    between atoms: C_12  and  C_13
REMARK                            x       y       z     vdW  Elec       q    Type
REMARK                         _______ _______ _______ _____ _____    ______ ____
ROOT
ATOM      1  C   UNL     1       1.893   8.909  18.423  0.00  0.00    +0.000 A 
ATOM      2  N   UNL     1       1.702   7.725  18.955  0.00  0.00    +0.000 NA
ATOM      3  C   UNL     1       2.459   6.909  18.143  0.00  0.00    +0.000 A 
ATOM      4  N   UNL     1       3.075   7.550  17.139  0.00  0.00    +0.000 NA
ATOM      5  O   UNL     1       2.688   8.881  17.316  0.00  0.00    +0.000 OA
ENDROOT
BRANCH   3   6
ATOM      6  C   UNL     1       2.633   5.438  18.441  0.00  0.00    +0.000 C 
ATOM      7  C   UNL     1       1.547   4.586  17.733  0.00  0.00    +0.000 C 
ATOM      8  C   UNL     1       1.432   3.292  18.537  0.00  0.00    +0.000 C 
ATOM      9  C   UNL     1       2.014   3.599  19.912  0.00  0.00    +0.000 C 
ATOM     10  C   UNL     1       2.288   5.102  19.909  0.00  0.00    +0.000 C 
BRANCH   6  11
ATOM     11  C   UNL     1       4.047   5.100  17.935  0.00  0.00    +0.000 A 
ATOM     12  C   UNL     1       4.221   4.522  16.653  0.00  0.00    +0.000 A 
ATOM     13  C   UNL     1       5.488   4.200  16.161  0.00  0.00    +0.000 A 
ATOM     14  C   UNL     1       6.608   4.432  16.946  0.00  0.00    +0.000 A 
ATOM     15  F   UNL     1       7.822   4.115  16.480  0.00  0.00    +0.000 F 
ATOM     16  C   UNL     1       6.482   4.985  18.207  0.00  0.00    +0.000 A 
ATOM     17  C   UNL     1       5.216   5.322  18.683  0.00  0.00    +0.000 A 
ATOM     18  F   UNL     1       5.169   5.864  19.907  0.00  0.00    +0.000 F 
ENDBRANCH   6  11
ENDBRANCH   3   6
BRANCH   1  19
ATOM     19  C   UNL     1       1.503  10.238  18.961  0.00  0.00    +0.000 C 
BRANCH  19  26
ATOM     20  O   UNL     1       0.702   9.579  24.001  0.00  0.00    +0.000 OA
ATOM     21  S   UNL     1      -0.043   9.592  22.758  0.00  0.00    +0.000 S 
ATOM     22  O   UNL     1      -0.964   8.517  22.434  0.00  0.00    +0.000 OA
ATOM     23  C   UNL     1      -0.920  11.134  22.661  0.00  0.00    +0.000 C 
ATOM     24  C   UNL     1      -1.483  11.356  21.267  0.00  0.00    +0.000 C 
ATOM     25  C   UNL     1      -0.384  11.421  20.207  0.00  0.00    +0.000 C 
ATOM     26  C   UNL     1       0.455  10.130  20.097  0.00  0.00    +0.000 C 
ATOM     27  C   UNL     1       1.120   9.745  21.425  0.00  0.00    +0.000 C 
ENDBRANCH  19  26
ENDBRANCH   1  19
TORSDOF 4
ENDMDL
MODEL 7
REMARK VINA RESULT:      -8.1      4.208      8.234
REMARK  Name = 
REMARK  4 active torsions:
REMARK  status: ('A' for Active; 'I' for Inactive)
REMARK    1  A    between atoms: C_7  and  C_8
REMARK    2  A    between atoms: C_8  and  C_9
REMARK    3  A    between atoms: C_11  and  C_12
REMARK    4  A    between atoms: C_12  and  C_13
REMARK                            x       y       z     vdW  Elec       q    Type
REMARK                         _______ _______ _______ _____ _____    ______ ____
ROOT
ATOM      1  C   UNL     1       2.645   6.942  18.708  0.00  0.00    +0.000 A 
ATOM      2  N   UNL     1       2.121   7.243  19.872  0.00  0.00    +0.000 NA
ATOM      3  C   UNL     1       1.592   8.496  19.645  0.00  0.00    +0.000 A 
ATOM      4  N   UNL     1       1.796   8.962  18.404  0.00  0.00    +0.000 NA
ATOM      5  O   UNL     1       2.509   7.934  17.782  0.00  0.00    +0.000 OA
ENDROOT
BRANCH   3   6
ATOM      6  C   UNL     1       0.778   9.213  20.696  0.00  0.00    +0.000 C 
ATOM      7  C   UNL     1       1.585   9.390  22.010  0.00  0.00    +0.000 C 
ATOM      8  C   UNL     1       0.550   9.544  23.124  0.00  0.00    +0.000 C 
ATOM      9  C   UNL     1      -0.748   8.960  22.577  0.00  0.00    +0.000 C 
ATOM     10  C   UNL     1      -0.374   8.337  21.233  0.00  0.00    +0.000 C 
BRANCH   6  11
ATOM     11  C   UNL     1       0.420  10.567  20.057  0.00  0.00    +0.000 A 
ATOM     12  C   UNL     1       1.213  11.710  20.328  0.00  0.00    +0.000 A 
ATOM     13  C   UNL     1       0.918  12.955  19.767  0.00  0.00    +0.000 A 
ATOM     14  C   UNL     1      -0.187  13.091  18.940  0.00  0.00    +0.000 A 
ATOM     15  F   UNL     1      -0.476  14.285  18.411  0.00  0.00    +0.000 F 
ATOM     16  C   UNL     1      -0.994  12.003  18.659  0.00  0.00    +0.000 A 
ATOM     17  C   UNL     1      -0.680  10.760  19.205  0.00  0.00    +0.000 A 
ATOM     18  F   UNL     1      -1.497   9.749  18.881  0.00  0.00    +0.000 F 
ENDBRANCH   6  11
ENDBRANCH   3   6
BRANCH   1  19
ATOM     19  C   UNL     1       3.191   5.638  18.251  0.00  0.00    +0.000 C 
BRANCH  19  26
ATOM     20  O   UNL     1       8.123   5.207  19.655  0.00  0.00    +0.000 OA
ATOM     21  S   UNL     1       7.330   5.711  18.551  0.00  0.00    +0.000 S 
ATOM     22  O   UNL     1       7.559   7.042  18.019  0.00  0.00    +0.000 OA
ATOM     23  C   UNL     1       7.445   4.544  17.216  0.00  0.00    +0.000 C 
ATOM     24  C   UNL     1       6.415   4.841  16.140  0.00  0.00    +0.000 C 
ATOM     25  C   UNL     1       4.984   4.745  16.670  0.00  0.00    +0.000 C 
ATOM     26  C   UNL     1       4.671   5.741  17.807  0.00  0.00    +0.000 C 
ATOM     27  C   UNL     1       5.618   5.584  19.005  0.00  0.00    +0.000 C 
ENDBRANCH  19  26
ENDBRANCH   1  19
TORSDOF 4
ENDMDL
MODEL 8
REMARK VINA RESULT:      -8.0      3.863      8.500
REMARK  Name = 
REMARK  4 active torsions:
REMARK  status: ('A' for Active; 'I' for Inactive)
REMARK    1  A    between atoms: C_7  and  C_8
REMARK    2  A    between atoms: C_8  and  C_9
REMARK    3  A    between atoms: C_11  and  C_12
REMARK    4  A    between atoms: C_12  and  C_13
REMARK                            x       y       z     vdW  Elec       q    Type
REMARK                         _______ _______ _______ _____ _____    ______ ____
ROOT
ATOM      1  C   UNL     1       1.338   7.886  20.591  0.00  0.00    +0.000 A 
ATOM      2  N   UNL     1       1.431   8.884  19.744  0.00  0.00    +0.000 NA
ATOM      3  C   UNL     1       0.463   9.752  20.199  0.00  0.00    +0.000 A 
ATOM      4  N   UNL     1      -0.217   9.308  21.266  0.00  0.00    +0.000 NA
ATOM      5  O   UNL     1       0.355   8.059  21.520  0.00  0.00    +0.000 OA
ENDROOT
BRANCH   3   6
ATOM      6  C   UNL     1       0.274  11.119  19.584  0.00  0.00    +0.000 C 
ATOM      7  C   UNL     1       1.422  11.456  18.596  0.00  0.00    +0.000 C 
ATOM      8  C   UNL     1       1.475  12.981  18.515  0.00  0.00    +0.000 C 
ATOM      9  C   UNL     1       0.777  13.495  19.769  0.00  0.00    +0.000 C 
ATOM     10  C   UNL     1       0.495  12.251  20.610  0.00  0.00    +0.000 C 
BRANCH   6  11
ATOM     11  C   UNL     1      -1.090  11.042  18.873  0.00  0.00    +0.000 A 
ATOM     12  C   UNL     1      -2.172  11.835  19.330  0.00  0.00    +0.000 A 
ATOM     13  C   UNL     1      -3.424  11.791  18.711  0.00  0.00    +0.000 A 
ATOM     14  C   UNL     1      -3.627  10.941  17.635  0.00  0.00    +0.000 A 
ATOM     15  F   UNL     1      -4.829  10.890  17.048  0.00  0.00    +0.000 F 
ATOM     16  C   UNL     1      -2.601  10.142  17.164  0.00  0.00    +0.000 A 
ATOM     17  C   UNL     1      -1.350  10.207  17.774  0.00  0.00    +0.000 A 
ATOM     18  F   UNL     1      -0.400   9.415  17.260  0.00  0.00    +0.000 F 
ENDBRANCH   6  11
ENDBRANCH   3   6
BRANCH   1  19
ATOM     19  C   UNL     1       2.249   6.724  20.754  0.00  0.00    +0.000 C 
BRANCH  19  26
ATOM     20  O   UNL     1       3.457   3.362  17.051  0.00  0.00    +0.000 OA
ATOM     21  S   UNL     1       2.307   3.785  17.825  0.00  0.00    +0.000 S 
ATOM     22  O   UNL     1       1.052   4.111  17.171  0.00  0.00    +0.000 OA
ATOM     23  C   UNL     1       1.993   2.549  19.062  0.00  0.00    +0.000 C 
ATOM     24  C   UNL     1       1.001   3.051  20.097  0.00  0.00    +0.000 C 
ATOM     25  C   UNL     1       1.519   4.281  20.842  0.00  0.00    +0.000 C 
ATOM     26  C   UNL     1       1.792   5.496  19.929  0.00  0.00    +0.000 C 
ATOM     27  C   UNL     1       2.795   5.179  18.811  0.00  0.00    +0.000 C 
ENDBRANCH  19  26
ENDBRANCH   1  19
TORSDOF 4
ENDMDL
MODEL 9
REMARK VINA RESULT:      -8.0      2.131      2.666
REMARK  Name = 
REMARK  4 active torsions:
REMARK  status: ('A' for Active; 'I' for Inactive)
REMARK    1  A    between atoms: C_7  and  C_8
REMARK    2  A    between atoms: C_8  and  C_9
REMARK    3  A    between atoms: C_11  and  C_12
REMARK    4  A    between atoms: C_12  and  C_13
REMARK                            x       y       z     vdW  Elec       q    Type
REMARK                         _______ _______ _______ _____ _____    ______ ____
ROOT
ATOM      1  C   UNL     1       1.816   8.944  18.233  0.00  0.00    +0.000 A 
ATOM      2  N   UNL     1       1.519   7.757  18.707  0.00  0.00    +0.000 NA
ATOM      3  C   UNL     1       2.556   6.981  18.234  0.00  0.00    +0.000 A 
ATOM      4  N   UNL     1       3.444   7.647  17.483  0.00  0.00    +0.000 NA
ATOM      5  O   UNL     1       2.946   8.953  17.470  0.00  0.00    +0.000 OA
ENDROOT
BRANCH   3   6
ATOM      6  C   UNL     1       2.697   5.528  18.624  0.00  0.00    +0.000 C 
ATOM      7  C   UNL     1       1.718   4.630  17.821  0.00  0.00    +0.000 C 
ATOM      8  C   UNL     1       1.506   3.375  18.666  0.00  0.00    +0.000 C 
ATOM      9  C   UNL     1       1.900   3.753  20.090  0.00  0.00    +0.000 C 
ATOM     10  C   UNL     1       2.163   5.258  20.048  0.00  0.00    +0.000 C 
BRANCH   6  11
ATOM     11  C   UNL     1       4.167   5.184  18.325  0.00  0.00    +0.000 A 
ATOM     12  C   UNL     1       5.175   5.499  19.270  0.00  0.00    +0.000 A 
ATOM     13  C   UNL     1       6.519   5.202  19.032  0.00  0.00    +0.000 A 
ATOM     14  C   UNL     1       6.889   4.603  17.837  0.00  0.00    +0.000 A 
ATOM     15  F   UNL     1       8.178   4.328  17.604  0.00  0.00    +0.000 F 
ATOM     16  C   UNL     1       5.938   4.289  16.883  0.00  0.00    +0.000 A 
ATOM     17  C   UNL     1       4.597   4.568  17.136  0.00  0.00    +0.000 A 
ATOM     18  F   UNL     1       3.729   4.228  16.175  0.00  0.00    +0.000 F 
ENDBRANCH   6  11
ENDBRANCH   3   6
BRANCH   1  19
ATOM     19  C   UNL     1       1.190  10.251  18.558  0.00  0.00    +0.000 C 
BRANCH  19  26
ATOM     20  O   UNL     1       0.952   9.625  23.659  0.00  0.00    +0.000 OA
ATOM     21  S   UNL     1       0.071   9.655  22.509  0.00  0.00    +0.000 S 
ATOM     22  O   UNL     1      -0.909   8.606  22.298  0.00  0.00    +0.000 OA
ATOM     23  C   UNL     1      -0.771  11.221  22.505  0.00  0.00    +0.000 C 
ATOM     24  C   UNL     1      -1.482  11.455  21.183  0.00  0.00    +0.000 C 
ATOM     25  C   UNL     1      -0.511  11.488  20.004  0.00  0.00    +0.000 C 
ATOM     26  C   UNL     1       0.276  10.174  19.805  0.00  0.00    +0.000 C 
ATOM     27  C   UNL     1       1.078   9.774  21.052  0.00  0.00    +0.000 C 
ENDBRANCH  19  26
ENDBRANCH   1  19
TORSDOF 4
ENDMDL
