MODEL 1
REMARK VINA RESULT:      -7.9      0.000      0.000
REMARK  Name = 
REMARK  8 active torsions:
REMARK  status: ('A' for Active; 'I' for Inactive)
REMARK    1  A    between atoms: C_1  and  N_2
REMARK    2  A    between atoms: C_6  and  C_7
REMARK    3  A    between atoms: C_7  and  C_8
REMARK    4  A    between atoms: C_8  and  C_9
REMARK    5  A    between atoms: C_13  and  N_14
REMARK    6  A    between atoms: C_19  and  O_20
REMARK    7  A    between atoms: C_22  and  C_23
REMARK    8  A    between atoms: C_23  and  C_24
REMARK                            x       y       z     vdW  Elec       q    Type
REMARK                         _______ _______ _______ _____ _____    ______ ____
ROOT
ATOM      1  N   UNL     1       5.988   5.309  15.559  0.00  0.00    +0.000 N 
ATOM      2  C   UNL     1       4.860   6.213  15.919  0.00  0.00    +0.000 C 
ATOM      3  C   UNL     1       4.139   5.422  16.968  0.00  0.00    +0.000 A 
ATOM      4  C   UNL     1       4.421   4.067  16.747  0.00  0.00    +0.000 A 
ATOM      5  C   UNL     1       4.076   3.067  17.633  0.00  0.00    +0.000 A 
ATOM      6  C   UNL     1       3.450   3.466  18.803  0.00  0.00    +0.000 A 
ATOM      7  C   UNL     1       3.175   4.816  19.063  0.00  0.00    +0.000 A 
ATOM      8  C   UNL     1       3.491   5.824  18.133  0.00  0.00    +0.000 A 
ATOM      9  C   UNL     1       5.479   4.002  15.719  0.00  0.00    +0.000 C 
ATOM     10  O   UNL     1       5.936   2.946  15.287  0.00  0.00    +0.000 OA
ENDROOT
BRANCH   1  15
ATOM     11  C   UNL     1       7.710   7.539  17.766  0.00  0.00    +0.000 A 
ATOM     12  C   UNL     1       7.640   6.690  18.882  0.00  0.00    +0.000 A 
ATOM     13  C   UNL     1       7.602   5.311  18.707  0.00  0.00    +0.000 A 
ATOM     14  C   UNL     1       7.493   4.775  17.428  0.00  0.00    +0.000 A 
ATOM     15  C   UNL     1       7.159   5.640  16.376  0.00  0.00    +0.000 A 
ATOM     16  C   UNL     1       7.471   6.994  16.495  0.00  0.00    +0.000 A 
BRANCH  11  17
ATOM     17  C   UNL     1       7.949   9.025  17.903  0.00  0.00    +0.000 C 
BRANCH  17  18
ATOM     18  C   UNL     1       8.982   9.353  18.986  0.00  0.00    +0.000 C 
BRANCH  18  24
ATOM     19  C   UNL     1       9.048  11.566  21.328  0.00  0.00    +0.000 C 
ATOM     20  N   UNL     1       9.468  11.693  19.957  0.00  0.00    +0.000 N 
ATOM     21  C   UNL     1       9.946  12.849  19.412  0.00  0.00    +0.000 A 
ATOM     22  N   UNL     1      10.258  12.650  18.157  0.00  0.00    +0.000 NA
ATOM     23  N   UNL     1       9.981  11.338  17.862  0.00  0.00    +0.000 NA
ATOM     24  C   UNL     1       9.502  10.753  18.949  0.00  0.00    +0.000 A 
ENDBRANCH  18  24
ENDBRANCH  17  18
ENDBRANCH  11  17
ENDBRANCH   1  15
BRANCH   8  25
ATOM     25  C   UNL     1       3.162   7.263  18.450  0.00  0.00    +0.000 C 
ATOM     26  C   UNL     1       1.931   7.699  17.675  0.00  0.00    +0.000 C 
ATOM     27  F   UNL     1       2.917   7.459  19.779  0.00  0.00    +0.000 F 
ATOM     28  F   UNL     1       4.170   8.129  18.144  0.00  0.00    +0.000 F 
ENDBRANCH   8  25
BRANCH   6  29
ATOM     29  O   UNL     1       3.128   2.566  19.774  0.00  0.00    +0.000 OA
ATOM     30  H   UNL     1       3.191   3.003  20.641  0.00  0.00    +0.000 HD
ENDBRANCH   6  29
TORSDOF 6
ENDMDL
MODEL 2
REMARK VINA RESULT:      -7.8      4.655      7.260
REMARK  Name = 
REMARK  8 active torsions:
REMARK  status: ('A' for Active; 'I' for Inactive)
REMARK    1  A    between atoms: C_1  and  N_2
REMARK    2  A    between atoms: C_6  and  C_7
REMARK    3  A    between atoms: C_7  and  C_8
REMARK    4  A    between atoms: C_8  and  C_9
REMARK    5  A    between atoms: C_13  and  N_14
REMARK    6  A    between atoms: C_19  and  O_20
REMARK    7  A    between atoms: C_22  and  C_23
REMARK    8  A    between atoms: C_23  and  C_24
REMARK                            x       y       z     vdW  Elec       q    Type
REMARK                         _______ _______ _______ _____ _____    ______ ____
ROOT
ATOM      1  N   UNL     1       2.665   6.799  19.506  0.00  0.00    +0.000 N 
ATOM      2  C   UNL     1       2.321   7.628  20.695  0.00  0.00    +0.000 C 
ATOM      3  C   UNL     1       1.431   8.680  20.106  0.00  0.00    +0.000 A 
ATOM      4  C   UNL     1       1.762   8.806  18.751  0.00  0.00    +0.000 A 
ATOM      5  C   UNL     1       1.020   9.547  17.855  0.00  0.00    +0.000 A 
ATOM      6  C   UNL     1      -0.121  10.157  18.353  0.00  0.00    +0.000 A 
ATOM      7  C   UNL     1      -0.491  10.031  19.700  0.00  0.00    +0.000 A 
ATOM      8  C   UNL     1       0.297   9.308  20.615  0.00  0.00    +0.000 A 
ATOM      9  C   UNL     1       2.688   7.703  18.421  0.00  0.00    +0.000 C 
ATOM     10  O   UNL     1       3.181   7.546  17.306  0.00  0.00    +0.000 OA
ENDROOT
BRANCH   1  15
ATOM     11  C   UNL     1       1.943   3.389  18.694  0.00  0.00    +0.000 A 
ATOM     12  C   UNL     1       1.654   3.004  20.014  0.00  0.00    +0.000 A 
ATOM     13  C   UNL     1       1.143   3.933  20.914  0.00  0.00    +0.000 A 
ATOM     14  C   UNL     1       1.047   5.272  20.553  0.00  0.00    +0.000 A 
ATOM     15  C   UNL     1       1.712   5.692  19.391  0.00  0.00    +0.000 A 
ATOM     16  C   UNL     1       1.963   4.758  18.386  0.00  0.00    +0.000 A 
BRANCH  11  17
ATOM     17  C   UNL     1       2.314   2.384  17.629  0.00  0.00    +0.000 C 
BRANCH  17  18
ATOM     18  C   UNL     1       3.810   2.053  17.633  0.00  0.00    +0.000 C 
BRANCH  18  24
ATOM     19  C   UNL     1       5.058   4.436  15.858  0.00  0.00    +0.000 C 
ATOM     20  N   UNL     1       5.256   4.155  17.256  0.00  0.00    +0.000 N 
ATOM     21  C   UNL     1       6.082   4.879  18.067  0.00  0.00    +0.000 A 
ATOM     22  N   UNL     1       6.042   4.395  19.281  0.00  0.00    +0.000 NA
ATOM     23  N   UNL     1       5.177   3.330  19.278  0.00  0.00    +0.000 NA
ATOM     24  C   UNL     1       4.697   3.180  18.053  0.00  0.00    +0.000 A 
ENDBRANCH  18  24
ENDBRANCH  17  18
ENDBRANCH  11  17
ENDBRANCH   1  15
BRANCH   8  25
ATOM     25  C   UNL     1      -0.133   9.212  22.059  0.00  0.00    +0.000 C 
ATOM     26  C   UNL     1      -0.813  10.501  22.486  0.00  0.00    +0.000 C 
ATOM     27  F   UNL     1      -1.003   8.183  22.274  0.00  0.00    +0.000 F 
ATOM     28  F   UNL     1       0.902   8.988  22.918  0.00  0.00    +0.000 F 
ENDBRANCH   8  25
BRANCH   6  29
ATOM     29  O   UNL     1      -0.961  10.856  17.539  0.00  0.00    +0.000 OA
ATOM     30  H   UNL     1      -0.477  11.612  17.163  0.00  0.00    +0.000 HD
ENDBRANCH   6  29
TORSDOF 6
ENDMDL
MODEL 3
REMARK VINA RESULT:      -7.8      4.194      6.607
REMARK  Name = 
REMARK  8 active torsions:
REMARK  status: ('A' for Active; 'I' for Inactive)
REMARK    1  A    between atoms: C_1  and  N_2
REMARK    2  A    between atoms: C_6  and  C_7
REMARK    3  A    between atoms: C_7  and  C_8
REMARK    4  A    between atoms: C_8  and  C_9
REMARK    5  A    between atoms: C_13  and  N_14
REMARK    6  A    between atoms: C_19  and  O_20
REMARK    7  A    between atoms: C_22  and  C_23
REMARK    8  A    between atoms: C_23  and  C_24
REMARK                            x       y       z     vdW  Elec       q    Type
REMARK                         _______ _______ _______ _____ _____    ______ ____
ROOT
ATOM      1  N   UNL     1       3.974   4.354  19.190  0.00  0.00    +0.000 N 
ATOM      2  C   UNL     1       5.278   5.071  19.250  0.00  0.00    +0.000 C 
ATOM      3  C   UNL     1       5.810   4.886  17.861  0.00  0.00    +0.000 A 
ATOM      4  C   UNL     1       5.231   3.723  17.336  0.00  0.00    +0.000 A 
ATOM      5  C   UNL     1       5.348   3.349  16.014  0.00  0.00    +0.000 A 
ATOM      6  C   UNL     1       6.055   4.209  15.188  0.00  0.00    +0.000 A 
ATOM      7  C   UNL     1       6.627   5.391  15.679  0.00  0.00    +0.000 A 
ATOM      8  C   UNL     1       6.539   5.742  17.039  0.00  0.00    +0.000 A 
ATOM      9  C   UNL     1       4.178   3.293  18.279  0.00  0.00    +0.000 C 
ATOM     10  O   UNL     1       3.493   2.286  18.113  0.00  0.00    +0.000 OA
ENDROOT
BRANCH   1  15
ATOM     11  C   UNL     1       1.863   7.118  20.034  0.00  0.00    +0.000 A 
ATOM     12  C   UNL     1       2.443   8.005  19.112  0.00  0.00    +0.000 A 
ATOM     13  C   UNL     1       3.009   7.519  17.939  0.00  0.00    +0.000 A 
ATOM     14  C   UNL     1       3.125   6.148  17.738  0.00  0.00    +0.000 A 
ATOM     15  C   UNL     1       2.912   5.300  18.835  0.00  0.00    +0.000 A 
ATOM     16  C   UNL     1       2.101   5.744  19.880  0.00  0.00    +0.000 A 
BRANCH  11  17
ATOM     17  C   UNL     1       1.068   7.604  21.223  0.00  0.00    +0.000 C 
BRANCH  17  18
ATOM     18  C   UNL     1       1.503   8.998  21.686  0.00  0.00    +0.000 C 
BRANCH  18  24
ATOM     19  C   UNL     1      -0.210  10.996  19.825  0.00  0.00    +0.000 C 
ATOM     20  N   UNL     1      -0.298  10.792  21.247  0.00  0.00    +0.000 N 
ATOM     21  C   UNL     1      -1.144  11.486  22.063  0.00  0.00    +0.000 A 
ATOM     22  N   UNL     1      -1.007  11.070  23.296  0.00  0.00    +0.000 NA
ATOM     23  N   UNL     1      -0.053  10.084  23.300  0.00  0.00    +0.000 NA
ATOM     24  C   UNL     1       0.380   9.911  22.061  0.00  0.00    +0.000 A 
ENDBRANCH  18  24
ENDBRANCH  17  18
ENDBRANCH  11  17
ENDBRANCH   1  15
BRANCH   8  25
ATOM     25  C   UNL     1       7.184   7.017  17.526  0.00  0.00    +0.000 C 
ATOM     26  C   UNL     1       8.024   6.738  18.760  0.00  0.00    +0.000 C 
ATOM     27  F   UNL     1       7.992   7.582  16.582  0.00  0.00    +0.000 F 
ATOM     28  F   UNL     1       6.285   7.989  17.850  0.00  0.00    +0.000 F 
ENDBRANCH   8  25
BRANCH   6  29
ATOM     29  O   UNL     1       6.173   3.967  13.852  0.00  0.00    +0.000 OA
ATOM     30  H   UNL     1       6.493   3.058  13.724  0.00  0.00    +0.000 HD
ENDBRANCH   6  29
TORSDOF 6
ENDMDL
MODEL 4
REMARK VINA RESULT:      -7.7      0.765      1.326
REMARK  Name = 
REMARK  8 active torsions:
REMARK  status: ('A' for Active; 'I' for Inactive)
REMARK    1  A    between atoms: C_1  and  N_2
REMARK    2  A    between atoms: C_6  and  C_7
REMARK    3  A    between atoms: C_7  and  C_8
REMARK    4  A    between atoms: C_8  and  C_9
REMARK    5  A    between atoms: C_13  and  N_14
REMARK    6  A    between atoms: C_19  and  O_20
REMARK    7  A    between atoms: C_22  and  C_23
REMARK    8  A    between atoms: C_23  and  C_24
REMARK                            x       y       z     vdW  Elec       q    Type
REMARK                         _______ _______ _______ _____ _____    ______ ____
ROOT
ATOM      1  N   UNL     1       6.114   5.353  15.508  0.00  0.00    +0.000 N 
ATOM      2  C   UNL     1       4.955   6.246  15.791  0.00  0.00    +0.000 C 
ATOM      3  C   UNL     1       4.174   5.451  16.792  0.00  0.00    +0.000 A 
ATOM      4  C   UNL     1       4.483   4.098  16.595  0.00  0.00    +0.000 A 
ATOM      5  C   UNL     1       4.091   3.097  17.459  0.00  0.00    +0.000 A 
ATOM      6  C   UNL     1       3.384   3.493  18.584  0.00  0.00    +0.000 A 
ATOM      7  C   UNL     1       3.080   4.842  18.821  0.00  0.00    +0.000 A 
ATOM      8  C   UNL     1       3.448   5.850  17.911  0.00  0.00    +0.000 A 
ATOM      9  C   UNL     1       5.607   4.040  15.638  0.00  0.00    +0.000 C 
ATOM     10  O   UNL     1       6.102   2.988  15.241  0.00  0.00    +0.000 OA
ENDROOT
BRANCH   1  15
ATOM     11  C   UNL     1       7.661   7.601  17.824  0.00  0.00    +0.000 A 
ATOM     12  C   UNL     1       7.530   6.749  18.933  0.00  0.00    +0.000 A 
ATOM     13  C   UNL     1       7.520   5.369  18.754  0.00  0.00    +0.000 A 
ATOM     14  C   UNL     1       7.501   4.834  17.471  0.00  0.00    +0.000 A 
ATOM     15  C   UNL     1       7.225   5.697  16.400  0.00  0.00    +0.000 A 
ATOM     16  C   UNL     1       7.512   7.054  16.540  0.00  0.00    +0.000 A 
BRANCH  11  17
ATOM     17  C   UNL     1       7.871   9.089  17.977  0.00  0.00    +0.000 C 
BRANCH  17  18
ATOM     18  C   UNL     1       9.184   9.422  18.694  0.00  0.00    +0.000 C 
BRANCH  18  24
ATOM     19  C   UNL     1       9.252  12.473  17.655  0.00  0.00    +0.000 C 
ATOM     20  N   UNL     1       9.242  11.982  19.009  0.00  0.00    +0.000 N 
ATOM     21  C   UNL     1       9.303  12.787  20.109  0.00  0.00    +0.000 A 
ATOM     22  N   UNL     1       9.260  12.055  21.193  0.00  0.00    +0.000 NA
ATOM     23  N   UNL     1       9.171  10.741  20.807  0.00  0.00    +0.000 NA
ATOM     24  C   UNL     1       9.159  10.691  19.484  0.00  0.00    +0.000 A 
ENDBRANCH  18  24
ENDBRANCH  17  18
ENDBRANCH  11  17
ENDBRANCH   1  15
BRANCH   8  25
ATOM     25  C   UNL     1       3.084   7.287  18.201  0.00  0.00    +0.000 C 
ATOM     26  C   UNL     1       2.459   7.397  19.581  0.00  0.00    +0.000 C 
ATOM     27  F   UNL     1       4.169   8.115  18.159  0.00  0.00    +0.000 F 
ATOM     28  F   UNL     1       2.201   7.813  17.305  0.00  0.00    +0.000 F 
ENDBRANCH   8  25
BRANCH   6  29
ATOM     29  O   UNL     1       3.008   2.592  19.535  0.00  0.00    +0.000 OA
ATOM     30  H   UNL     1       2.998   3.036  20.401  0.00  0.00    +0.000 HD
ENDBRANCH   6  29
TORSDOF 6
ENDMDL
MODEL 5
REMARK VINA RESULT:      -7.5      3.930      6.250
REMARK  Name = 
REMARK  8 active torsions:
REMARK  status: ('A' for Active; 'I' for Inactive)
REMARK    1  A    between atoms: C_1  and  N_2
REMARK    2  A    between atoms: C_6  and  C_7
REMARK    3  A    between atoms: C_7  and  C_8
REMARK    4  A    between atoms: C_8  and  C_9
REMARK    5  A    between atoms: C_13  and  N_14
REMARK    6  A    between atoms: C_19  and  O_20
REMARK    7  A    between atoms: C_22  and  C_23
REMARK    8  A    between atoms: C_23  and  C_24
REMARK                            x       y       z     vdW  Elec       q    Type
REMARK                         _______ _______ _______ _____ _____    ______ ____
ROOT
ATOM      1  N   UNL     1       3.716   4.215  19.173  0.00  0.00    +0.000 N 
ATOM      2  C   UNL     1       5.055   4.865  19.231  0.00  0.00    +0.000 C 
ATOM      3  C   UNL     1       5.534   4.739  17.817  0.00  0.00    +0.000 A 
ATOM      4  C   UNL     1       4.882   3.639  17.245  0.00  0.00    +0.000 A 
ATOM      5  C   UNL     1       4.940   3.340  15.899  0.00  0.00    +0.000 A 
ATOM      6  C   UNL     1       5.663   4.213  15.102  0.00  0.00    +0.000 A 
ATOM      7  C   UNL     1       6.307   5.336  15.642  0.00  0.00    +0.000 A 
ATOM      8  C   UNL     1       6.278   5.608  17.023  0.00  0.00    +0.000 A 
ATOM      9  C   UNL     1       3.839   3.203  18.196  0.00  0.00    +0.000 C 
ATOM     10  O   UNL     1       3.101   2.241  17.994  0.00  0.00    +0.000 OA
ENDROOT
BRANCH   1  15
ATOM     11  C   UNL     1       2.065   7.267  20.052  0.00  0.00    +0.000 A 
ATOM     12  C   UNL     1       2.524   7.984  18.935  0.00  0.00    +0.000 A 
ATOM     13  C   UNL     1       2.799   7.319  17.745  0.00  0.00    +0.000 A 
ATOM     14  C   UNL     1       2.754   5.930  17.697  0.00  0.00    +0.000 A 
ATOM     15  C   UNL     1       2.691   5.230  18.911  0.00  0.00    +0.000 A 
ATOM     16  C   UNL     1       2.147   5.866  20.026  0.00  0.00    +0.000 A 
BRANCH  11  17
ATOM     17  C   UNL     1       1.569   7.959  21.299  0.00  0.00    +0.000 C 
BRANCH  17  18
ATOM     18  C   UNL     1       0.237   8.682  21.076  0.00  0.00    +0.000 C 
BRANCH  18  24
ATOM     19  C   UNL     1      -0.213  10.514  18.463  0.00  0.00    +0.000 C 
ATOM     20  N   UNL     1       0.199  10.914  19.783  0.00  0.00    +0.000 N 
ATOM     21  C   UNL     1       0.515  12.197  20.125  0.00  0.00    +0.000 A 
ATOM     22  N   UNL     1       0.836  12.249  21.392  0.00  0.00    +0.000 NA
ATOM     23  N   UNL     1       0.734  10.979  21.901  0.00  0.00    +0.000 NA
ATOM     24  C   UNL     1       0.348  10.165  20.930  0.00  0.00    +0.000 A 
ENDBRANCH  18  24
ENDBRANCH  17  18
ENDBRANCH  11  17
ENDBRANCH   1  15
BRANCH   8  25
ATOM     25  C   UNL     1       7.000   6.820  17.561  0.00  0.00    +0.000 C 
ATOM     26  C   UNL     1       7.808   6.441  18.790  0.00  0.00    +0.000 C 
ATOM     27  F   UNL     1       7.851   7.366  16.645  0.00  0.00    +0.000 F 
ATOM     28  F   UNL     1       6.162   7.835  17.916  0.00  0.00    +0.000 F 
ENDBRANCH   8  25
BRANCH   6  29
ATOM     29  O   UNL     1       5.728   4.047  13.751  0.00  0.00    +0.000 OA
ATOM     30  H   UNL     1       4.823   4.002  13.396  0.00  0.00    +0.000 HD
ENDBRANCH   6  29
TORSDOF 6
ENDMDL
MODEL 6
REMARK VINA RESULT:      -7.5      4.703      9.255
REMARK  Name = 
REMARK  8 active torsions:
REMARK  status: ('A' for Active; 'I' for Inactive)
REMARK    1  A    between atoms: C_1  and  N_2
REMARK    2  A    between atoms: C_6  and  C_7
REMARK    3  A    between atoms: C_7  and  C_8
REMARK    4  A    between atoms: C_8  and  C_9
REMARK    5  A    between atoms: C_13  and  N_14
REMARK    6  A    between atoms: C_19  and  O_20
REMARK    7  A    between atoms: C_22  and  C_23
REMARK    8  A    between atoms: C_23  and  C_24
REMARK                            x       y       z     vdW  Elec       q    Type
REMARK                         _______ _______ _______ _____ _____    ______ ____
ROOT
ATOM      1  N   UNL     1      11.650  12.604  19.188  0.00  0.00    +0.000 N 
ATOM      2  C   UNL     1      11.151  12.275  20.553  0.00  0.00    +0.000 C 
ATOM      3  C   UNL     1      10.268  13.445  20.862  0.00  0.00    +0.000 A 
ATOM      4  C   UNL     1      10.720  14.531  20.100  0.00  0.00    +0.000 A 
ATOM      5  C   UNL     1      10.028  15.720  19.991  0.00  0.00    +0.000 A 
ATOM      6  C   UNL     1       8.815  15.793  20.657  0.00  0.00    +0.000 A 
ATOM      7  C   UNL     1       8.325  14.714  21.408  0.00  0.00    +0.000 A 
ATOM      8  C   UNL     1       9.059  13.522  21.548  0.00  0.00    +0.000 A 
ATOM      9  C   UNL     1      11.729  14.014  19.154  0.00  0.00    +0.000 C 
ATOM     10  O   UNL     1      12.333  14.726  18.356  0.00  0.00    +0.000 OA
ENDROOT
BRANCH   1  15
ATOM     11  C   UNL     1       9.007  10.346  18.333  0.00  0.00    +0.000 A 
ATOM     12  C   UNL     1       8.096  11.351  17.970  0.00  0.00    +0.000 A 
ATOM     13  C   UNL     1       8.559  12.563  17.468  0.00  0.00    +0.000 A 
ATOM     14  C   UNL     1       9.922  12.835  17.454  0.00  0.00    +0.000 A 
ATOM     15  C   UNL     1      10.771  11.992  18.187  0.00  0.00    +0.000 A 
ATOM     16  C   UNL     1      10.367  10.680  18.433  0.00  0.00    +0.000 A 
BRANCH  11  17
ATOM     17  C   UNL     1       8.558   8.950  18.697  0.00  0.00    +0.000 C 
BRANCH  17  18
ATOM     18  C   UNL     1       7.849   8.243  17.537  0.00  0.00    +0.000 C 
BRANCH  18  24
ATOM     19  C   UNL     1       5.241   6.711  16.425  0.00  0.00    +0.000 C 
ATOM     20  N   UNL     1       6.203   6.262  17.398  0.00  0.00    +0.000 N 
ATOM     21  C   UNL     1       6.119   5.069  18.055  0.00  0.00    +0.000 A 
ATOM     22  N   UNL     1       7.141   4.937  18.861  0.00  0.00    +0.000 NA
ATOM     23  N   UNL     1       7.917   6.063  18.739  0.00  0.00    +0.000 NA
ATOM     24  C   UNL     1       7.353   6.869  17.853  0.00  0.00    +0.000 A 
ENDBRANCH  18  24
ENDBRANCH  17  18
ENDBRANCH  11  17
ENDBRANCH   1  15
BRANCH   8  25
ATOM     25  C   UNL     1       8.498  12.393  22.380  0.00  0.00    +0.000 C 
ATOM     26  C   UNL     1       7.067  12.704  22.783  0.00  0.00    +0.000 C 
ATOM     27  F   UNL     1       8.501  11.204  21.710  0.00  0.00    +0.000 F 
ATOM     28  F   UNL     1       9.206  12.159  23.522  0.00  0.00    +0.000 F 
ENDBRANCH   8  25
BRANCH   6  29
ATOM     29  O   UNL     1       8.021  16.896  20.560  0.00  0.00    +0.000 OA
ATOM     30  H   UNL     1       7.104  16.611  20.404  0.00  0.00    +0.000 HD
ENDBRANCH   6  29
TORSDOF 6
ENDMDL
MODEL 7
REMARK VINA RESULT:      -7.5      4.427      7.054
REMARK  Name = 
REMARK  8 active torsions:
REMARK  status: ('A' for Active; 'I' for Inactive)
REMARK    1  A    between atoms: C_1  and  N_2
REMARK    2  A    between atoms: C_6  and  C_7
REMARK    3  A    between atoms: C_7  and  C_8
REMARK    4  A    between atoms: C_8  and  C_9
REMARK    5  A    between atoms: C_13  and  N_14
REMARK    6  A    between atoms: C_19  and  O_20
REMARK    7  A    between atoms: C_22  and  C_23
REMARK    8  A    between atoms: C_23  and  C_24
REMARK                            x       y       z     vdW  Elec       q    Type
REMARK                         _______ _______ _______ _____ _____    ______ ____
ROOT
ATOM      1  N   UNL     1       2.535   7.641  19.373  0.00  0.00    +0.000 N 
ATOM      2  C   UNL     1       2.201   8.383  20.621  0.00  0.00    +0.000 C 
ATOM      3  C   UNL     1       1.056   9.245  20.185  0.00  0.00    +0.000 A 
ATOM      4  C   UNL     1       1.171   9.438  18.802  0.00  0.00    +0.000 A 
ATOM      5  C   UNL     1       0.187  10.025  18.034  0.00  0.00    +0.000 A 
ATOM      6  C   UNL     1      -0.972  10.400  18.696  0.00  0.00    +0.000 A 
ATOM      7  C   UNL     1      -1.127  10.198  20.075  0.00  0.00    +0.000 A 
ATOM      8  C   UNL     1      -0.099   9.638  20.856  0.00  0.00    +0.000 A 
ATOM      9  C   UNL     1       2.238   8.537  18.321  0.00  0.00    +0.000 C 
ATOM     10  O   UNL     1       2.597   8.483  17.147  0.00  0.00    +0.000 OA
ENDROOT
BRANCH   1  15
ATOM     11  C   UNL     1       2.341   4.182  18.475  0.00  0.00    +0.000 A 
ATOM     12  C   UNL     1       2.372   3.707  19.797  0.00  0.00    +0.000 A 
ATOM     13  C   UNL     1       1.864   4.488  20.830  0.00  0.00    +0.000 A 
ATOM     14  C   UNL     1       1.452   5.792  20.578  0.00  0.00    +0.000 A 
ATOM     15  C   UNL     1       1.805   6.371  19.350  0.00  0.00    +0.000 A 
ATOM     16  C   UNL     1       2.043   5.536  18.258  0.00  0.00    +0.000 A 
BRANCH  11  17
ATOM     17  C   UNL     1       2.697   3.303  17.300  0.00  0.00    +0.000 C 
BRANCH  17  18
ATOM     18  C   UNL     1       4.205   3.051  17.195  0.00  0.00    +0.000 C 
BRANCH  18  24
ATOM     19  C   UNL     1       5.775   5.204  19.010  0.00  0.00    +0.000 C 
ATOM     20  N   UNL     1       5.626   5.171  17.578  0.00  0.00    +0.000 N 
ATOM     21  C   UNL     1       6.125   6.125  16.740  0.00  0.00    +0.000 A 
ATOM     22  N   UNL     1       5.843   5.814  15.500  0.00  0.00    +0.000 NA
ATOM     23  N   UNL     1       5.143   4.633  15.515  0.00  0.00    +0.000 NA
ATOM     24  C   UNL     1       5.008   4.239  16.772  0.00  0.00    +0.000 A 
ENDBRANCH  18  24
ENDBRANCH  17  18
ENDBRANCH  11  17
ENDBRANCH   1  15
BRANCH   8  25
ATOM     25  C   UNL     1      -0.305   9.455  22.341  0.00  0.00    +0.000 C 
ATOM     26  C   UNL     1      -1.052  10.647  22.914  0.00  0.00    +0.000 C 
ATOM     27  F   UNL     1      -1.019   8.328  22.631  0.00  0.00    +0.000 F 
ATOM     28  F   UNL     1       0.860   9.325  23.037  0.00  0.00    +0.000 F 
ENDBRANCH   8  25
BRANCH   6  29
ATOM     29  O   UNL     1      -2.032  10.926  18.020  0.00  0.00    +0.000 OA
ATOM     30  H   UNL     1      -2.543  10.200  17.622  0.00  0.00    +0.000 HD
ENDBRANCH   6  29
TORSDOF 6
ENDMDL
MODEL 8
REMARK VINA RESULT:      -7.4      8.331     11.864
REMARK  Name = 
REMARK  8 active torsions:
REMARK  status: ('A' for Active; 'I' for Inactive)
REMARK    1  A    between atoms: C_1  and  N_2
REMARK    2  A    between atoms: C_6  and  C_7
REMARK    3  A    between atoms: C_7  and  C_8
REMARK    4  A    between atoms: C_8  and  C_9
REMARK    5  A    between atoms: C_13  and  N_14
REMARK    6  A    between atoms: C_19  and  O_20
REMARK    7  A    between atoms: C_22  and  C_23
REMARK    8  A    between atoms: C_23  and  C_24
REMARK                            x       y       z     vdW  Elec       q    Type
REMARK                         _______ _______ _______ _____ _____    ______ ____
ROOT
ATOM      1  N   UNL     1      -1.186  12.053  18.723  0.00  0.00    +0.000 N 
ATOM      2  C   UNL     1       0.118  11.379  18.465  0.00  0.00    +0.000 C 
ATOM      3  C   UNL     1       0.381  10.682  19.765  0.00  0.00    +0.000 A 
ATOM      4  C   UNL     1      -0.302  11.382  20.768  0.00  0.00    +0.000 A 
ATOM      5  C   UNL     1      -0.437  10.916  22.059  0.00  0.00    +0.000 A 
ATOM      6  C   UNL     1       0.119   9.675  22.330  0.00  0.00    +0.000 A 
ATOM      7  C   UNL     1       0.789   8.940  21.341  0.00  0.00    +0.000 A 
ATOM      8  C   UNL     1       0.958   9.444  20.038  0.00  0.00    +0.000 A 
ATOM      9  C   UNL     1      -1.168  12.374  20.099  0.00  0.00    +0.000 C 
ATOM     10  O   UNL     1      -1.887  13.163  20.708  0.00  0.00    +0.000 OA
ENDROOT
BRANCH   1  15
ATOM     11  C   UNL     1      -4.480  11.629  17.388  0.00  0.00    +0.000 A 
ATOM     12  C   UNL     1      -4.051  11.067  16.174  0.00  0.00    +0.000 A 
ATOM     13  C   UNL     1      -2.865  10.343  16.121  0.00  0.00    +0.000 A 
ATOM     14  C   UNL     1      -2.033  10.290  17.233  0.00  0.00    +0.000 A 
ATOM     15  C   UNL     1      -2.281  11.182  18.287  0.00  0.00    +0.000 A 
ATOM     16  C   UNL     1      -3.574  11.675  18.459  0.00  0.00    +0.000 A 
BRANCH  11  17
ATOM     17  C   UNL     1      -5.845  12.255  17.544  0.00  0.00    +0.000 C 
BRANCH  17  18
ATOM     18  C   UNL     1      -6.886  11.262  18.071  0.00  0.00    +0.000 C 
BRANCH  18  24
ATOM     19  C   UNL     1      -7.459   9.022  20.317  0.00  0.00    +0.000 C 
ATOM     20  N   UNL     1      -7.532  10.455  20.434  0.00  0.00    +0.000 N 
ATOM     21  C   UNL     1      -7.916  11.105  21.571  0.00  0.00    +0.000 A 
ATOM     22  N   UNL     1      -7.870  12.398  21.376  0.00  0.00    +0.000 NA
ATOM     23  N   UNL     1      -7.449  12.611  20.087  0.00  0.00    +0.000 NA
ATOM     24  C   UNL     1      -7.243  11.437  19.512  0.00  0.00    +0.000 A 
ENDBRANCH  18  24
ENDBRANCH  17  18
ENDBRANCH  11  17
ENDBRANCH   1  15
BRANCH   8  25
ATOM     25  C   UNL     1       1.700   8.624  19.011  0.00  0.00    +0.000 C 
ATOM     26  C   UNL     1       2.238   7.354  19.647  0.00  0.00    +0.000 C 
ATOM     27  F   UNL     1       0.906   8.268  17.959  0.00  0.00    +0.000 F 
ATOM     28  F   UNL     1       2.755   9.283  18.452  0.00  0.00    +0.000 F 
ENDBRANCH   8  25
BRANCH   6  29
ATOM     29  O   UNL     1      -0.015   9.094  23.556  0.00  0.00    +0.000 OA
ATOM     30  H   UNL     1       0.652   9.469  24.156  0.00  0.00    +0.000 HD
ENDBRANCH   6  29
TORSDOF 6
ENDMDL
MODEL 9
REMARK VINA RESULT:      -7.4      1.067      1.557
REMARK  Name = 
REMARK  8 active torsions:
REMARK  status: ('A' for Active; 'I' for Inactive)
REMARK    1  A    between atoms: C_1  and  N_2
REMARK    2  A    between atoms: C_6  and  C_7
REMARK    3  A    between atoms: C_7  and  C_8
REMARK    4  A    between atoms: C_8  and  C_9
REMARK    5  A    between atoms: C_13  and  N_14
REMARK    6  A    between atoms: C_19  and  O_20
REMARK    7  A    between atoms: C_22  and  C_23
REMARK    8  A    between atoms: C_23  and  C_24
REMARK                            x       y       z     vdW  Elec       q    Type
REMARK                         _______ _______ _______ _____ _____    ______ ____
ROOT
ATOM      1  N   UNL     1       5.846   5.676  15.604  0.00  0.00    +0.000 N 
ATOM      2  C   UNL     1       4.665   6.196  16.349  0.00  0.00    +0.000 C 
ATOM      3  C   UNL     1       4.181   4.978  17.074  0.00  0.00    +0.000 A 
ATOM      4  C   UNL     1       4.602   3.856  16.347  0.00  0.00    +0.000 A 
ATOM      5  C   UNL     1       4.495   2.564  16.819  0.00  0.00    +0.000 A 
ATOM      6  C   UNL     1       3.970   2.412  18.093  0.00  0.00    +0.000 A 
ATOM      7  C   UNL     1       3.561   3.517  18.854  0.00  0.00    +0.000 A 
ATOM      8  C   UNL     1       3.634   4.827  18.346  0.00  0.00    +0.000 A 
ATOM      9  C   UNL     1       5.527   4.334  15.300  0.00  0.00    +0.000 C 
ATOM     10  O   UNL     1       6.057   3.590  14.478  0.00  0.00    +0.000 OA
ENDROOT
BRANCH   1  15
ATOM     11  C   UNL     1       7.770   7.644  17.893  0.00  0.00    +0.000 A 
ATOM     12  C   UNL     1       7.670   6.732  18.957  0.00  0.00    +0.000 A 
ATOM     13  C   UNL     1       7.533   5.372  18.698  0.00  0.00    +0.000 A 
ATOM     14  C   UNL     1       7.356   4.926  17.394  0.00  0.00    +0.000 A 
ATOM     15  C   UNL     1       7.056   5.876  16.406  0.00  0.00    +0.000 A 
ATOM     16  C   UNL     1       7.463   7.196  16.598  0.00  0.00    +0.000 A 
BRANCH  11  17
ATOM     17  C   UNL     1       8.112   9.098  18.113  0.00  0.00    +0.000 C 
BRANCH  17  18
ATOM     18  C   UNL     1       9.256   9.283  19.116  0.00  0.00    +0.000 C 
BRANCH  18  24
ATOM     19  C   UNL     1      10.676  11.791  17.672  0.00  0.00    +0.000 C 
ATOM     20  N   UNL     1      10.093  11.720  18.986  0.00  0.00    +0.000 N 
ATOM     21  C   UNL     1      10.093  12.756  19.874  0.00  0.00    +0.000 A 
ATOM     22  N   UNL     1       9.479  12.397  20.972  0.00  0.00    +0.000 NA
ATOM     23  N   UNL     1       9.064  11.098  20.811  0.00  0.00    +0.000 NA
ATOM     24  C   UNL     1       9.433  10.683  19.609  0.00  0.00    +0.000 A 
ENDBRANCH  18  24
ENDBRANCH  17  18
ENDBRANCH  11  17
ENDBRANCH   1  15
BRANCH   8  25
ATOM     25  C   UNL     1       3.168   5.985  19.196  0.00  0.00    +0.000 C 
ATOM     26  C   UNL     1       2.376   5.471  20.386  0.00  0.00    +0.000 C 
ATOM     27  F   UNL     1       4.207   6.732  19.670  0.00  0.00    +0.000 F 
ATOM     28  F   UNL     1       2.375   6.866  18.523  0.00  0.00    +0.000 F 
ENDBRANCH   8  25
BRANCH   6  29
ATOM     29  O   UNL     1       3.883   1.184  18.679  0.00  0.00    +0.000 OA
ATOM     30  H   UNL     1       4.592   0.618  18.328  0.00  0.00    +0.000 HD
ENDBRANCH   6  29
TORSDOF 6
ENDMDL
