MODEL 1
REMARK VINA RESULT:      -8.5      0.000      0.000
REMARK  Name = 
REMARK  5 active torsions:
REMARK  status: ('A' for Active; 'I' for Inactive)
REMARK    1  A    between atoms: C_2  and  C_13
REMARK    2  A    between atoms: N_3  and  C_4
REMARK    3  A    between atoms: C_18  and  O_19
REMARK    4  A    between atoms: O_19  and  C_20
REMARK    5  A    between atoms: C_20  and  C_21
REMARK                            x       y       z     vdW  Elec       q    Type
REMARK                         _______ _______ _______ _____ _____    ______ ____
ROOT
ATOM      1  C   UNL     1       5.991   6.237  17.349  0.00  0.00    +0.000 A 
ATOM      2  C   UNL     1       6.944   7.195  17.731  0.00  0.00    +0.000 A 
ATOM      3  C   UNL     1       7.949   6.874  18.638  0.00  0.00    +0.000 A 
ATOM      4  C   UNL     1       7.899   5.635  19.231  0.00  0.00    +0.000 A 
ATOM      5  N   UNL     1       6.927   4.735  18.982  0.00  0.00    +0.000 NA
ATOM      6  C   UNL     1       5.985   5.035  18.047  0.00  0.00    +0.000 A 
ENDROOT
BRANCH   1   8
ATOM      7  O   UNL     1       5.396   6.230  15.062  0.00  0.00    +0.000 OA
ATOM      8  C   UNL     1       5.074   6.525  16.213  0.00  0.00    +0.000 C 
ATOM      9  N   UNL     1       3.781   6.992  16.461  0.00  0.00    +0.000 N 
ATOM     10  H   UNL     1       3.135   6.741  15.725  0.00  0.00    +0.000 HD
BRANCH   9  11
ATOM     11  C   UNL     1       3.254   7.413  17.698  0.00  0.00    +0.000 A 
ATOM     12  C   UNL     1       3.119   6.518  18.773  0.00  0.00    +0.000 A 
ATOM     13  C   UNL     1       2.349   6.855  19.888  0.00  0.00    +0.000 A 
ATOM     14  C   UNL     1       1.716   8.088  19.897  0.00  0.00    +0.000 A 
ATOM     15  C   UNL     1       1.907   9.000  18.872  0.00  0.00    +0.000 A 
ATOM     16  C   UNL     1       2.713   8.701  17.779  0.00  0.00    +0.000 A 
ATOM     17  C   UNL     1       1.065  10.196  19.123  0.00  0.00    +0.000 C 
ATOM     18  O   UNL     1       0.335   9.906  20.338  0.00  0.00    +0.000 OA
ATOM     19  C   UNL     1       0.747   8.632  20.879  0.00  0.00    +0.000 C 
ENDBRANCH   9  11
ENDBRANCH   1   8
BRANCH   6  20
ATOM     20  O   UNL     1       5.009   4.084  17.809  0.00  0.00    +0.000 OA
BRANCH  20  21
ATOM     21  C   UNL     1       4.797   3.263  18.965  0.00  0.00    +0.000 C 
BRANCH  21  22
ATOM     22  C   UNL     1       3.361   3.193  19.420  0.00  0.00    +0.000 A 
ATOM     23  C   UNL     1       2.957   3.325  20.752  0.00  0.00    +0.000 A 
ATOM     24  C   UNL     1       1.602   3.222  21.087  0.00  0.00    +0.000 A 
ATOM     25  C   UNL     1       0.644   2.973  20.100  0.00  0.00    +0.000 A 
ATOM     26  C   UNL     1       1.040   2.809  18.777  0.00  0.00    +0.000 A 
ATOM     27  C   UNL     1       2.388   2.914  18.452  0.00  0.00    +0.000 A 
ATOM     28  F   UNL     1       2.755   2.734  17.175  0.00  0.00    +0.000 F 
ENDBRANCH  21  22
ENDBRANCH  20  21
ENDBRANCH   6  20
TORSDOF 5
ENDMDL
MODEL 2
REMARK VINA RESULT:      -8.3      0.897      1.261
REMARK  Name = 
REMARK  5 active torsions:
REMARK  status: ('A' for Active; 'I' for Inactive)
REMARK    1  A    between atoms: C_2  and  C_13
REMARK    2  A    between atoms: N_3  and  C_4
REMARK    3  A    between atoms: C_18  and  O_19
REMARK    4  A    between atoms: O_19  and  C_20
REMARK    5  A    between atoms: C_20  and  C_21
REMARK                            x       y       z     vdW  Elec       q    Type
REMARK                         _______ _______ _______ _____ _____    ______ ____
ROOT
ATOM      1  C   UNL     1       5.976   6.223  17.232  0.00  0.00    +0.000 A 
ATOM      2  C   UNL     1       6.870   7.160  17.777  0.00  0.00    +0.000 A 
ATOM      3  C   UNL     1       7.896   6.753  18.622  0.00  0.00    +0.000 A 
ATOM      4  C   UNL     1       7.927   5.431  18.996  0.00  0.00    +0.000 A 
ATOM      5  N   UNL     1       7.012   4.527  18.592  0.00  0.00    +0.000 NA
ATOM      6  C   UNL     1       6.048   4.922  17.715  0.00  0.00    +0.000 A 
ENDROOT
BRANCH   1   8
ATOM      7  O   UNL     1       5.330   6.468  14.972  0.00  0.00    +0.000 OA
ATOM      8  C   UNL     1       5.038   6.642  16.156  0.00  0.00    +0.000 C 
ATOM      9  N   UNL     1       3.758   7.096  16.483  0.00  0.00    +0.000 N 
ATOM     10  H   UNL     1       3.092   6.933  15.740  0.00  0.00    +0.000 HD
BRANCH   9  11
ATOM     11  C   UNL     1       3.265   7.388  17.770  0.00  0.00    +0.000 A 
ATOM     12  C   UNL     1       3.267   6.419  18.787  0.00  0.00    +0.000 A 
ATOM     13  C   UNL     1       2.533   6.615  19.959  0.00  0.00    +0.000 A 
ATOM     14  C   UNL     1       1.799   7.782  20.082  0.00  0.00    +0.000 A 
ATOM     15  C   UNL     1       1.853   8.771  19.114  0.00  0.00    +0.000 A 
ATOM     16  C   UNL     1       2.621   8.616  17.965  0.00  0.00    +0.000 A 
ATOM     17  C   UNL     1       0.927   9.869  19.486  0.00  0.00    +0.000 C 
ATOM     18  O   UNL     1       0.293   9.438  20.713  0.00  0.00    +0.000 OA
ATOM     19  C   UNL     1       0.841   8.174  21.146  0.00  0.00    +0.000 C 
ENDBRANCH   9  11
ENDBRANCH   1   8
BRANCH   6  20
ATOM     20  O   UNL     1       5.133   3.967  17.313  0.00  0.00    +0.000 OA
BRANCH  20  21
ATOM     21  C   UNL     1       4.844   3.050  18.377  0.00  0.00    +0.000 C 
BRANCH  21  22
ATOM     22  C   UNL     1       3.390   2.998  18.772  0.00  0.00    +0.000 A 
ATOM     23  C   UNL     1       2.334   3.277  17.899  0.00  0.00    +0.000 A 
ATOM     24  C   UNL     1       1.012   3.229  18.359  0.00  0.00    +0.000 A 
ATOM     25  C   UNL     1       0.736   2.918  19.693  0.00  0.00    +0.000 A 
ATOM     26  C   UNL     1       1.782   2.671  20.576  0.00  0.00    +0.000 A 
ATOM     27  C   UNL     1       3.091   2.719  20.112  0.00  0.00    +0.000 A 
ATOM     28  F   UNL     1       4.089   2.497  20.981  0.00  0.00    +0.000 F 
ENDBRANCH  21  22
ENDBRANCH  20  21
ENDBRANCH   6  20
TORSDOF 5
ENDMDL
MODEL 3
REMARK VINA RESULT:      -8.3      2.004      4.968
REMARK  Name = 
REMARK  5 active torsions:
REMARK  status: ('A' for Active; 'I' for Inactive)
REMARK    1  A    between atoms: C_2  and  C_13
REMARK    2  A    between atoms: N_3  and  C_4
REMARK    3  A    between atoms: C_18  and  O_19
REMARK    4  A    between atoms: O_19  and  C_20
REMARK    5  A    between atoms: C_20  and  C_21
REMARK                            x       y       z     vdW  Elec       q    Type
REMARK                         _______ _______ _______ _____ _____    ______ ____
ROOT
ATOM      1  C   UNL     1       2.135   3.391  20.024  0.00  0.00    +0.000 A 
ATOM      2  C   UNL     1       0.871   3.018  19.538  0.00  0.00    +0.000 A 
ATOM      3  C   UNL     1       0.753   2.201  18.419  0.00  0.00    +0.000 A 
ATOM      4  C   UNL     1       1.906   1.878  17.743  0.00  0.00    +0.000 A 
ATOM      5  N   UNL     1       3.126   2.320  18.108  0.00  0.00    +0.000 NA
ATOM      6  C   UNL     1       3.236   3.067  19.241  0.00  0.00    +0.000 A 
ENDROOT
BRANCH   1   8
ATOM      7  O   UNL     1       2.443   3.406  22.367  0.00  0.00    +0.000 OA
ATOM      8  C   UNL     1       2.245   4.065  21.346  0.00  0.00    +0.000 C 
ATOM      9  N   UNL     1       2.275   5.460  21.417  0.00  0.00    +0.000 N 
ATOM     10  H   UNL     1       2.772   5.791  22.233  0.00  0.00    +0.000 HD
BRANCH   9  11
ATOM     11  C   UNL     1       2.032   6.368  20.368  0.00  0.00    +0.000 A 
ATOM     12  C   UNL     1       2.605   6.183  19.099  0.00  0.00    +0.000 A 
ATOM     13  C   UNL     1       2.595   7.214  18.156  0.00  0.00    +0.000 A 
ATOM     14  C   UNL     1       2.017   8.421  18.513  0.00  0.00    +0.000 A 
ATOM     15  C   UNL     1       1.388   8.581  19.736  0.00  0.00    +0.000 A 
ATOM     16  C   UNL     1       1.341   7.548  20.667  0.00  0.00    +0.000 A 
ATOM     17  C   UNL     1       0.918   9.983  19.861  0.00  0.00    +0.000 C 
ATOM     18  O   UNL     1       1.352  10.645  18.650  0.00  0.00    +0.000 OA
ATOM     19  C   UNL     1       1.992   9.701  17.764  0.00  0.00    +0.000 C 
ENDBRANCH   9  11
ENDBRANCH   1   8
BRANCH   6  20
ATOM     20  O   UNL     1       4.504   3.494  19.591  0.00  0.00    +0.000 OA
BRANCH  20  21
ATOM     21  C   UNL     1       5.392   3.453  18.466  0.00  0.00    +0.000 C 
BRANCH  21  22
ATOM     22  C   UNL     1       6.042   4.774  18.142  0.00  0.00    +0.000 A 
ATOM     23  C   UNL     1       7.077   5.340  18.893  0.00  0.00    +0.000 A 
ATOM     24  C   UNL     1       7.605   6.585  18.532  0.00  0.00    +0.000 A 
ATOM     25  C   UNL     1       7.096   7.280  17.431  0.00  0.00    +0.000 A 
ATOM     26  C   UNL     1       6.045   6.740  16.698  0.00  0.00    +0.000 A 
ATOM     27  C   UNL     1       5.527   5.502  17.061  0.00  0.00    +0.000 A 
ATOM     28  F   UNL     1       4.501   5.004  16.355  0.00  0.00    +0.000 F 
ENDBRANCH  21  22
ENDBRANCH  20  21
ENDBRANCH   6  20
TORSDOF 5
ENDMDL
MODEL 4
REMARK VINA RESULT:      -8.1      1.982      5.098
REMARK  Name = 
REMARK  5 active torsions:
REMARK  status: ('A' for Active; 'I' for Inactive)
REMARK    1  A    between atoms: C_2  and  C_13
REMARK    2  A    between atoms: N_3  and  C_4
REMARK    3  A    between atoms: C_18  and  O_19
REMARK    4  A    between atoms: O_19  and  C_20
REMARK    5  A    between atoms: C_20  and  C_21
REMARK                            x       y       z     vdW  Elec       q    Type
REMARK                         _______ _______ _______ _____ _____    ______ ____
ROOT
ATOM      1  C   UNL     1       6.276   4.943  17.022  0.00  0.00    +0.000 A 
ATOM      2  C   UNL     1       6.721   4.129  15.967  0.00  0.00    +0.000 A 
ATOM      3  C   UNL     1       6.428   4.456  14.647  0.00  0.00    +0.000 A 
ATOM      4  C   UNL     1       5.594   5.526  14.426  0.00  0.00    +0.000 A 
ATOM      5  N   UNL     1       5.048   6.255  15.420  0.00  0.00    +0.000 NA
ATOM      6  C   UNL     1       5.391   5.965  16.705  0.00  0.00    +0.000 A 
ENDROOT
BRANCH   1   8
ATOM      7  O   UNL     1       7.871   5.185  18.749  0.00  0.00    +0.000 OA
ATOM      8  C   UNL     1       6.791   4.709  18.398  0.00  0.00    +0.000 C 
ATOM      9  N   UNL     1       5.985   4.074  19.346  0.00  0.00    +0.000 N 
ATOM     10  H   UNL     1       6.217   4.347  20.291  0.00  0.00    +0.000 HD
BRANCH   9  11
ATOM     11  C   UNL     1       4.748   3.440  19.120  0.00  0.00    +0.000 A 
ATOM     12  C   UNL     1       4.375   3.012  17.834  0.00  0.00    +0.000 A 
ATOM     13  C   UNL     1       3.055   2.645  17.561  0.00  0.00    +0.000 A 
ATOM     14  C   UNL     1       2.128   2.727  18.587  0.00  0.00    +0.000 A 
ATOM     15  C   UNL     1       2.508   3.078  19.872  0.00  0.00    +0.000 A 
ATOM     16  C   UNL     1       3.829   3.395  20.174  0.00  0.00    +0.000 A 
ATOM     17  C   UNL     1       1.304   3.137  20.737  0.00  0.00    +0.000 C 
ATOM     18  O   UNL     1       0.188   2.841  19.864  0.00  0.00    +0.000 OA
ATOM     19  C   UNL     1       0.659   2.529  18.534  0.00  0.00    +0.000 C 
ENDBRANCH   9  11
ENDBRANCH   1   8
BRANCH   6  20
ATOM     20  O   UNL     1       4.820   6.741  17.698  0.00  0.00    +0.000 OA
BRANCH  20  21
ATOM     21  C   UNL     1       3.438   6.405  17.884  0.00  0.00    +0.000 C 
BRANCH  21  22
ATOM     22  C   UNL     1       2.592   7.538  18.408  0.00  0.00    +0.000 A 
ATOM     23  C   UNL     1       2.321   8.706  17.689  0.00  0.00    +0.000 A 
ATOM     24  C   UNL     1       1.543   9.719  18.264  0.00  0.00    +0.000 A 
ATOM     25  C   UNL     1       1.045   9.580  19.562  0.00  0.00    +0.000 A 
ATOM     26  C   UNL     1       1.336   8.434  20.296  0.00  0.00    +0.000 A 
ATOM     27  C   UNL     1       2.107   7.433  19.718  0.00  0.00    +0.000 A 
ATOM     28  F   UNL     1       2.395   6.344  20.446  0.00  0.00    +0.000 F 
ENDBRANCH  21  22
ENDBRANCH  20  21
ENDBRANCH   6  20
TORSDOF 5
ENDMDL
MODEL 5
REMARK VINA RESULT:      -8.1      2.218      4.981
REMARK  Name = 
REMARK  5 active torsions:
REMARK  status: ('A' for Active; 'I' for Inactive)
REMARK    1  A    between atoms: C_2  and  C_13
REMARK    2  A    between atoms: N_3  and  C_4
REMARK    3  A    between atoms: C_18  and  O_19
REMARK    4  A    between atoms: O_19  and  C_20
REMARK    5  A    between atoms: C_20  and  C_21
REMARK                            x       y       z     vdW  Elec       q    Type
REMARK                         _______ _______ _______ _____ _____    ______ ____
ROOT
ATOM      1  C   UNL     1       6.327   4.878  16.837  0.00  0.00    +0.000 A 
ATOM      2  C   UNL     1       6.688   4.003  15.800  0.00  0.00    +0.000 A 
ATOM      3  C   UNL     1       6.422   4.325  14.474  0.00  0.00    +0.000 A 
ATOM      4  C   UNL     1       5.691   5.464  14.229  0.00  0.00    +0.000 A 
ATOM      5  N   UNL     1       5.220   6.263  15.207  0.00  0.00    +0.000 NA
ATOM      6  C   UNL     1       5.540   5.972  16.498  0.00  0.00    +0.000 A 
ENDROOT
BRANCH   1   8
ATOM      7  O   UNL     1       7.928   5.045  18.566  0.00  0.00    +0.000 OA
ATOM      8  C   UNL     1       6.823   4.628  18.217  0.00  0.00    +0.000 C 
ATOM      9  N   UNL     1       5.979   4.051  19.168  0.00  0.00    +0.000 N 
ATOM     10  H   UNL     1       6.225   4.320  20.111  0.00  0.00    +0.000 HD
BRANCH   9  11
ATOM     11  C   UNL     1       4.708   3.488  18.944  0.00  0.00    +0.000 A 
ATOM     12  C   UNL     1       4.162   3.417  17.651  0.00  0.00    +0.000 A 
ATOM     13  C   UNL     1       2.809   3.123  17.464  0.00  0.00    +0.000 A 
ATOM     14  C   UNL     1       2.025   2.916  18.587  0.00  0.00    +0.000 A 
ATOM     15  C   UNL     1       2.576   2.913  19.858  0.00  0.00    +0.000 A 
ATOM     16  C   UNL     1       3.931   3.151  20.059  0.00  0.00    +0.000 A 
ATOM     17  C   UNL     1       1.495   2.724  20.857  0.00  0.00    +0.000 C 
ATOM     18  O   UNL     1       0.269   2.662  20.091  0.00  0.00    +0.000 OA
ATOM     19  C   UNL     1       0.556   2.724  18.676  0.00  0.00    +0.000 C 
ENDBRANCH   9  11
ENDBRANCH   1   8
BRANCH   6  20
ATOM     20  O   UNL     1       5.048   6.820  17.474  0.00  0.00    +0.000 OA
BRANCH  20  21
ATOM     21  C   UNL     1       3.695   7.202  17.192  0.00  0.00    +0.000 C 
BRANCH  21  22
ATOM     22  C   UNL     1       2.854   7.448  18.418  0.00  0.00    +0.000 A 
ATOM     23  C   UNL     1       2.716   6.533  19.467  0.00  0.00    +0.000 A 
ATOM     24  C   UNL     1       1.892   6.836  20.558  0.00  0.00    +0.000 A 
ATOM     25  C   UNL     1       1.190   8.043  20.604  0.00  0.00    +0.000 A 
ATOM     26  C   UNL     1       1.296   8.945  19.550  0.00  0.00    +0.000 A 
ATOM     27  C   UNL     1       2.117   8.639  18.471  0.00  0.00    +0.000 A 
ATOM     28  F   UNL     1       2.193   9.510  17.455  0.00  0.00    +0.000 F 
ENDBRANCH  21  22
ENDBRANCH  20  21
ENDBRANCH   6  20
TORSDOF 5
ENDMDL
MODEL 6
REMARK VINA RESULT:      -8.0      2.221      5.174
REMARK  Name = 
REMARK  5 active torsions:
REMARK  status: ('A' for Active; 'I' for Inactive)
REMARK    1  A    between atoms: C_2  and  C_13
REMARK    2  A    between atoms: N_3  and  C_4
REMARK    3  A    between atoms: C_18  and  O_19
REMARK    4  A    between atoms: O_19  and  C_20
REMARK    5  A    between atoms: C_20  and  C_21
REMARK                            x       y       z     vdW  Elec       q    Type
REMARK                         _______ _______ _______ _____ _____    ______ ____
ROOT
ATOM      1  C   UNL     1       2.307   3.592  19.980  0.00  0.00    +0.000 A 
ATOM      2  C   UNL     1       1.117   3.059  19.459  0.00  0.00    +0.000 A 
ATOM      3  C   UNL     1       1.132   2.275  18.311  0.00  0.00    +0.000 A 
ATOM      4  C   UNL     1       2.328   2.145  17.645  0.00  0.00    +0.000 A 
ATOM      5  N   UNL     1       3.467   2.744  18.047  0.00  0.00    +0.000 NA
ATOM      6  C   UNL     1       3.454   3.458  19.206  0.00  0.00    +0.000 A 
ENDROOT
BRANCH   1   8
ATOM      7  O   UNL     1       2.484   3.546  22.336  0.00  0.00    +0.000 OA
ATOM      8  C   UNL     1       2.302   4.226  21.326  0.00  0.00    +0.000 C 
ATOM      9  N   UNL     1       2.241   5.617  21.441  0.00  0.00    +0.000 N 
ATOM     10  H   UNL     1       2.671   5.950  22.293  0.00  0.00    +0.000 HD
BRANCH   9  11
ATOM     11  C   UNL     1       2.001   6.544  20.408  0.00  0.00    +0.000 A 
ATOM     12  C   UNL     1       2.655   6.438  19.170  0.00  0.00    +0.000 A 
ATOM     13  C   UNL     1       2.633   7.498  18.259  0.00  0.00    +0.000 A 
ATOM     14  C   UNL     1       1.960   8.654  18.619  0.00  0.00    +0.000 A 
ATOM     15  C   UNL     1       1.253   8.733  19.808  0.00  0.00    +0.000 A 
ATOM     16  C   UNL     1       1.220   7.668  20.702  0.00  0.00    +0.000 A 
ATOM     17  C   UNL     1       0.689  10.098  19.948  0.00  0.00    +0.000 C 
ATOM     18  O   UNL     1       1.148  10.827  18.786  0.00  0.00    +0.000 OA
ATOM     19  C   UNL     1       1.896   9.955  17.909  0.00  0.00    +0.000 C 
ENDBRANCH   9  11
ENDBRANCH   1   8
BRANCH   6  20
ATOM     20  O   UNL     1       4.642   4.050  19.594  0.00  0.00    +0.000 OA
BRANCH  20  21
ATOM     21  C   UNL     1       5.630   3.948  18.560  0.00  0.00    +0.000 C 
BRANCH  21  22
ATOM     22  C   UNL     1       6.246   5.265  18.160  0.00  0.00    +0.000 A 
ATOM     23  C   UNL     1       5.836   6.013  17.052  0.00  0.00    +0.000 A 
ATOM     24  C   UNL     1       6.482   7.216  16.741  0.00  0.00    +0.000 A 
ATOM     25  C   UNL     1       7.547   7.672  17.522  0.00  0.00    +0.000 A 
ATOM     26  C   UNL     1       7.982   6.918  18.607  0.00  0.00    +0.000 A 
ATOM     27  C   UNL     1       7.335   5.726  18.911  0.00  0.00    +0.000 A 
ATOM     28  F   UNL     1       7.779   5.002  19.948  0.00  0.00    +0.000 F 
ENDBRANCH  21  22
ENDBRANCH  20  21
ENDBRANCH   6  20
TORSDOF 5
ENDMDL
MODEL 7
REMARK VINA RESULT:      -8.0      1.859      2.971
REMARK  Name = 
REMARK  5 active torsions:
REMARK  status: ('A' for Active; 'I' for Inactive)
REMARK    1  A    between atoms: C_2  and  C_13
REMARK    2  A    between atoms: N_3  and  C_4
REMARK    3  A    between atoms: C_18  and  O_19
REMARK    4  A    between atoms: O_19  and  C_20
REMARK    5  A    between atoms: C_20  and  C_21
REMARK                            x       y       z     vdW  Elec       q    Type
REMARK                         _______ _______ _______ _____ _____    ______ ____
ROOT
ATOM      1  C   UNL     1       6.661   4.430  16.426  0.00  0.00    +0.000 A 
ATOM      2  C   UNL     1       7.350   4.964  15.326  0.00  0.00    +0.000 A 
ATOM      3  C   UNL     1       6.821   4.872  14.043  0.00  0.00    +0.000 A 
ATOM      4  C   UNL     1       5.668   4.140  13.881  0.00  0.00    +0.000 A 
ATOM      5  N   UNL     1       5.045   3.508  14.896  0.00  0.00    +0.000 NA
ATOM      6  C   UNL     1       5.538   3.657  16.157  0.00  0.00    +0.000 A 
ENDROOT
BRANCH   1   8
ATOM      7  O   UNL     1       8.206   4.311  18.210  0.00  0.00    +0.000 OA
ATOM      8  C   UNL     1       7.124   4.739  17.806  0.00  0.00    +0.000 C 
ATOM      9  N   UNL     1       6.408   5.639  18.597  0.00  0.00    +0.000 N 
ATOM     10  H   UNL     1       6.994   6.100  19.280  0.00  0.00    +0.000 HD
BRANCH   9  11
ATOM     11  C   UNL     1       5.145   6.197  18.317  0.00  0.00    +0.000 A 
ATOM     12  C   UNL     1       4.905   6.885  17.115  0.00  0.00    +0.000 A 
ATOM     13  C   UNL     1       3.758   7.668  16.960  0.00  0.00    +0.000 A 
ATOM     14  C   UNL     1       2.877   7.755  18.025  0.00  0.00    +0.000 A 
ATOM     15  C   UNL     1       3.075   7.020  19.183  0.00  0.00    +0.000 A 
ATOM     16  C   UNL     1       4.183   6.193  19.334  0.00  0.00    +0.000 A 
ATOM     17  C   UNL     1       2.011   7.358  20.161  0.00  0.00    +0.000 C 
ATOM     18  O   UNL     1       1.203   8.371  19.518  0.00  0.00    +0.000 OA
ATOM     19  C   UNL     1       1.674   8.610  18.173  0.00  0.00    +0.000 C 
ENDBRANCH   9  11
ENDBRANCH   1   8
BRANCH   6  20
ATOM     20  O   UNL     1       4.867   3.004  17.175  0.00  0.00    +0.000 OA
BRANCH  20  21
ATOM     21  C   UNL     1       3.460   3.272  17.121  0.00  0.00    +0.000 C 
BRANCH  21  22
ATOM     22  C   UNL     1       2.774   3.249  18.463  0.00  0.00    +0.000 A 
ATOM     23  C   UNL     1       3.288   2.603  19.591  0.00  0.00    +0.000 A 
ATOM     24  C   UNL     1       2.569   2.611  20.793  0.00  0.00    +0.000 A 
ATOM     25  C   UNL     1       1.329   3.251  20.873  0.00  0.00    +0.000 A 
ATOM     26  C   UNL     1       0.796   3.870  19.748  0.00  0.00    +0.000 A 
ATOM     27  C   UNL     1       1.515   3.858  18.559  0.00  0.00    +0.000 A 
ATOM     28  F   UNL     1       0.978   4.442  17.478  0.00  0.00    +0.000 F 
ENDBRANCH  21  22
ENDBRANCH  20  21
ENDBRANCH   6  20
TORSDOF 5
ENDMDL
MODEL 8
REMARK VINA RESULT:      -8.0      2.257      5.002
REMARK  Name = 
REMARK  5 active torsions:
REMARK  status: ('A' for Active; 'I' for Inactive)
REMARK    1  A    between atoms: C_2  and  C_13
REMARK    2  A    between atoms: N_3  and  C_4
REMARK    3  A    between atoms: C_18  and  O_19
REMARK    4  A    between atoms: O_19  and  C_20
REMARK    5  A    between atoms: C_20  and  C_21
REMARK                            x       y       z     vdW  Elec       q    Type
REMARK                         _______ _______ _______ _____ _____    ______ ____
ROOT
ATOM      1  C   UNL     1       2.568   4.522  19.382  0.00  0.00    +0.000 A 
ATOM      2  C   UNL     1       1.633   4.158  20.364  0.00  0.00    +0.000 A 
ATOM      3  C   UNL     1       0.656   3.205  20.096  0.00  0.00    +0.000 A 
ATOM      4  C   UNL     1       0.567   2.730  18.809  0.00  0.00    +0.000 A 
ATOM      5  N   UNL     1       1.368   3.149  17.809  0.00  0.00    +0.000 NA
ATOM      6  C   UNL     1       2.361   4.035  18.097  0.00  0.00    +0.000 A 
ENDROOT
BRANCH   1   8
ATOM      7  O   UNL     1       4.809   4.837  20.063  0.00  0.00    +0.000 OA
ATOM      8  C   UNL     1       3.738   5.362  19.756  0.00  0.00    +0.000 C 
ATOM      9  N   UNL     1       3.674   6.750  19.617  0.00  0.00    +0.000 N 
ATOM     10  H   UNL     1       4.584   7.163  19.467  0.00  0.00    +0.000 HD
BRANCH   9  11
ATOM     11  C   UNL     1       2.534   7.520  19.314  0.00  0.00    +0.000 A 
ATOM     12  C   UNL     1       2.313   8.014  18.017  0.00  0.00    +0.000 A 
ATOM     13  C   UNL     1       1.348   8.997  17.784  0.00  0.00    +0.000 A 
ATOM     14  C   UNL     1       0.628   9.475  18.866  0.00  0.00    +0.000 A 
ATOM     15  C   UNL     1       0.792   8.938  20.132  0.00  0.00    +0.000 A 
ATOM     16  C   UNL     1       1.711   7.922  20.373  0.00  0.00    +0.000 A 
ATOM     17  C   UNL     1      -0.062   9.682  21.091  0.00  0.00    +0.000 C 
ATOM     18  O   UNL     1      -0.704  10.718  20.311  0.00  0.00    +0.000 OA
ATOM     19  C   UNL     1      -0.345  10.594  18.918  0.00  0.00    +0.000 C 
ENDBRANCH   9  11
ENDBRANCH   1   8
BRANCH   6  20
ATOM     20  O   UNL     1       3.171   4.435  17.050  0.00  0.00    +0.000 OA
BRANCH  20  21
ATOM     21  C   UNL     1       4.246   3.508  16.846  0.00  0.00    +0.000 C 
BRANCH  21  22
ATOM     22  C   UNL     1       5.280   3.970  15.851  0.00  0.00    +0.000 A 
ATOM     23  C   UNL     1       5.199   3.736  14.475  0.00  0.00    +0.000 A 
ATOM     24  C   UNL     1       6.220   4.181  13.626  0.00  0.00    +0.000 A 
ATOM     25  C   UNL     1       7.334   4.848  14.145  0.00  0.00    +0.000 A 
ATOM     26  C   UNL     1       7.438   5.057  15.516  0.00  0.00    +0.000 A 
ATOM     27  C   UNL     1       6.420   4.614  16.352  0.00  0.00    +0.000 A 
ATOM     28  F   UNL     1       6.544   4.807  17.673  0.00  0.00    +0.000 F 
ENDBRANCH  21  22
ENDBRANCH  20  21
ENDBRANCH   6  20
TORSDOF 5
ENDMDL
MODEL 9
REMARK VINA RESULT:      -7.9      2.070      4.811
REMARK  Name = 
REMARK  5 active torsions:
REMARK  status: ('A' for Active; 'I' for Inactive)
REMARK    1  A    between atoms: C_2  and  C_13
REMARK    2  A    between atoms: N_3  and  C_4
REMARK    3  A    between atoms: C_18  and  O_19
REMARK    4  A    between atoms: O_19  and  C_20
REMARK    5  A    between atoms: C_20  and  C_21
REMARK                            x       y       z     vdW  Elec       q    Type
REMARK                         _______ _______ _______ _____ _____    ______ ____
ROOT
ATOM      1  C   UNL     1       2.506   4.484  19.502  0.00  0.00    +0.000 A 
ATOM      2  C   UNL     1       1.658   4.046  20.532  0.00  0.00    +0.000 A 
ATOM      3  C   UNL     1       0.661   3.109  20.281  0.00  0.00    +0.000 A 
ATOM      4  C   UNL     1       0.462   2.725  18.976  0.00  0.00    +0.000 A 
ATOM      5  N   UNL     1       1.175   3.218  17.944  0.00  0.00    +0.000 NA
ATOM      6  C   UNL     1       2.189   4.087  18.208  0.00  0.00    +0.000 A 
ENDROOT
BRANCH   1   8
ATOM      7  O   UNL     1       4.763   4.757  20.145  0.00  0.00    +0.000 OA
ATOM      8  C   UNL     1       3.704   5.301  19.833  0.00  0.00    +0.000 C 
ATOM      9  N   UNL     1       3.677   6.685  19.647  0.00  0.00    +0.000 N 
ATOM     10  H   UNL     1       4.597   7.066  19.473  0.00  0.00    +0.000 HD
BRANCH   9  11
ATOM     11  C   UNL     1       2.556   7.477  19.331  0.00  0.00    +0.000 A 
ATOM     12  C   UNL     1       2.359   7.974  18.032  0.00  0.00    +0.000 A 
ATOM     13  C   UNL     1       1.416   8.975  17.786  0.00  0.00    +0.000 A 
ATOM     14  C   UNL     1       0.694   9.469  18.860  0.00  0.00    +0.000 A 
ATOM     15  C   UNL     1       0.834   8.930  20.129  0.00  0.00    +0.000 A 
ATOM     16  C   UNL     1       1.729   7.896  20.380  0.00  0.00    +0.000 A 
ATOM     17  C   UNL     1      -0.017   9.691  21.077  0.00  0.00    +0.000 C 
ATOM     18  O   UNL     1      -0.630  10.739  20.290  0.00  0.00    +0.000 OA
ATOM     19  C   UNL     1      -0.258  10.606  18.901  0.00  0.00    +0.000 C 
ENDBRANCH   9  11
ENDBRANCH   1   8
BRANCH   6  20
ATOM     20  O   UNL     1       2.906   4.565  17.126  0.00  0.00    +0.000 OA
BRANCH  20  21
ATOM     21  C   UNL     1       3.800   3.565  16.618  0.00  0.00    +0.000 C 
BRANCH  21  22
ATOM     22  C   UNL     1       5.178   4.078  16.287  0.00  0.00    +0.000 A 
ATOM     23  C   UNL     1       6.134   4.422  17.248  0.00  0.00    +0.000 A 
ATOM     24  C   UNL     1       7.383   4.915  16.850  0.00  0.00    +0.000 A 
ATOM     25  C   UNL     1       7.681   5.080  15.495  0.00  0.00    +0.000 A 
ATOM     26  C   UNL     1       6.725   4.770  14.533  0.00  0.00    +0.000 A 
ATOM     27  C   UNL     1       5.488   4.280  14.936  0.00  0.00    +0.000 A 
ATOM     28  F   UNL     1       4.571   4.004  13.998  0.00  0.00    +0.000 F 
ENDBRANCH  21  22
ENDBRANCH  20  21
ENDBRANCH   6  20
TORSDOF 5
ENDMDL
