MODEL 1
REMARK VINA RESULT:      -8.5      0.000      0.000
REMARK  Name = 
REMARK  6 active torsions:
REMARK  status: ('A' for Active; 'I' for Inactive)
REMARK    1  A    between atoms: C_1  and  O_2
REMARK    2  A    between atoms: O_2  and  C_3
REMARK    3  A    between atoms: C_5  and  C_6
REMARK    4  A    between atoms: C_8  and  C_9
REMARK    5  A    between atoms: C_13  and  C_15
REMARK    6  A    between atoms: C_15  and  C_16
REMARK                            x       y       z     vdW  Elec       q    Type
REMARK                         _______ _______ _______ _____ _____    ______ ____
ROOT
ATOM      1  C   UNL     1       2.789   2.837  19.389  0.00  0.00    +0.000 C 
ATOM      2  C   UNL     1       4.069   2.797  18.566  0.00  0.00    +0.000 C 
ATOM      3  C   UNL     1       4.571   4.244  18.642  0.00  0.00    +0.000 C 
ATOM      4  N   UNL     1       3.323   4.984  18.460  0.00  0.00    +0.000 N 
ATOM      5  C   UNL     1       3.232   6.301  18.064  0.00  0.00    +0.000 C 
ATOM      6  O   UNL     1       4.226   6.962  17.752  0.00  0.00    +0.000 OA
ATOM      7  C   UNL     1       2.222   4.232  19.071  0.00  0.00    +0.000 C 
ENDROOT
BRANCH   3   8
ATOM      8  C   UNL     1       5.658   4.465  17.647  0.00  0.00    +0.000 A 
ATOM      9  N   UNL     1       5.556   4.574  16.342  0.00  0.00    +0.000 NA
ATOM     10  C   UNL     1       6.851   4.550  15.905  0.00  0.00    +0.000 A 
ATOM     11  C   UNL     1       7.206   4.642  14.482  0.00  0.00    +0.000 C 
ATOM     12  N   UNL     1       7.761   4.415  16.872  0.00  0.00    +0.000 NA
ATOM     13  N   UNL     1       6.987   4.410  17.970  0.00  0.00    +0.000 N 
ATOM     14  H   UNL     1       7.412   4.399  18.893  0.00  0.00    +0.000 HD
ENDBRANCH   3   8
BRANCH   1  16
ATOM     15  C   UNL     1       2.096   3.399  21.595  0.00  0.00    +0.000 C 
ATOM     16  O   UNL     1       3.066   2.732  20.790  0.00  0.00    +0.000 OA
ENDBRANCH   1  16
BRANCH   5  17
ATOM     17  C   UNL     1       1.870   6.958  18.113  0.00  0.00    +0.000 C 
BRANCH  17  18
ATOM     18  C   UNL     1       1.750   8.368  18.616  0.00  0.00    +0.000 A 
ATOM     19  C   UNL     1       1.897   9.455  17.761  0.00  0.00    +0.000 A 
ATOM     20  N   UNL     1       1.501  10.586  18.415  0.00  0.00    +0.000 N 
ATOM     21  C   UNL     1       1.070  10.257  19.665  0.00  0.00    +0.000 A 
ATOM     22  N   UNL     1       0.454  11.121  20.490  0.00  0.00    +0.000 NA
ATOM     23  C   UNL     1       0.167  10.581  21.692  0.00  0.00    +0.000 A 
ATOM     24  C   UNL     1       0.570   9.324  22.121  0.00  0.00    +0.000 A 
ATOM     25  C   UNL     1       1.186   8.457  21.210  0.00  0.00    +0.000 A 
ATOM     26  C   UNL     1       1.381   8.916  19.893  0.00  0.00    +0.000 A 
ATOM     27  H   UNL     1       1.446  11.518  18.033  0.00  0.00    +0.000 HD
ENDBRANCH  17  18
ENDBRANCH   5  17
TORSDOF 4
ENDMDL
MODEL 2
REMARK VINA RESULT:      -8.4      1.227      1.332
REMARK  Name = 
REMARK  6 active torsions:
REMARK  status: ('A' for Active; 'I' for Inactive)
REMARK    1  A    between atoms: C_1  and  O_2
REMARK    2  A    between atoms: O_2  and  C_3
REMARK    3  A    between atoms: C_5  and  C_6
REMARK    4  A    between atoms: C_8  and  C_9
REMARK    5  A    between atoms: C_13  and  C_15
REMARK    6  A    between atoms: C_15  and  C_16
REMARK                            x       y       z     vdW  Elec       q    Type
REMARK                         _______ _______ _______ _____ _____    ______ ____
ROOT
ATOM      1  C   UNL     1       1.756   2.741  18.141  0.00  0.00    +0.000 C 
ATOM      2  C   UNL     1       2.972   2.852  17.232  0.00  0.00    +0.000 C 
ATOM      3  C   UNL     1       3.947   3.692  18.066  0.00  0.00    +0.000 C 
ATOM      4  N   UNL     1       3.047   4.708  18.611  0.00  0.00    +0.000 N 
ATOM      5  C   UNL     1       3.442   5.928  19.115  0.00  0.00    +0.000 C 
ATOM      6  O   UNL     1       4.616   6.304  19.080  0.00  0.00    +0.000 OA
ATOM      7  C   UNL     1       1.728   4.109  18.844  0.00  0.00    +0.000 C 
ENDROOT
BRANCH   3   8
ATOM      8  C   UNL     1       5.082   4.155  17.219  0.00  0.00    +0.000 A 
ATOM      9  N   UNL     1       5.101   4.346  15.919  0.00  0.00    +0.000 NA
ATOM     10  C   UNL     1       6.421   4.557  15.634  0.00  0.00    +0.000 A 
ATOM     11  C   UNL     1       6.903   4.812  14.270  0.00  0.00    +0.000 C 
ATOM     12  N   UNL     1       7.233   4.494  16.691  0.00  0.00    +0.000 NA
ATOM     13  N   UNL     1       6.360   4.285  17.690  0.00  0.00    +0.000 N 
ATOM     14  H   UNL     1       6.681   4.270  18.653  0.00  0.00    +0.000 HD
ENDBRANCH   3   8
BRANCH   1  16
ATOM     15  C   UNL     1       1.614   2.126  20.436  0.00  0.00    +0.000 C 
ATOM     16  O   UNL     1       1.921   1.700  19.110  0.00  0.00    +0.000 OA
ENDBRANCH   1  16
BRANCH   5  17
ATOM     17  C   UNL     1       2.397   6.773  19.812  0.00  0.00    +0.000 C 
BRANCH  17  18
ATOM     18  C   UNL     1       2.001   8.094  19.217  0.00  0.00    +0.000 A 
ATOM     19  C   UNL     1       2.306   8.412  17.898  0.00  0.00    +0.000 A 
ATOM     20  N   UNL     1       1.627   9.545  17.551  0.00  0.00    +0.000 N 
ATOM     21  C   UNL     1       0.865   9.954  18.603  0.00  0.00    +0.000 A 
ATOM     22  N   UNL     1      -0.050  10.936  18.521  0.00  0.00    +0.000 NA
ATOM     23  C   UNL     1      -0.642  11.198  19.704  0.00  0.00    +0.000 A 
ATOM     24  C   UNL     1      -0.279  10.641  20.921  0.00  0.00    +0.000 A 
ATOM     25  C   UNL     1       0.663   9.604  20.944  0.00  0.00    +0.000 A 
ATOM     26  C   UNL     1       1.210   9.186  19.716  0.00  0.00    +0.000 A 
ATOM     27  H   UNL     1       1.609   9.985  16.644  0.00  0.00    +0.000 HD
ENDBRANCH  17  18
ENDBRANCH   5  17
TORSDOF 4
ENDMDL
MODEL 3
REMARK VINA RESULT:      -8.2      1.256      1.648
REMARK  Name = 
REMARK  6 active torsions:
REMARK  status: ('A' for Active; 'I' for Inactive)
REMARK    1  A    between atoms: C_1  and  O_2
REMARK    2  A    between atoms: O_2  and  C_3
REMARK    3  A    between atoms: C_5  and  C_6
REMARK    4  A    between atoms: C_8  and  C_9
REMARK    5  A    between atoms: C_13  and  C_15
REMARK    6  A    between atoms: C_15  and  C_16
REMARK                            x       y       z     vdW  Elec       q    Type
REMARK                         _______ _______ _______ _____ _____    ______ ____
ROOT
ATOM      1  C   UNL     1       1.988   3.205  18.060  0.00  0.00    +0.000 C 
ATOM      2  C   UNL     1       3.332   3.097  17.353  0.00  0.00    +0.000 C 
ATOM      3  C   UNL     1       4.089   4.326  17.868  0.00  0.00    +0.000 C 
ATOM      4  N   UNL     1       3.042   5.346  17.812  0.00  0.00    +0.000 N 
ATOM      5  C   UNL     1       3.260   6.706  17.798  0.00  0.00    +0.000 C 
ATOM      6  O   UNL     1       4.394   7.189  17.756  0.00  0.00    +0.000 OA
ATOM      7  C   UNL     1       1.747   4.723  18.107  0.00  0.00    +0.000 C 
ENDROOT
BRANCH   3   8
ATOM      8  C   UNL     1       5.319   4.551  17.057  0.00  0.00    +0.000 A 
ATOM      9  N   UNL     1       5.413   4.736  15.760  0.00  0.00    +0.000 NA
ATOM     10  C   UNL     1       6.757   4.677  15.514  0.00  0.00    +0.000 A 
ATOM     11  C   UNL     1       7.320   4.831  14.166  0.00  0.00    +0.000 C 
ATOM     12  N   UNL     1       7.509   4.448  16.592  0.00  0.00    +0.000 NA
ATOM     13  N   UNL     1       6.583   4.417  17.565  0.00  0.00    +0.000 N 
ATOM     14  H   UNL     1       6.866   4.336  18.536  0.00  0.00    +0.000 HD
ENDBRANCH   3   8
BRANCH   1  16
ATOM     15  C   UNL     1       1.200   3.373  20.299  0.00  0.00    +0.000 C 
ATOM     16  O   UNL     1       2.055   2.681  19.391  0.00  0.00    +0.000 OA
ENDBRANCH   1  16
BRANCH   5  17
ATOM     17  C   UNL     1       2.056   7.613  17.931  0.00  0.00    +0.000 C 
BRANCH  17  18
ATOM     18  C   UNL     1       1.640   8.089  19.294  0.00  0.00    +0.000 A 
ATOM     19  C   UNL     1       2.026   7.411  20.445  0.00  0.00    +0.000 A 
ATOM     20  N   UNL     1       1.727   8.182  21.530  0.00  0.00    +0.000 N 
ATOM     21  C   UNL     1       1.183   9.359  21.112  0.00  0.00    +0.000 A 
ATOM     22  N   UNL     1       0.945  10.400  21.929  0.00  0.00    +0.000 NA
ATOM     23  C   UNL     1       0.355  11.435  21.297  0.00  0.00    +0.000 A 
ATOM     24  C   UNL     1      -0.099  11.419  19.987  0.00  0.00    +0.000 A 
ATOM     25  C   UNL     1       0.200  10.318  19.174  0.00  0.00    +0.000 A 
ATOM     26  C   UNL     1       0.943   9.265  19.741  0.00  0.00    +0.000 A 
ATOM     27  H   UNL     1       1.937   7.976  22.495  0.00  0.00    +0.000 HD
ENDBRANCH  17  18
ENDBRANCH   5  17
TORSDOF 4
ENDMDL
MODEL 4
REMARK VINA RESULT:      -8.0      3.048      4.892
REMARK  Name = 
REMARK  6 active torsions:
REMARK  status: ('A' for Active; 'I' for Inactive)
REMARK    1  A    between atoms: C_1  and  O_2
REMARK    2  A    between atoms: O_2  and  C_3
REMARK    3  A    between atoms: C_5  and  C_6
REMARK    4  A    between atoms: C_8  and  C_9
REMARK    5  A    between atoms: C_13  and  C_15
REMARK    6  A    between atoms: C_15  and  C_16
REMARK                            x       y       z     vdW  Elec       q    Type
REMARK                         _______ _______ _______ _____ _____    ______ ____
ROOT
ATOM      1  C   UNL     1       7.280   4.938  18.662  0.00  0.00    +0.000 C 
ATOM      2  C   UNL     1       7.492   4.398  17.254  0.00  0.00    +0.000 C 
ATOM      3  C   UNL     1       7.011   5.553  16.368  0.00  0.00    +0.000 C 
ATOM      4  N   UNL     1       5.800   5.966  17.077  0.00  0.00    +0.000 N 
ATOM      5  C   UNL     1       4.773   6.702  16.528  0.00  0.00    +0.000 C 
ATOM      6  O   UNL     1       4.756   7.019  15.336  0.00  0.00    +0.000 OA
ATOM      7  C   UNL     1       5.996   5.773  18.518  0.00  0.00    +0.000 C 
ENDROOT
BRANCH   3   8
ATOM      8  C   UNL     1       6.866   5.093  14.958  0.00  0.00    +0.000 A 
ATOM      9  N   UNL     1       6.077   4.154  14.487  0.00  0.00    +0.000 NA
ATOM     10  C   UNL     1       6.489   3.994  13.193  0.00  0.00    +0.000 A 
ATOM     11  C   UNL     1       5.870   3.021  12.283  0.00  0.00    +0.000 C 
ATOM     12  N   UNL     1       7.507   4.778  12.834  0.00  0.00    +0.000 NA
ATOM     13  N   UNL     1       7.700   5.498  13.951  0.00  0.00    +0.000 N 
ATOM     14  H   UNL     1       8.376   6.255  13.960  0.00  0.00    +0.000 HD
ENDBRANCH   3   8
BRANCH   1  16
ATOM     15  C   UNL     1       8.157   7.150  18.724  0.00  0.00    +0.000 C 
ATOM     16  O   UNL     1       8.365   5.781  19.066  0.00  0.00    +0.000 OA
ENDBRANCH   1  16
BRANCH   5  17
ATOM     17  C   UNL     1       3.690   7.201  17.459  0.00  0.00    +0.000 C 
BRANCH  17  18
ATOM     18  C   UNL     1       3.048   6.245  18.423  0.00  0.00    +0.000 A 
ATOM     19  C   UNL     1       2.539   6.681  19.642  0.00  0.00    +0.000 A 
ATOM     20  N   UNL     1       1.807   5.672  20.199  0.00  0.00    +0.000 N 
ATOM     21  C   UNL     1       1.801   4.601  19.357  0.00  0.00    +0.000 A 
ATOM     22  N   UNL     1       1.025   3.518  19.537  0.00  0.00    +0.000 NA
ATOM     23  C   UNL     1       1.232   2.567  18.604  0.00  0.00    +0.000 A 
ATOM     24  C   UNL     1       2.221   2.601  17.632  0.00  0.00    +0.000 A 
ATOM     25  C   UNL     1       2.983   3.766  17.473  0.00  0.00    +0.000 A 
ATOM     26  C   UNL     1       2.711   4.850  18.329  0.00  0.00    +0.000 A 
ATOM     27  H   UNL     1       1.275   5.712  21.055  0.00  0.00    +0.000 HD
ENDBRANCH  17  18
ENDBRANCH   5  17
TORSDOF 4
ENDMDL
MODEL 5
REMARK VINA RESULT:      -7.9      2.690      4.891
REMARK  Name = 
REMARK  6 active torsions:
REMARK  status: ('A' for Active; 'I' for Inactive)
REMARK    1  A    between atoms: C_1  and  O_2
REMARK    2  A    between atoms: O_2  and  C_3
REMARK    3  A    between atoms: C_5  and  C_6
REMARK    4  A    between atoms: C_8  and  C_9
REMARK    5  A    between atoms: C_13  and  C_15
REMARK    6  A    between atoms: C_15  and  C_16
REMARK                            x       y       z     vdW  Elec       q    Type
REMARK                         _______ _______ _______ _____ _____    ______ ____
ROOT
ATOM      1  C   UNL     1       5.568   4.648  14.517  0.00  0.00    +0.000 C 
ATOM      2  C   UNL     1       6.340   5.829  15.088  0.00  0.00    +0.000 C 
ATOM      3  C   UNL     1       6.794   5.311  16.458  0.00  0.00    +0.000 C 
ATOM      4  N   UNL     1       5.584   4.630  16.917  0.00  0.00    +0.000 N 
ATOM      5  C   UNL     1       5.301   4.314  18.227  0.00  0.00    +0.000 C 
ATOM      6  O   UNL     1       6.034   4.656  19.158  0.00  0.00    +0.000 OA
ATOM      7  C   UNL     1       4.892   4.047  15.762  0.00  0.00    +0.000 C 
ENDROOT
BRANCH   3   8
ATOM      8  C   UNL     1       7.313   6.435  17.287  0.00  0.00    +0.000 A 
ATOM      9  N   UNL     1       7.362   7.713  16.985  0.00  0.00    +0.000 NA
ATOM     10  C   UNL     1       8.111   8.262  17.988  0.00  0.00    +0.000 A 
ATOM     11  C   UNL     1       8.427   9.696  18.043  0.00  0.00    +0.000 C 
ATOM     12  N   UNL     1       8.547   7.388  18.898  0.00  0.00    +0.000 NA
ATOM     13  N   UNL     1       7.992   6.245  18.461  0.00  0.00    +0.000 N 
ATOM     14  H   UNL     1       8.081   5.394  19.006  0.00  0.00    +0.000 HD
ENDBRANCH   3   8
BRANCH   1  16
ATOM     15  C   UNL     1       5.995   3.229  12.655  0.00  0.00    +0.000 C 
ATOM     16  O   UNL     1       6.448   3.684  13.929  0.00  0.00    +0.000 OA
ENDBRANCH   1  16
BRANCH   5  17
ATOM     17  C   UNL     1       4.094   3.441  18.495  0.00  0.00    +0.000 C 
BRANCH  17  18
ATOM     18  C   UNL     1       2.923   4.011  19.242  0.00  0.00    +0.000 A 
ATOM     19  C   UNL     1       2.128   3.211  20.057  0.00  0.00    +0.000 A 
ATOM     20  N   UNL     1       1.307   4.015  20.794  0.00  0.00    +0.000 N 
ATOM     21  C   UNL     1       1.569   5.319  20.501  0.00  0.00    +0.000 A 
ATOM     22  N   UNL     1       1.052   6.355  21.186  0.00  0.00    +0.000 NA
ATOM     23  C   UNL     1       1.415   7.550  20.678  0.00  0.00    +0.000 A 
ATOM     24  C   UNL     1       2.124   7.737  19.501  0.00  0.00    +0.000 A 
ATOM     25  C   UNL     1       2.661   6.623  18.842  0.00  0.00    +0.000 A 
ATOM     26  C   UNL     1       2.437   5.354  19.409  0.00  0.00    +0.000 A 
ATOM     27  H   UNL     1       0.657   3.724  21.509  0.00  0.00    +0.000 HD
ENDBRANCH  17  18
ENDBRANCH   5  17
TORSDOF 4
ENDMDL
MODEL 6
REMARK VINA RESULT:      -7.8      1.771      4.014
REMARK  Name = 
REMARK  6 active torsions:
REMARK  status: ('A' for Active; 'I' for Inactive)
REMARK    1  A    between atoms: C_1  and  O_2
REMARK    2  A    between atoms: O_2  and  C_3
REMARK    3  A    between atoms: C_5  and  C_6
REMARK    4  A    between atoms: C_8  and  C_9
REMARK    5  A    between atoms: C_13  and  C_15
REMARK    6  A    between atoms: C_15  and  C_16
REMARK                            x       y       z     vdW  Elec       q    Type
REMARK                         _______ _______ _______ _____ _____    ______ ____
ROOT
ATOM      1  C   UNL     1       6.450   4.976  18.022  0.00  0.00    +0.000 C 
ATOM      2  C   UNL     1       5.577   4.008  18.808  0.00  0.00    +0.000 C 
ATOM      3  C   UNL     1       4.197   4.195  18.167  0.00  0.00    +0.000 C 
ATOM      4  N   UNL     1       4.147   5.649  18.023  0.00  0.00    +0.000 N 
ATOM      5  C   UNL     1       2.998   6.391  17.859  0.00  0.00    +0.000 C 
ATOM      6  O   UNL     1       1.876   5.880  17.893  0.00  0.00    +0.000 OA
ATOM      7  C   UNL     1       5.498   6.152  17.749  0.00  0.00    +0.000 C 
ENDROOT
BRANCH   3   8
ATOM      8  C   UNL     1       3.149   3.546  19.005  0.00  0.00    +0.000 A 
ATOM      9  N   UNL     1       3.015   3.582  20.311  0.00  0.00    +0.000 NA
ATOM     10  C   UNL     1       2.038   2.662  20.570  0.00  0.00    +0.000 A 
ATOM     11  C   UNL     1       1.568   2.370  21.931  0.00  0.00    +0.000 C 
ATOM     12  N   UNL     1       1.562   2.039  19.489  0.00  0.00    +0.000 NA
ATOM     13  N   UNL     1       2.246   2.646  18.506  0.00  0.00    +0.000 N 
ATOM     14  H   UNL     1       2.038   2.436  17.534  0.00  0.00    +0.000 HD
ENDBRANCH   3   8
BRANCH   1  16
ATOM     15  C   UNL     1       6.759   5.303  15.685  0.00  0.00    +0.000 C 
ATOM     16  O   UNL     1       6.881   4.401  16.783  0.00  0.00    +0.000 OA
ENDBRANCH   1  16
BRANCH   5  17
ATOM     17  C   UNL     1       3.150   7.861  17.534  0.00  0.00    +0.000 C 
BRANCH  17  18
ATOM     18  C   UNL     1       2.290   8.866  18.246  0.00  0.00    +0.000 A 
ATOM     19  C   UNL     1       1.924  10.062  17.638  0.00  0.00    +0.000 A 
ATOM     20  N   UNL     1       0.958  10.661  18.394  0.00  0.00    +0.000 N 
ATOM     21  C   UNL     1       0.666   9.870  19.463  0.00  0.00    +0.000 A 
ATOM     22  N   UNL     1      -0.364  10.096  20.298  0.00  0.00    +0.000 NA
ATOM     23  C   UNL     1      -0.421   9.208  21.311  0.00  0.00    +0.000 A 
ATOM     24  C   UNL     1       0.535   8.239  21.580  0.00  0.00    +0.000 A 
ATOM     25  C   UNL     1       1.572   8.029  20.662  0.00  0.00    +0.000 A 
ATOM     26  C   UNL     1       1.601   8.834  19.507  0.00  0.00    +0.000 A 
ATOM     27  H   UNL     1       0.463  11.513  18.179  0.00  0.00    +0.000 HD
ENDBRANCH  17  18
ENDBRANCH   5  17
TORSDOF 4
ENDMDL
MODEL 7
REMARK VINA RESULT:      -7.7      0.925      1.019
REMARK  Name = 
REMARK  6 active torsions:
REMARK  status: ('A' for Active; 'I' for Inactive)
REMARK    1  A    between atoms: C_1  and  O_2
REMARK    2  A    between atoms: O_2  and  C_3
REMARK    3  A    between atoms: C_5  and  C_6
REMARK    4  A    between atoms: C_8  and  C_9
REMARK    5  A    between atoms: C_13  and  C_15
REMARK    6  A    between atoms: C_15  and  C_16
REMARK                            x       y       z     vdW  Elec       q    Type
REMARK                         _______ _______ _______ _____ _____    ______ ____
ROOT
ATOM      1  C   UNL     1       1.854   3.947  19.729  0.00  0.00    +0.000 C 
ATOM      2  C   UNL     1       3.219   3.621  19.140  0.00  0.00    +0.000 C 
ATOM      3  C   UNL     1       3.928   4.981  19.147  0.00  0.00    +0.000 C 
ATOM      4  N   UNL     1       2.855   5.860  18.683  0.00  0.00    +0.000 N 
ATOM      5  C   UNL     1       3.036   7.114  18.143  0.00  0.00    +0.000 C 
ATOM      6  O   UNL     1       4.157   7.583  17.933  0.00  0.00    +0.000 OA
ATOM      7  C   UNL     1       1.570   5.354  19.178  0.00  0.00    +0.000 C 
ENDROOT
BRANCH   3   8
ATOM      8  C   UNL     1       5.172   4.917  18.330  0.00  0.00    +0.000 A 
ATOM      9  N   UNL     1       5.284   4.789  17.027  0.00  0.00    +0.000 NA
ATOM     10  C   UNL     1       6.618   4.571  16.828  0.00  0.00    +0.000 A 
ATOM     11  C   UNL     1       7.194   4.366  15.493  0.00  0.00    +0.000 C 
ATOM     12  N   UNL     1       7.348   4.540  17.945  0.00  0.00    +0.000 NA
ATOM     13  N   UNL     1       6.421   4.807  18.880  0.00  0.00    +0.000 N 
ATOM     14  H   UNL     1       6.696   4.931  19.850  0.00  0.00    +0.000 HD
ENDBRANCH   3   8
BRANCH   1  16
ATOM     15  C   UNL     1       1.906   2.684  21.746  0.00  0.00    +0.000 C 
ATOM     16  O   UNL     1       1.899   3.985  21.160  0.00  0.00    +0.000 OA
ENDBRANCH   1  16
BRANCH   5  17
ATOM     17  C   UNL     1       1.804   7.958  17.895  0.00  0.00    +0.000 C 
BRANCH  17  18
ATOM     18  C   UNL     1       1.548   9.160  18.758  0.00  0.00    +0.000 A 
ATOM     19  C   UNL     1       1.682  10.450  18.256  0.00  0.00    +0.000 A 
ATOM     20  N   UNL     1       1.159  11.329  19.160  0.00  0.00    +0.000 N 
ATOM     21  C   UNL     1       0.661  10.640  20.225  0.00  0.00    +0.000 A 
ATOM     22  N   UNL     1      -0.073  11.205  21.199  0.00  0.00    +0.000 NA
ATOM     23  C   UNL     1      -0.409  10.333  22.172  0.00  0.00    +0.000 A 
ATOM     24  C   UNL     1       0.048   9.027  22.268  0.00  0.00    +0.000 A 
ATOM     25  C   UNL     1       0.789   8.483  21.211  0.00  0.00    +0.000 A 
ATOM     26  C   UNL     1       1.048   9.305  20.098  0.00  0.00    +0.000 A 
ATOM     27  H   UNL     1       1.068  12.328  19.050  0.00  0.00    +0.000 HD
ENDBRANCH  17  18
ENDBRANCH   5  17
TORSDOF 4
ENDMDL
MODEL 8
REMARK VINA RESULT:      -7.6      1.989      4.052
REMARK  Name = 
REMARK  6 active torsions:
REMARK  status: ('A' for Active; 'I' for Inactive)
REMARK    1  A    between atoms: C_1  and  O_2
REMARK    2  A    between atoms: O_2  and  C_3
REMARK    3  A    between atoms: C_5  and  C_6
REMARK    4  A    between atoms: C_8  and  C_9
REMARK    5  A    between atoms: C_13  and  C_15
REMARK    6  A    between atoms: C_15  and  C_16
REMARK                            x       y       z     vdW  Elec       q    Type
REMARK                         _______ _______ _______ _____ _____    ______ ____
ROOT
ATOM      1  C   UNL     1       6.263   6.059  16.302  0.00  0.00    +0.000 C 
ATOM      2  C   UNL     1       6.147   4.766  17.097  0.00  0.00    +0.000 C 
ATOM      3  C   UNL     1       4.631   4.572  17.216  0.00  0.00    +0.000 C 
ATOM      4  N   UNL     1       4.195   5.936  17.513  0.00  0.00    +0.000 N 
ATOM      5  C   UNL     1       2.990   6.276  18.087  0.00  0.00    +0.000 C 
ATOM      6  O   UNL     1       2.185   5.426  18.477  0.00  0.00    +0.000 OA
ATOM      7  C   UNL     1       5.070   6.884  16.815  0.00  0.00    +0.000 C 
ENDROOT
BRANCH   3   8
ATOM      8  C   UNL     1       4.325   3.514  18.220  0.00  0.00    +0.000 A 
ATOM      9  N   UNL     1       4.959   3.248  19.340  0.00  0.00    +0.000 NA
ATOM     10  C   UNL     1       4.408   2.070  19.761  0.00  0.00    +0.000 A 
ATOM     11  C   UNL     1       4.835   1.395  20.994  0.00  0.00    +0.000 C 
ATOM     12  N   UNL     1       3.470   1.575  18.951  0.00  0.00    +0.000 NA
ATOM     13  N   UNL     1       3.400   2.527  18.006  0.00  0.00    +0.000 N 
ATOM     14  H   UNL     1       2.699   2.470  17.274  0.00  0.00    +0.000 HD
ENDBRANCH   3   8
BRANCH   1  16
ATOM     15  C   UNL     1       6.941   4.751  14.433  0.00  0.00    +0.000 C 
ATOM     16  O   UNL     1       6.121   5.822  14.897  0.00  0.00    +0.000 OA
ENDBRANCH   1  16
BRANCH   5  17
ATOM     17  C   UNL     1       2.627   7.744  18.145  0.00  0.00    +0.000 C 
BRANCH  17  18
ATOM     18  C   UNL     1       1.747   8.243  19.255  0.00  0.00    +0.000 A 
ATOM     19  C   UNL     1       1.834   7.713  20.538  0.00  0.00    +0.000 A 
ATOM     20  N   UNL     1       1.113   8.502  21.388  0.00  0.00    +0.000 N 
ATOM     21  C   UNL     1       0.585   9.548  20.695  0.00  0.00    +0.000 A 
ATOM     22  N   UNL     1      -0.028  10.594  21.278  0.00  0.00    +0.000 NA
ATOM     23  C   UNL     1      -0.514  11.479  20.384  0.00  0.00    +0.000 A 
ATOM     24  C   UNL     1      -0.527  11.302  19.009  0.00  0.00    +0.000 A 
ATOM     25  C   UNL     1       0.149  10.207  18.454  0.00  0.00    +0.000 A 
ATOM     26  C   UNL     1       0.802   9.324  19.335  0.00  0.00    +0.000 A 
ATOM     27  H   UNL     1       1.034   8.398  22.389  0.00  0.00    +0.000 HD
ENDBRANCH  17  18
ENDBRANCH   5  17
TORSDOF 4
ENDMDL
MODEL 9
REMARK VINA RESULT:      -7.5      3.556      8.743
REMARK  Name = 
REMARK  6 active torsions:
REMARK  status: ('A' for Active; 'I' for Inactive)
REMARK    1  A    between atoms: C_1  and  O_2
REMARK    2  A    between atoms: O_2  and  C_3
REMARK    3  A    between atoms: C_5  and  C_6
REMARK    4  A    between atoms: C_8  and  C_9
REMARK    5  A    between atoms: C_13  and  C_15
REMARK    6  A    between atoms: C_15  and  C_16
REMARK                            x       y       z     vdW  Elec       q    Type
REMARK                         _______ _______ _______ _____ _____    ______ ____
ROOT
ATOM      1  C   UNL     1       1.394  13.581  19.120  0.00  0.00    +0.000 C 
ATOM      2  C   UNL     1      -0.052  13.641  18.648  0.00  0.00    +0.000 C 
ATOM      3  C   UNL     1      -0.571  12.231  18.954  0.00  0.00    +0.000 C 
ATOM      4  N   UNL     1       0.560  11.414  18.515  0.00  0.00    +0.000 N 
ATOM      5  C   UNL     1       0.497  10.073  18.206  0.00  0.00    +0.000 C 
ATOM      6  O   UNL     1      -0.567   9.449  18.205  0.00  0.00    +0.000 OA
ATOM      7  C   UNL     1       1.808  12.141  18.771  0.00  0.00    +0.000 C 
ENDROOT
BRANCH   3   8
ATOM      8  C   UNL     1      -1.885  12.010  18.286  0.00  0.00    +0.000 A 
ATOM      9  N   UNL     1      -3.045  11.745  18.844  0.00  0.00    +0.000 NA
ATOM     10  C   UNL     1      -3.855  11.428  17.789  0.00  0.00    +0.000 A 
ATOM     11  C   UNL     1      -5.265  11.054  17.961  0.00  0.00    +0.000 C 
ATOM     12  N   UNL     1      -3.255  11.467  16.597  0.00  0.00    +0.000 NA
ATOM     13  N   UNL     1      -2.021  11.882  16.930  0.00  0.00    +0.000 N 
ATOM     14  H   UNL     1      -1.339  12.088  16.207  0.00  0.00    +0.000 HD
ENDBRANCH   3   8
BRANCH   1  16
ATOM     15  C   UNL     1       2.838  13.928  20.980  0.00  0.00    +0.000 C 
ATOM     16  O   UNL     1       1.490  13.786  20.534  0.00  0.00    +0.000 OA
ENDBRANCH   1  16
BRANCH   5  17
ATOM     17  C   UNL     1       1.800   9.346  17.955  0.00  0.00    +0.000 C 
BRANCH  17  18
ATOM     18  C   UNL     1       2.176   8.183  18.829  0.00  0.00    +0.000 A 
ATOM     19  C   UNL     1       1.739   8.100  20.147  0.00  0.00    +0.000 A 
ATOM     20  N   UNL     1       2.012   6.849  20.621  0.00  0.00    +0.000 N 
ATOM     21  C   UNL     1       2.587   6.107  19.635  0.00  0.00    +0.000 A 
ATOM     22  N   UNL     1       2.812   4.786  19.733  0.00  0.00    +0.000 NA
ATOM     23  C   UNL     1       3.438   4.280  18.651  0.00  0.00    +0.000 A 
ATOM     24  C   UNL     1       3.938   5.028  17.594  0.00  0.00    +0.000 A 
ATOM     25  C   UNL     1       3.651   6.397  17.531  0.00  0.00    +0.000 A 
ATOM     26  C   UNL     1       2.873   6.955  18.563  0.00  0.00    +0.000 A 
ATOM     27  H   UNL     1       1.764   6.479  21.526  0.00  0.00    +0.000 HD
ENDBRANCH  17  18
ENDBRANCH   5  17
TORSDOF 4
ENDMDL
