MODEL 1
REMARK VINA RESULT:      -8.8      0.000      0.000
REMARK  Name = 
REMARK  6 active torsions:
REMARK  status: ('A' for Active; 'I' for Inactive)
REMARK    1  A    between atoms: C_2  and  C_19
REMARK    2  A    between atoms: N_3  and  C_4
REMARK    3  A    between atoms: C_4  and  C_5
REMARK    4  A    between atoms: C_8  and  O_9
REMARK    5  A    between atoms: O_9  and  C_10
REMARK    6  A    between atoms: C_10  and  C_11
REMARK                            x       y       z     vdW  Elec       q    Type
REMARK                         _______ _______ _______ _____ _____    ______ ____
ROOT
ATOM      1  O   UNL     1       4.941   4.291  15.813  0.00  0.00    +0.000 OA
ATOM      2  C   UNL     1       4.626   4.400  16.993  0.00  0.00    +0.000 C 
ATOM      3  N   UNL     1       5.505   4.192  18.036  0.00  0.00    +0.000 N 
ATOM      4  H   UNL     1       5.212   4.434  18.972  0.00  0.00    +0.000 HD
ENDROOT
BRANCH   2   5
ATOM      5  C   UNL     1       3.335   5.030  17.435  0.00  0.00    +0.000 A 
ATOM      6  C   UNL     1       3.391   6.371  17.406  0.00  0.00    +0.000 A 
ATOM      7  N   UNL     1       2.860   7.119  18.434  0.00  0.00    +0.000 N 
ATOM      8  C   UNL     1       2.438   6.548  19.620  0.00  0.00    +0.000 A 
ATOM      9  O   UNL     1       2.324   7.195  20.658  0.00  0.00    +0.000 OA
ATOM     10  C   UNL     1       2.101   5.103  19.559  0.00  0.00    +0.000 A 
ATOM     11  C   UNL     1       1.429   4.481  20.608  0.00  0.00    +0.000 A 
ATOM     12  C   UNL     1       0.931   3.188  20.432  0.00  0.00    +0.000 A 
ATOM     13  C   UNL     1       1.095   2.535  19.211  0.00  0.00    +0.000 A 
ATOM     14  C   UNL     1       1.844   3.132  18.185  0.00  0.00    +0.000 A 
ATOM     15  C   UNL     1       2.395   4.406  18.383  0.00  0.00    +0.000 A 
ATOM     16  H   UNL     1       3.066   8.110  18.478  0.00  0.00    +0.000 HD
ENDBRANCH   2   5
BRANCH   3  17
ATOM     17  C   UNL     1       6.926   4.289  17.809  0.00  0.00    +0.000 C 
BRANCH  17  18
ATOM     18  C   UNL     1       7.374   5.721  17.932  0.00  0.00    +0.000 A 
ATOM     19  C   UNL     1       7.154   6.621  16.886  0.00  0.00    +0.000 A 
ATOM     20  C   UNL     1       7.553   7.954  17.007  0.00  0.00    +0.000 A 
ATOM     21  C   UNL     1       8.177   8.402  18.172  0.00  0.00    +0.000 A 
ATOM     22  C   UNL     1       8.473   7.491  19.186  0.00  0.00    +0.000 A 
ATOM     23  C   UNL     1       8.067   6.158  19.069  0.00  0.00    +0.000 A 
BRANCH  21  24
ATOM     24  O   UNL     1       8.449   9.741  18.215  0.00  0.00    +0.000 OA
BRANCH  24  25
ATOM     25  C   UNL     1       9.237  10.167  19.332  0.00  0.00    +0.000 C 
BRANCH  25  26
ATOM     26  C   UNL     1       9.995  11.425  18.983  0.00  0.00    +0.000 A 
ATOM     27  C   UNL     1      10.712  11.501  17.790  0.00  0.00    +0.000 A 
ATOM     28  C   UNL     1      11.357  12.689  17.466  0.00  0.00    +0.000 A 
ATOM     29  C   UNL     1      11.264  13.767  18.333  0.00  0.00    +0.000 A 
ATOM     30  C   UNL     1      10.529  13.613  19.502  0.00  0.00    +0.000 A 
ATOM     31  N   UNL     1       9.893  12.476  19.838  0.00  0.00    +0.000 NA
ENDBRANCH  25  26
ENDBRANCH  24  25
ENDBRANCH  21  24
ENDBRANCH  17  18
ENDBRANCH   3  17
TORSDOF 6
ENDMDL
MODEL 2
REMARK VINA RESULT:      -8.8      1.984     10.093
REMARK  Name = 
REMARK  6 active torsions:
REMARK  status: ('A' for Active; 'I' for Inactive)
REMARK    1  A    between atoms: C_2  and  C_19
REMARK    2  A    between atoms: N_3  and  C_4
REMARK    3  A    between atoms: C_4  and  C_5
REMARK    4  A    between atoms: C_8  and  O_9
REMARK    5  A    between atoms: O_9  and  C_10
REMARK    6  A    between atoms: C_10  and  C_11
REMARK                            x       y       z     vdW  Elec       q    Type
REMARK                         _______ _______ _______ _____ _____    ______ ____
ROOT
ATOM      1  O   UNL     1       8.192  11.231  17.448  0.00  0.00    +0.000 OA
ATOM      2  C   UNL     1       8.718  10.533  18.308  0.00  0.00    +0.000 C 
ATOM      3  N   UNL     1       8.489   9.178  18.430  0.00  0.00    +0.000 N 
ATOM      4  H   UNL     1       9.061   8.646  19.072  0.00  0.00    +0.000 HD
ENDROOT
BRANCH   2   5
ATOM      5  C   UNL     1       9.867  11.010  19.151  0.00  0.00    +0.000 A 
ATOM      6  C   UNL     1       9.640  10.835  20.462  0.00  0.00    +0.000 A 
ATOM      7  N   UNL     1       9.969  11.819  21.370  0.00  0.00    +0.000 N 
ATOM      8  C   UNL     1      10.345  13.090  20.976  0.00  0.00    +0.000 A 
ATOM      9  O   UNL     1      10.275  14.059  21.727  0.00  0.00    +0.000 OA
ATOM     10  C   UNL     1      10.872  13.209  19.593  0.00  0.00    +0.000 A 
ATOM     11  C   UNL     1      11.517  14.369  19.172  0.00  0.00    +0.000 A 
ATOM     12  C   UNL     1      12.192  14.372  17.950  0.00  0.00    +0.000 A 
ATOM     13  C   UNL     1      12.233  13.217  17.169  0.00  0.00    +0.000 A 
ATOM     14  C   UNL     1      11.514  12.076  17.557  0.00  0.00    +0.000 A 
ATOM     15  C   UNL     1      10.786  12.093  18.755  0.00  0.00    +0.000 A 
ATOM     16  H   UNL     1       9.631  11.741  22.322  0.00  0.00    +0.000 HD
ENDBRANCH   2   5
BRANCH   3  17
ATOM     17  C   UNL     1       8.000   8.426  17.301  0.00  0.00    +0.000 C 
BRANCH  17  18
ATOM     18  C   UNL     1       7.330   7.162  17.771  0.00  0.00    +0.000 A 
ATOM     19  C   UNL     1       6.122   6.751  17.202  0.00  0.00    +0.000 A 
ATOM     20  C   UNL     1       5.509   5.569  17.624  0.00  0.00    +0.000 A 
ATOM     21  C   UNL     1       6.095   4.786  18.620  0.00  0.00    +0.000 A 
ATOM     22  C   UNL     1       7.257   5.233  19.250  0.00  0.00    +0.000 A 
ATOM     23  C   UNL     1       7.875   6.413  18.822  0.00  0.00    +0.000 A 
BRANCH  21  24
ATOM     24  O   UNL     1       5.454   3.611  18.897  0.00  0.00    +0.000 OA
BRANCH  24  25
ATOM     25  C   UNL     1       4.664   3.615  20.091  0.00  0.00    +0.000 C 
BRANCH  25  26
ATOM     26  C   UNL     1       3.221   3.319  19.759  0.00  0.00    +0.000 A 
ATOM     27  C   UNL     1       2.200   4.050  20.365  0.00  0.00    +0.000 A 
ATOM     28  C   UNL     1       0.883   3.796  20.002  0.00  0.00    +0.000 A 
ATOM     29  C   UNL     1       0.619   2.829  19.044  0.00  0.00    +0.000 A 
ATOM     30  C   UNL     1       1.691   2.144  18.485  0.00  0.00    +0.000 A 
ATOM     31  N   UNL     1       2.976   2.373  18.816  0.00  0.00    +0.000 NA
ENDBRANCH  25  26
ENDBRANCH  24  25
ENDBRANCH  21  24
ENDBRANCH  17  18
ENDBRANCH   3  17
TORSDOF 6
ENDMDL
MODEL 3
REMARK VINA RESULT:      -8.7      4.331      8.393
REMARK  Name = 
REMARK  6 active torsions:
REMARK  status: ('A' for Active; 'I' for Inactive)
REMARK    1  A    between atoms: C_2  and  C_19
REMARK    2  A    between atoms: N_3  and  C_4
REMARK    3  A    between atoms: C_4  and  C_5
REMARK    4  A    between atoms: C_8  and  O_9
REMARK    5  A    between atoms: O_9  and  C_10
REMARK    6  A    between atoms: C_10  and  C_11
REMARK                            x       y       z     vdW  Elec       q    Type
REMARK                         _______ _______ _______ _____ _____    ______ ____
ROOT
ATOM      1  O   UNL     1       3.929   3.663  19.745  0.00  0.00    +0.000 OA
ATOM      2  C   UNL     1       4.322   4.602  19.061  0.00  0.00    +0.000 C 
ATOM      3  N   UNL     1       3.630   5.790  18.937  0.00  0.00    +0.000 N 
ATOM      4  H   UNL     1       4.080   6.566  18.471  0.00  0.00    +0.000 HD
ENDROOT
BRANCH   2   5
ATOM      5  C   UNL     1       5.715   4.676  18.503  0.00  0.00    +0.000 A 
ATOM      6  C   UNL     1       6.537   5.391  19.288  0.00  0.00    +0.000 A 
ATOM      7  N   UNL     1       7.426   6.289  18.741  0.00  0.00    +0.000 N 
ATOM      8  C   UNL     1       7.381   6.653  17.408  0.00  0.00    +0.000 A 
ATOM      9  O   UNL     1       7.887   7.692  16.991  0.00  0.00    +0.000 OA
ATOM     10  C   UNL     1       6.707   5.693  16.497  0.00  0.00    +0.000 A 
ATOM     11  C   UNL     1       6.820   5.818  15.116  0.00  0.00    +0.000 A 
ATOM     12  C   UNL     1       6.366   4.785  14.294  0.00  0.00    +0.000 A 
ATOM     13  C   UNL     1       5.819   3.632  14.857  0.00  0.00    +0.000 A 
ATOM     14  C   UNL     1       5.631   3.544  16.245  0.00  0.00    +0.000 A 
ATOM     15  C   UNL     1       6.032   4.609  17.065  0.00  0.00    +0.000 A 
ATOM     16  H   UNL     1       7.908   6.939  19.352  0.00  0.00    +0.000 HD
ENDBRANCH   2   5
BRANCH   3  17
ATOM     17  C   UNL     1       2.669   6.171  19.942  0.00  0.00    +0.000 C 
BRANCH  17  18
ATOM     18  C   UNL     1       2.045   7.495  19.587  0.00  0.00    +0.000 A 
ATOM     19  C   UNL     1       2.225   8.040  18.313  0.00  0.00    +0.000 A 
ATOM     20  C   UNL     1       1.632   9.260  17.978  0.00  0.00    +0.000 A 
ATOM     21  C   UNL     1       0.855   9.948  18.910  0.00  0.00    +0.000 A 
ATOM     22  C   UNL     1       0.741   9.451  20.209  0.00  0.00    +0.000 A 
ATOM     23  C   UNL     1       1.328   8.226  20.543  0.00  0.00    +0.000 A 
BRANCH  21  24
ATOM     24  O   UNL     1       0.256  11.088  18.450  0.00  0.00    +0.000 OA
BRANCH  24  25
ATOM     25  C   UNL     1      -0.860  11.544  19.222  0.00  0.00    +0.000 C 
BRANCH  25  26
ATOM     26  C   UNL     1      -2.122  11.484  18.396  0.00  0.00    +0.000 A 
ATOM     27  C   UNL     1      -2.082  10.990  17.093  0.00  0.00    +0.000 A 
ATOM     28  C   UNL     1      -3.266  10.894  16.372  0.00  0.00    +0.000 A 
ATOM     29  C   UNL     1      -4.455  11.285  16.969  0.00  0.00    +0.000 A 
ATOM     30  C   UNL     1      -4.413  11.765  18.272  0.00  0.00    +0.000 A 
ATOM     31  N   UNL     1      -3.280  11.865  18.993  0.00  0.00    +0.000 NA
ENDBRANCH  25  26
ENDBRANCH  24  25
ENDBRANCH  21  24
ENDBRANCH  17  18
ENDBRANCH   3  17
TORSDOF 6
ENDMDL
MODEL 4
REMARK VINA RESULT:      -8.5      2.106      9.973
REMARK  Name = 
REMARK  6 active torsions:
REMARK  status: ('A' for Active; 'I' for Inactive)
REMARK    1  A    between atoms: C_2  and  C_19
REMARK    2  A    between atoms: N_3  and  C_4
REMARK    3  A    between atoms: C_4  and  C_5
REMARK    4  A    between atoms: C_8  and  O_9
REMARK    5  A    between atoms: O_9  and  C_10
REMARK    6  A    between atoms: C_10  and  C_11
REMARK                            x       y       z     vdW  Elec       q    Type
REMARK                         _______ _______ _______ _____ _____    ______ ____
ROOT
ATOM      1  O   UNL     1       8.128  11.390  17.363  0.00  0.00    +0.000 OA
ATOM      2  C   UNL     1       8.610  10.771  18.305  0.00  0.00    +0.000 C 
ATOM      3  N   UNL     1       8.463   9.410  18.475  0.00  0.00    +0.000 N 
ATOM      4  H   UNL     1       9.002   8.950  19.196  0.00  0.00    +0.000 HD
ENDROOT
BRANCH   2   5
ATOM      5  C   UNL     1       9.634  11.368  19.230  0.00  0.00    +0.000 A 
ATOM      6  C   UNL     1       9.623  10.785  20.439  0.00  0.00    +0.000 A 
ATOM      7  N   UNL     1       9.720  11.543  21.586  0.00  0.00    +0.000 N 
ATOM      8  C   UNL     1       9.624  12.922  21.569  0.00  0.00    +0.000 A 
ATOM      9  O   UNL     1       9.333  13.574  22.567  0.00  0.00    +0.000 OA
ATOM     10  C   UNL     1       9.926  13.575  20.270  0.00  0.00    +0.000 A 
ATOM     11  C   UNL     1      10.114  14.952  20.189  0.00  0.00    +0.000 A 
ATOM     12  C   UNL     1      10.612  15.509  19.009  0.00  0.00    +0.000 A 
ATOM     13  C   UNL     1      10.931  14.687  17.928  0.00  0.00    +0.000 A 
ATOM     14  C   UNL     1      10.664  13.310  17.983  0.00  0.00    +0.000 A 
ATOM     15  C   UNL     1      10.107  12.761  19.148  0.00  0.00    +0.000 A 
ATOM     16  H   UNL     1       9.535  11.105  22.481  0.00  0.00    +0.000 HD
ENDBRANCH   2   5
BRANCH   3  17
ATOM     17  C   UNL     1       8.141   8.575  17.344  0.00  0.00    +0.000 C 
BRANCH  17  18
ATOM     18  C   UNL     1       7.472   7.309  17.807  0.00  0.00    +0.000 A 
ATOM     19  C   UNL     1       7.953   6.626  18.928  0.00  0.00    +0.000 A 
ATOM     20  C   UNL     1       7.322   5.461  19.369  0.00  0.00    +0.000 A 
ATOM     21  C   UNL     1       6.205   4.964  18.696  0.00  0.00    +0.000 A 
ATOM     22  C   UNL     1       5.770   5.594  17.530  0.00  0.00    +0.000 A 
ATOM     23  C   UNL     1       6.397   6.765  17.091  0.00  0.00    +0.000 A 
BRANCH  21  24
ATOM     24  O   UNL     1       5.617   3.867  19.262  0.00  0.00    +0.000 OA
BRANCH  24  25
ATOM     25  C   UNL     1       4.457   3.379  18.582  0.00  0.00    +0.000 C 
BRANCH  25  26
ATOM     26  C   UNL     1       3.287   3.308  19.534  0.00  0.00    +0.000 A 
ATOM     27  C   UNL     1       2.067   3.886  19.186  0.00  0.00    +0.000 A 
ATOM     28  C   UNL     1       0.990   3.760  20.056  0.00  0.00    +0.000 A 
ATOM     29  C   UNL     1       1.155   3.059  21.241  0.00  0.00    +0.000 A 
ATOM     30  C   UNL     1       2.402   2.511  21.515  0.00  0.00    +0.000 A 
ATOM     31  N   UNL     1       3.460   2.615  20.689  0.00  0.00    +0.000 NA
ENDBRANCH  25  26
ENDBRANCH  24  25
ENDBRANCH  21  24
ENDBRANCH  17  18
ENDBRANCH   3  17
TORSDOF 6
ENDMDL
MODEL 5
REMARK VINA RESULT:      -8.5      5.011      8.208
REMARK  Name = 
REMARK  6 active torsions:
REMARK  status: ('A' for Active; 'I' for Inactive)
REMARK    1  A    between atoms: C_2  and  C_19
REMARK    2  A    between atoms: N_3  and  C_4
REMARK    3  A    between atoms: C_4  and  C_5
REMARK    4  A    between atoms: C_8  and  O_9
REMARK    5  A    between atoms: O_9  and  C_10
REMARK    6  A    between atoms: C_10  and  C_11
REMARK                            x       y       z     vdW  Elec       q    Type
REMARK                         _______ _______ _______ _____ _____    ______ ____
ROOT
ATOM      1  O   UNL     1       4.391   6.324  16.923  0.00  0.00    +0.000 OA
ATOM      2  C   UNL     1       4.029   6.357  18.094  0.00  0.00    +0.000 C 
ATOM      3  N   UNL     1       3.278   7.385  18.627  0.00  0.00    +0.000 N 
ATOM      4  H   UNL     1       2.901   7.277  19.558  0.00  0.00    +0.000 HD
ENDROOT
BRANCH   2   5
ATOM      5  C   UNL     1       4.123   5.168  19.008  0.00  0.00    +0.000 A 
ATOM      6  C   UNL     1       5.249   4.466  18.808  0.00  0.00    +0.000 A 
ATOM      7  N   UNL     1       5.223   3.088  18.782  0.00  0.00    +0.000 N 
ATOM      8  C   UNL     1       4.039   2.374  18.750  0.00  0.00    +0.000 A 
ATOM      9  O   UNL     1       3.982   1.212  18.355  0.00  0.00    +0.000 OA
ATOM     10  C   UNL     1       2.839   3.087  19.253  0.00  0.00    +0.000 A 
ATOM     11  C   UNL     1       1.655   2.401  19.510  0.00  0.00    +0.000 A 
ATOM     12  C   UNL     1       0.620   3.050  20.187  0.00  0.00    +0.000 A 
ATOM     13  C   UNL     1       0.780   4.368  20.613  0.00  0.00    +0.000 A 
ATOM     14  C   UNL     1       1.941   5.083  20.281  0.00  0.00    +0.000 A 
ATOM     15  C   UNL     1       2.956   4.449  19.548  0.00  0.00    +0.000 A 
ATOM     16  H   UNL     1       6.042   2.587  18.458  0.00  0.00    +0.000 HD
ENDBRANCH   2   5
BRANCH   3  17
ATOM     17  C   UNL     1       2.496   8.231  17.759  0.00  0.00    +0.000 C 
BRANCH  17  18
ATOM     18  C   UNL     1       1.488   9.008  18.562  0.00  0.00    +0.000 A 
ATOM     19  C   UNL     1       1.406   8.837  19.947  0.00  0.00    +0.000 A 
ATOM     20  C   UNL     1       0.484   9.571  20.695  0.00  0.00    +0.000 A 
ATOM     21  C   UNL     1      -0.367  10.484  20.070  0.00  0.00    +0.000 A 
ATOM     22  C   UNL     1      -0.347  10.599  18.680  0.00  0.00    +0.000 A 
ATOM     23  C   UNL     1       0.581   9.869  17.930  0.00  0.00    +0.000 A 
BRANCH  21  24
ATOM     24  O   UNL     1      -1.170  11.207  20.907  0.00  0.00    +0.000 OA
BRANCH  24  25
ATOM     25  C   UNL     1      -0.704  11.315  22.256  0.00  0.00    +0.000 C 
BRANCH  25  26
ATOM     26  C   UNL     1      -1.484  12.378  22.992  0.00  0.00    +0.000 A 
ATOM     27  C   UNL     1      -2.825  12.165  23.311  0.00  0.00    +0.000 A 
ATOM     28  C   UNL     1      -3.506  13.135  24.036  0.00  0.00    +0.000 A 
ATOM     29  C   UNL     1      -2.835  14.283  24.429  0.00  0.00    +0.000 A 
ATOM     30  C   UNL     1      -1.499  14.420  24.074  0.00  0.00    +0.000 A 
ATOM     31  N   UNL     1      -0.814  13.495  23.375  0.00  0.00    +0.000 NA
ENDBRANCH  25  26
ENDBRANCH  24  25
ENDBRANCH  21  24
ENDBRANCH  17  18
ENDBRANCH   3  17
TORSDOF 6
ENDMDL
MODEL 6
REMARK VINA RESULT:      -8.4      4.128      7.213
REMARK  Name = 
REMARK  6 active torsions:
REMARK  status: ('A' for Active; 'I' for Inactive)
REMARK    1  A    between atoms: C_2  and  C_19
REMARK    2  A    between atoms: N_3  and  C_4
REMARK    3  A    between atoms: C_4  and  C_5
REMARK    4  A    between atoms: C_8  and  O_9
REMARK    5  A    between atoms: O_9  and  C_10
REMARK    6  A    between atoms: C_10  and  C_11
REMARK                            x       y       z     vdW  Elec       q    Type
REMARK                         _______ _______ _______ _____ _____    ______ ____
ROOT
ATOM      1  O   UNL     1      -0.710   8.582  22.026  0.00  0.00    +0.000 OA
ATOM      2  C   UNL     1       0.238   9.057  21.409  0.00  0.00    +0.000 C 
ATOM      3  N   UNL     1       1.382   8.346  21.112  0.00  0.00    +0.000 N 
ATOM      4  H   UNL     1       2.059   8.757  20.484  0.00  0.00    +0.000 HD
ENDROOT
BRANCH   2   5
ATOM      5  C   UNL     1       0.157  10.366  20.675  0.00  0.00    +0.000 A 
ATOM      6  C   UNL     1       0.393  11.413  21.482  0.00  0.00    +0.000 A 
ATOM      7  N   UNL     1      -0.380  12.551  21.401  0.00  0.00    +0.000 N 
ATOM      8  C   UNL     1      -1.543  12.601  20.655  0.00  0.00    +0.000 A 
ATOM      9  O   UNL     1      -2.421  13.435  20.859  0.00  0.00    +0.000 OA
ATOM     10  C   UNL     1      -1.656  11.599  19.565  0.00  0.00    +0.000 A 
ATOM     11  C   UNL     1      -2.646  11.710  18.592  0.00  0.00    +0.000 A 
ATOM     12  C   UNL     1      -2.594  10.889  17.464  0.00  0.00    +0.000 A 
ATOM     13  C   UNL     1      -1.548   9.979  17.308  0.00  0.00    +0.000 A 
ATOM     14  C   UNL     1      -0.598   9.812  18.328  0.00  0.00    +0.000 A 
ATOM     15  C   UNL     1      -0.687  10.595  19.488  0.00  0.00    +0.000 A 
ATOM     16  H   UNL     1      -0.300  13.252  22.129  0.00  0.00    +0.000 HD
ENDBRANCH   2   5
BRANCH   3  17
ATOM     17  C   UNL     1       1.350   6.904  21.096  0.00  0.00    +0.000 C 
BRANCH  17  18
ATOM     18  C   UNL     1       2.135   6.381  19.922  0.00  0.00    +0.000 A 
ATOM     19  C   UNL     1       2.492   5.032  19.857  0.00  0.00    +0.000 A 
ATOM     20  C   UNL     1       3.205   4.542  18.761  0.00  0.00    +0.000 A 
ATOM     21  C   UNL     1       3.569   5.394  17.717  0.00  0.00    +0.000 A 
ATOM     22  C   UNL     1       3.288   6.757  17.815  0.00  0.00    +0.000 A 
ATOM     23  C   UNL     1       2.568   7.247  18.910  0.00  0.00    +0.000 A 
BRANCH  21  24
ATOM     24  O   UNL     1       4.190   4.794  16.658  0.00  0.00    +0.000 OA
BRANCH  24  25
ATOM     25  C   UNL     1       5.423   4.135  16.967  0.00  0.00    +0.000 C 
BRANCH  25  26
ATOM     26  C   UNL     1       6.413   5.125  17.532  0.00  0.00    +0.000 A 
ATOM     27  C   UNL     1       6.710   6.294  16.831  0.00  0.00    +0.000 A 
ATOM     28  C   UNL     1       7.583   7.215  17.397  0.00  0.00    +0.000 A 
ATOM     29  C   UNL     1       8.129   6.952  18.644  0.00  0.00    +0.000 A 
ATOM     30  C   UNL     1       7.782   5.766  19.280  0.00  0.00    +0.000 A 
ATOM     31  N   UNL     1       6.937   4.859  18.756  0.00  0.00    +0.000 NA
ENDBRANCH  25  26
ENDBRANCH  24  25
ENDBRANCH  21  24
ENDBRANCH  17  18
ENDBRANCH   3  17
TORSDOF 6
ENDMDL
MODEL 7
REMARK VINA RESULT:      -8.3      0.785      1.014
REMARK  Name = 
REMARK  6 active torsions:
REMARK  status: ('A' for Active; 'I' for Inactive)
REMARK    1  A    between atoms: C_2  and  C_19
REMARK    2  A    between atoms: N_3  and  C_4
REMARK    3  A    between atoms: C_4  and  C_5
REMARK    4  A    between atoms: C_8  and  O_9
REMARK    5  A    between atoms: O_9  and  C_10
REMARK    6  A    between atoms: C_10  and  C_11
REMARK                            x       y       z     vdW  Elec       q    Type
REMARK                         _______ _______ _______ _____ _____    ______ ____
ROOT
ATOM      1  O   UNL     1       4.991   3.953  15.928  0.00  0.00    +0.000 OA
ATOM      2  C   UNL     1       4.691   4.240  17.082  0.00  0.00    +0.000 C 
ATOM      3  N   UNL     1       5.600   4.260  18.119  0.00  0.00    +0.000 N 
ATOM      4  H   UNL     1       5.311   4.639  19.010  0.00  0.00    +0.000 HD
ENDROOT
BRANCH   2   5
ATOM      5  C   UNL     1       3.372   4.861  17.449  0.00  0.00    +0.000 A 
ATOM      6  C   UNL     1       3.443   6.200  17.507  0.00  0.00    +0.000 A 
ATOM      7  N   UNL     1       2.831   6.892  18.529  0.00  0.00    +0.000 N 
ATOM      8  C   UNL     1       2.303   6.257  19.638  0.00  0.00    +0.000 A 
ATOM      9  O   UNL     1       2.105   6.841  20.699  0.00  0.00    +0.000 OA
ATOM     10  C   UNL     1       1.960   4.823  19.460  0.00  0.00    +0.000 A 
ATOM     11  C   UNL     1       1.194   4.149  20.407  0.00  0.00    +0.000 A 
ATOM     12  C   UNL     1       0.703   2.875  20.111  0.00  0.00    +0.000 A 
ATOM     13  C   UNL     1       0.966   2.295  18.870  0.00  0.00    +0.000 A 
ATOM     14  C   UNL     1       1.806   2.941  17.951  0.00  0.00    +0.000 A 
ATOM     15  C   UNL     1       2.348   4.194  18.273  0.00  0.00    +0.000 A 
ATOM     16  H   UNL     1       3.041   7.876  18.651  0.00  0.00    +0.000 HD
ENDBRANCH   2   5
BRANCH   3  17
ATOM     17  C   UNL     1       7.008   4.400  17.840  0.00  0.00    +0.000 C 
BRANCH  17  18
ATOM     18  C   UNL     1       7.428   5.837  17.993  0.00  0.00    +0.000 A 
ATOM     19  C   UNL     1       7.101   6.776  17.012  0.00  0.00    +0.000 A 
ATOM     20  C   UNL     1       7.475   8.114  17.162  0.00  0.00    +0.000 A 
ATOM     21  C   UNL     1       8.179   8.528  18.293  0.00  0.00    +0.000 A 
ATOM     22  C   UNL     1       8.580   7.581  19.236  0.00  0.00    +0.000 A 
ATOM     23  C   UNL     1       8.200   6.243  19.090  0.00  0.00    +0.000 A 
BRANCH  21  24
ATOM     24  O   UNL     1       8.420   9.871  18.377  0.00  0.00    +0.000 OA
BRANCH  24  25
ATOM     25  C   UNL     1       9.758  10.228  18.740  0.00  0.00    +0.000 C 
BRANCH  25  26
ATOM     26  C   UNL     1       9.823  11.690  19.112  0.00  0.00    +0.000 A 
ATOM     27  C   UNL     1      10.346  12.075  20.346  0.00  0.00    +0.000 A 
ATOM     28  C   UNL     1      10.445  13.429  20.642  0.00  0.00    +0.000 A 
ATOM     29  C   UNL     1      10.029  14.359  19.703  0.00  0.00    +0.000 A 
ATOM     30  C   UNL     1       9.521  13.897  18.495  0.00  0.00    +0.000 A 
ATOM     31  N   UNL     1       9.416  12.592  18.181  0.00  0.00    +0.000 NA
ENDBRANCH  25  26
ENDBRANCH  24  25
ENDBRANCH  21  24
ENDBRANCH  17  18
ENDBRANCH   3  17
TORSDOF 6
ENDMDL
MODEL 8
REMARK VINA RESULT:      -8.3      4.004      8.250
REMARK  Name = 
REMARK  6 active torsions:
REMARK  status: ('A' for Active; 'I' for Inactive)
REMARK    1  A    between atoms: C_2  and  C_19
REMARK    2  A    between atoms: N_3  and  C_4
REMARK    3  A    between atoms: C_4  and  C_5
REMARK    4  A    between atoms: C_8  and  O_9
REMARK    5  A    between atoms: O_9  and  C_10
REMARK    6  A    between atoms: C_10  and  C_11
REMARK                            x       y       z     vdW  Elec       q    Type
REMARK                         _______ _______ _______ _____ _____    ______ ____
ROOT
ATOM      1  O   UNL     1       3.452   3.670  19.027  0.00  0.00    +0.000 OA
ATOM      2  C   UNL     1       4.045   4.669  18.636  0.00  0.00    +0.000 C 
ATOM      3  N   UNL     1       3.540   5.947  18.755  0.00  0.00    +0.000 N 
ATOM      4  H   UNL     1       4.142   6.729  18.538  0.00  0.00    +0.000 HD
ENDROOT
BRANCH   2   5
ATOM      5  C   UNL     1       5.493   4.649  18.232  0.00  0.00    +0.000 A 
ATOM      6  C   UNL     1       6.270   5.311  19.104  0.00  0.00    +0.000 A 
ATOM      7  N   UNL     1       7.271   6.147  18.659  0.00  0.00    +0.000 N 
ATOM      8  C   UNL     1       7.394   6.508  17.330  0.00  0.00    +0.000 A 
ATOM      9  O   UNL     1       8.009   7.509  16.974  0.00  0.00    +0.000 OA
ATOM     10  C   UNL     1       6.761   5.590  16.349  0.00  0.00    +0.000 A 
ATOM     11  C   UNL     1       7.032   5.702  14.988  0.00  0.00    +0.000 A 
ATOM     12  C   UNL     1       6.602   4.697  14.119  0.00  0.00    +0.000 A 
ATOM     13  C   UNL     1       5.923   3.585  14.616  0.00  0.00    +0.000 A 
ATOM     14  C   UNL     1       5.580   3.515  15.975  0.00  0.00    +0.000 A 
ATOM     15  C   UNL     1       5.959   4.554  16.837  0.00  0.00    +0.000 A 
ATOM     16  H   UNL     1       7.725   6.766  19.321  0.00  0.00    +0.000 HD
ENDBRANCH   2   5
BRANCH   3  17
ATOM     17  C   UNL     1       2.524   6.230  19.739  0.00  0.00    +0.000 C 
BRANCH  17  18
ATOM     18  C   UNL     1       1.982   7.620  19.540  0.00  0.00    +0.000 A 
ATOM     19  C   UNL     1       1.329   8.279  20.585  0.00  0.00    +0.000 A 
ATOM     20  C   UNL     1       0.842   9.576  20.406  0.00  0.00    +0.000 A 
ATOM     21  C   UNL     1       1.000  10.228  19.183  0.00  0.00    +0.000 A 
ATOM     22  C   UNL     1       1.577   9.546  18.111  0.00  0.00    +0.000 A 
ATOM     23  C   UNL     1       2.071   8.250  18.292  0.00  0.00    +0.000 A 
BRANCH  21  24
ATOM     24  O   UNL     1       0.559  11.522  19.145  0.00  0.00    +0.000 OA
BRANCH  24  25
ATOM     25  C   UNL     1      -0.826  11.703  19.455  0.00  0.00    +0.000 C 
BRANCH  25  26
ATOM     26  C   UNL     1      -1.684  11.155  18.340  0.00  0.00    +0.000 A 
ATOM     27  C   UNL     1      -2.415   9.983  18.532  0.00  0.00    +0.000 A 
ATOM     28  C   UNL     1      -3.239   9.528  17.509  0.00  0.00    +0.000 A 
ATOM     29  C   UNL     1      -3.319  10.254  16.331  0.00  0.00    +0.000 A 
ATOM     30  C   UNL     1      -2.561  11.413  16.217  0.00  0.00    +0.000 A 
ATOM     31  N   UNL     1      -1.757  11.877  17.193  0.00  0.00    +0.000 NA
ENDBRANCH  25  26
ENDBRANCH  24  25
ENDBRANCH  21  24
ENDBRANCH  17  18
ENDBRANCH   3  17
TORSDOF 6
ENDMDL
MODEL 9
REMARK VINA RESULT:      -8.3      5.022      7.777
REMARK  Name = 
REMARK  6 active torsions:
REMARK  status: ('A' for Active; 'I' for Inactive)
REMARK    1  A    between atoms: C_2  and  C_19
REMARK    2  A    between atoms: N_3  and  C_4
REMARK    3  A    between atoms: C_4  and  C_5
REMARK    4  A    between atoms: C_8  and  O_9
REMARK    5  A    between atoms: O_9  and  C_10
REMARK    6  A    between atoms: C_10  and  C_11
REMARK                            x       y       z     vdW  Elec       q    Type
REMARK                         _______ _______ _______ _____ _____    ______ ____
ROOT
ATOM      1  O   UNL     1      -0.616   8.117  21.520  0.00  0.00    +0.000 OA
ATOM      2  C   UNL     1       0.295   8.820  21.095  0.00  0.00    +0.000 C 
ATOM      3  N   UNL     1       1.543   8.330  20.770  0.00  0.00    +0.000 N 
ATOM      4  H   UNL     1       2.195   8.940  20.297  0.00  0.00    +0.000 HD
ENDROOT
BRANCH   2   5
ATOM      5  C   UNL     1       0.081  10.231  20.625  0.00  0.00    +0.000 A 
ATOM      6  C   UNL     1       0.236  11.123  21.617  0.00  0.00    +0.000 A 
ATOM      7  N   UNL     1      -0.639  12.179  21.756  0.00  0.00    +0.000 N 
ATOM      8  C   UNL     1      -1.816  12.261  21.034  0.00  0.00    +0.000 A 
ATOM      9  O   UNL     1      -2.762  12.956  21.394  0.00  0.00    +0.000 OA
ATOM     10  C   UNL     1      -1.858  11.479  19.772  0.00  0.00    +0.000 A 
ATOM     11  C   UNL     1      -2.872  11.680  18.840  0.00  0.00    +0.000 A 
ATOM     12  C   UNL     1      -2.766  11.097  17.575  0.00  0.00    +0.000 A 
ATOM     13  C   UNL     1      -1.645  10.335  17.248  0.00  0.00    +0.000 A 
ATOM     14  C   UNL     1      -0.665  10.066  18.216  0.00  0.00    +0.000 A 
ATOM     15  C   UNL     1      -0.802  10.602  19.505  0.00  0.00    +0.000 A 
ATOM     16  H   UNL     1      -0.610  12.733  22.604  0.00  0.00    +0.000 HD
ENDBRANCH   2   5
BRANCH   3  17
ATOM     17  C   UNL     1       1.711   6.929  20.471  0.00  0.00    +0.000 C 
BRANCH  17  18
ATOM     18  C   UNL     1       2.722   6.751  19.370  0.00  0.00    +0.000 A 
ATOM     19  C   UNL     1       3.650   5.709  19.427  0.00  0.00    +0.000 A 
ATOM     20  C   UNL     1       4.577   5.532  18.398  0.00  0.00    +0.000 A 
ATOM     21  C   UNL     1       4.588   6.395  17.301  0.00  0.00    +0.000 A 
ATOM     22  C   UNL     1       3.718   7.486  17.277  0.00  0.00    +0.000 A 
ATOM     23  C   UNL     1       2.785   7.659  18.305  0.00  0.00    +0.000 A 
BRANCH  21  24
ATOM     24  O   UNL     1       5.480   6.080  16.314  0.00  0.00    +0.000 OA
BRANCH  24  25
ATOM     25  C   UNL     1       5.539   4.693  15.965  0.00  0.00    +0.000 C 
BRANCH  25  26
ATOM     26  C   UNL     1       6.181   4.525  14.609  0.00  0.00    +0.000 A 
ATOM     27  C   UNL     1       5.595   3.692  13.657  0.00  0.00    +0.000 A 
ATOM     28  C   UNL     1       6.175   3.596  12.398  0.00  0.00    +0.000 A 
ATOM     29  C   UNL     1       7.314   4.336  12.119  0.00  0.00    +0.000 A 
ATOM     30  C   UNL     1       7.836   5.146  13.121  0.00  0.00    +0.000 A 
ATOM     31  N   UNL     1       7.293   5.259  14.347  0.00  0.00    +0.000 NA
ENDBRANCH  25  26
ENDBRANCH  24  25
ENDBRANCH  21  24
ENDBRANCH  17  18
ENDBRANCH   3  17
TORSDOF 6
ENDMDL
