MODEL 1
REMARK VINA RESULT:      -8.8      0.000      0.000
REMARK  Name = 
REMARK  5 active torsions:
REMARK  status: ('A' for Active; 'I' for Inactive)
REMARK    1  A    between atoms: C_1  and  N_2
REMARK    2  A    between atoms: C_9  and  N_10
REMARK    3  A    between atoms: C_18  and  C_19
REMARK    4  A    between atoms: C_19  and  C_20
REMARK    5  A    between atoms: C_20  and  C_21
REMARK                            x       y       z     vdW  Elec       q    Type
REMARK                         _______ _______ _______ _____ _____    ______ ____
ROOT
ATOM      1  N   UNL     1       3.157   6.230  18.196  0.00  0.00    +0.000 N 
ATOM      2  C   UNL     1       4.527   6.063  18.203  0.00  0.00    +0.000 C 
ATOM      3  O   UNL     1       5.313   6.884  18.674  0.00  0.00    +0.000 OA
ATOM      4  N   UNL     1       4.991   4.846  17.696  0.00  0.00    +0.000 N 
ATOM      5  C   UNL     1       6.427   4.577  17.840  0.00  0.00    +0.000 C 
ATOM      6  C   UNL     1       7.155   4.693  16.503  0.00  0.00    +0.000 C 
ATOM      7  C   UNL     1       6.491   3.844  15.421  0.00  0.00    +0.000 C 
ATOM      8  C   UNL     1       4.989   4.132  15.346  0.00  0.00    +0.000 C 
ATOM      9  C   UNL     1       4.291   3.989  16.717  0.00  0.00    +0.000 C 
ATOM     10  H   UNL     1       2.612   5.387  18.127  0.00  0.00    +0.000 HD
ENDROOT
BRANCH   1  19
ATOM     11  C   UNL     1      -0.152  11.836  18.905  0.00  0.00    +0.000 C 
ATOM     12  N   UNL     1       0.298  10.855  19.880  0.00  0.00    +0.000 N 
ATOM     13  C   UNL     1      -0.036  11.058  21.220  0.00  0.00    +0.000 C 
ATOM     14  O   UNL     1      -0.678  12.030  21.623  0.00  0.00    +0.000 OA
ATOM     15  C   UNL     1       0.532  10.071  22.214  0.00  0.00    +0.000 C 
ATOM     16  C   UNL     1       0.513   8.665  21.662  0.00  0.00    +0.000 C 
ATOM     17  C   UNL     1       1.200   8.635  20.327  0.00  0.00    +0.000 A 
ATOM     18  C   UNL     1       1.907   7.487  19.929  0.00  0.00    +0.000 A 
ATOM     19  C   UNL     1       2.464   7.381  18.655  0.00  0.00    +0.000 A 
ATOM     20  C   UNL     1       2.321   8.465  17.784  0.00  0.00    +0.000 A 
ATOM     21  C   UNL     1       1.601   9.613  18.170  0.00  0.00    +0.000 A 
ATOM     22  C   UNL     1       1.037   9.712  19.447  0.00  0.00    +0.000 A 
ENDBRANCH   1  19
BRANCH   9  23
ATOM     23  C   UNL     1       4.245   2.510  17.154  0.00  0.00    +0.000 C 
BRANCH  23  24
ATOM     24  C   UNL     1       2.837   2.034  17.515  0.00  0.00    +0.000 C 
BRANCH  24  25
ATOM     25  C   UNL     1       2.407   2.598  18.847  0.00  0.00    +0.000 A 
ATOM     26  C   UNL     1       1.233   3.357  18.950  0.00  0.00    +0.000 A 
ATOM     27  C   UNL     1       0.851   3.909  20.174  0.00  0.00    +0.000 A 
ATOM     28  C   UNL     1       1.642   3.713  21.304  0.00  0.00    +0.000 A 
ATOM     29  C   UNL     1       2.816   2.967  21.211  0.00  0.00    +0.000 A 
ATOM     30  C   UNL     1       3.199   2.415  19.988  0.00  0.00    +0.000 A 
ENDBRANCH  24  25
ENDBRANCH  23  24
ENDBRANCH   9  23
TORSDOF 4
ENDMDL
MODEL 2
REMARK VINA RESULT:      -8.4      0.620      1.629
REMARK  Name = 
REMARK  5 active torsions:
REMARK  status: ('A' for Active; 'I' for Inactive)
REMARK    1  A    between atoms: C_1  and  N_2
REMARK    2  A    between atoms: C_9  and  N_10
REMARK    3  A    between atoms: C_18  and  C_19
REMARK    4  A    between atoms: C_19  and  C_20
REMARK    5  A    between atoms: C_20  and  C_21
REMARK                            x       y       z     vdW  Elec       q    Type
REMARK                         _______ _______ _______ _____ _____    ______ ____
ROOT
ATOM      1  N   UNL     1       3.000   6.009  18.583  0.00  0.00    +0.000 N 
ATOM      2  C   UNL     1       4.369   5.842  18.632  0.00  0.00    +0.000 C 
ATOM      3  O   UNL     1       5.128   6.595  19.241  0.00  0.00    +0.000 OA
ATOM      4  N   UNL     1       4.864   4.700  17.995  0.00  0.00    +0.000 N 
ATOM      5  C   UNL     1       6.293   4.415  18.169  0.00  0.00    +0.000 C 
ATOM      6  C   UNL     1       7.082   4.702  16.894  0.00  0.00    +0.000 C 
ATOM      7  C   UNL     1       6.473   3.999  15.682  0.00  0.00    +0.000 C 
ATOM      8  C   UNL     1       4.974   4.295  15.574  0.00  0.00    +0.000 C 
ATOM      9  C   UNL     1       4.215   3.977  16.882  0.00  0.00    +0.000 C 
ATOM     10  H   UNL     1       2.464   5.181  18.381  0.00  0.00    +0.000 HD
ENDROOT
BRANCH   1  19
ATOM     11  C   UNL     1      -0.020  10.337  22.458  0.00  0.00    +0.000 C 
ATOM     12  N   UNL     1       0.201  10.323  21.020  0.00  0.00    +0.000 N 
ATOM     13  C   UNL     1      -0.247  11.416  20.276  0.00  0.00    +0.000 C 
ATOM     14  O   UNL     1      -0.832  12.383  20.767  0.00  0.00    +0.000 OA
ATOM     15  C   UNL     1      -0.087  11.320  18.775  0.00  0.00    +0.000 C 
ATOM     16  C   UNL     1       1.225  10.672  18.404  0.00  0.00    +0.000 C 
ATOM     17  C   UNL     1       1.356   9.352  19.107  0.00  0.00    +0.000 A 
ATOM     18  C   UNL     1       2.045   8.294  18.488  0.00  0.00    +0.000 A 
ATOM     19  C   UNL     1       2.280   7.091  19.153  0.00  0.00    +0.000 A 
ATOM     20  C   UNL     1       1.788   6.953  20.454  0.00  0.00    +0.000 A 
ATOM     21  C   UNL     1       1.109   8.014  21.086  0.00  0.00    +0.000 A 
ATOM     22  C   UNL     1       0.882   9.222  20.418  0.00  0.00    +0.000 A 
ENDBRANCH   1  19
BRANCH   9  23
ATOM     23  C   UNL     1       4.157   2.453  17.122  0.00  0.00    +0.000 C 
BRANCH  23  24
ATOM     24  C   UNL     1       2.753   1.952  17.465  0.00  0.00    +0.000 C 
BRANCH  24  25
ATOM     25  C   UNL     1       2.344   2.409  18.845  0.00  0.00    +0.000 A 
ATOM     26  C   UNL     1       1.086   2.991  19.055  0.00  0.00    +0.000 A 
ATOM     27  C   UNL     1       0.719   3.446  20.322  0.00  0.00    +0.000 A 
ATOM     28  C   UNL     1       1.608   3.329  21.389  0.00  0.00    +0.000 A 
ATOM     29  C   UNL     1       2.865   2.761  21.189  0.00  0.00    +0.000 A 
ATOM     30  C   UNL     1       3.233   2.305  19.922  0.00  0.00    +0.000 A 
ENDBRANCH  24  25
ENDBRANCH  23  24
ENDBRANCH   9  23
TORSDOF 4
ENDMDL
MODEL 3
REMARK VINA RESULT:      -8.3      1.676      4.394
REMARK  Name = 
REMARK  5 active torsions:
REMARK  status: ('A' for Active; 'I' for Inactive)
REMARK    1  A    between atoms: C_1  and  N_2
REMARK    2  A    between atoms: C_9  and  N_10
REMARK    3  A    between atoms: C_18  and  C_19
REMARK    4  A    between atoms: C_19  and  C_20
REMARK    5  A    between atoms: C_20  and  C_21
REMARK                            x       y       z     vdW  Elec       q    Type
REMARK                         _______ _______ _______ _____ _____    ______ ____
ROOT
ATOM      1  N   UNL     1       2.895   6.656  18.685  0.00  0.00    +0.000 N 
ATOM      2  C   UNL     1       2.389   5.506  18.115  0.00  0.00    +0.000 C 
ATOM      3  O   UNL     1       1.199   5.341  17.850  0.00  0.00    +0.000 OA
ATOM      4  N   UNL     1       3.333   4.531  17.778  0.00  0.00    +0.000 N 
ATOM      5  C   UNL     1       2.841   3.370  17.026  0.00  0.00    +0.000 C 
ATOM      6  C   UNL     1       2.787   2.119  17.899  0.00  0.00    +0.000 C 
ATOM      7  C   UNL     1       4.120   1.860  18.599  0.00  0.00    +0.000 C 
ATOM      8  C   UNL     1       4.608   3.115  19.329  0.00  0.00    +0.000 C 
ATOM      9  C   UNL     1       4.659   4.352  18.404  0.00  0.00    +0.000 C 
ATOM     10  H   UNL     1       3.875   6.829  18.531  0.00  0.00    +0.000 HD
ENDROOT
BRANCH   1  19
ATOM     11  C   UNL     1      -0.710  12.094  19.236  0.00  0.00    +0.000 C 
ATOM     12  N   UNL     1      -0.256  11.136  20.233  0.00  0.00    +0.000 N 
ATOM     13  C   UNL     1      -0.658  11.323  21.556  0.00  0.00    +0.000 C 
ATOM     14  O   UNL     1      -1.364  12.262  21.929  0.00  0.00    +0.000 OA
ATOM     15  C   UNL     1      -0.087  10.364  22.576  0.00  0.00    +0.000 C 
ATOM     16  C   UNL     1      -0.013   8.959  22.027  0.00  0.00    +0.000 C 
ATOM     17  C   UNL     1       0.732   8.963  20.724  0.00  0.00    +0.000 A 
ATOM     18  C   UNL     1       1.510   7.850  20.359  0.00  0.00    +0.000 A 
ATOM     19  C   UNL     1       2.128   7.772  19.111  0.00  0.00    +0.000 A 
ATOM     20  C   UNL     1       1.971   8.848  18.232  0.00  0.00    +0.000 A 
ATOM     21  C   UNL     1       1.179   9.959  18.584  0.00  0.00    +0.000 A 
ATOM     22  C   UNL     1       0.556  10.031  19.835  0.00  0.00    +0.000 A 
ENDBRANCH   1  19
BRANCH   9  23
ATOM     23  C   UNL     1       5.789   4.209  17.363  0.00  0.00    +0.000 C 
BRANCH  23  24
ATOM     24  C   UNL     1       5.839   5.369  16.368  0.00  0.00    +0.000 C 
BRANCH  24  25
ATOM     25  C   UNL     1       6.195   4.875  14.987  0.00  0.00    +0.000 A 
ATOM     26  C   UNL     1       7.341   5.353  14.335  0.00  0.00    +0.000 A 
ATOM     27  C   UNL     1       7.653   4.924  13.045  0.00  0.00    +0.000 A 
ATOM     28  C   UNL     1       6.820   4.018  12.391  0.00  0.00    +0.000 A 
ATOM     29  C   UNL     1       5.673   3.544  13.025  0.00  0.00    +0.000 A 
ATOM     30  C   UNL     1       5.360   3.972  14.316  0.00  0.00    +0.000 A 
ENDBRANCH  24  25
ENDBRANCH  23  24
ENDBRANCH   9  23
TORSDOF 4
ENDMDL
MODEL 4
REMARK VINA RESULT:      -8.3      0.663      1.050
REMARK  Name = 
REMARK  5 active torsions:
REMARK  status: ('A' for Active; 'I' for Inactive)
REMARK    1  A    between atoms: C_1  and  N_2
REMARK    2  A    between atoms: C_9  and  N_10
REMARK    3  A    between atoms: C_18  and  C_19
REMARK    4  A    between atoms: C_19  and  C_20
REMARK    5  A    between atoms: C_20  and  C_21
REMARK                            x       y       z     vdW  Elec       q    Type
REMARK                         _______ _______ _______ _____ _____    ______ ____
ROOT
ATOM      1  N   UNL     1       3.264   6.452  18.085  0.00  0.00    +0.000 N 
ATOM      2  C   UNL     1       4.607   6.480  17.771  0.00  0.00    +0.000 C 
ATOM      3  O   UNL     1       5.322   7.471  17.915  0.00  0.00    +0.000 OA
ATOM      4  N   UNL     1       5.153   5.270  17.333  0.00  0.00    +0.000 N 
ATOM      5  C   UNL     1       6.608   5.231  17.147  0.00  0.00    +0.000 C 
ATOM      6  C   UNL     1       6.984   5.214  15.668  0.00  0.00    +0.000 C 
ATOM      7  C   UNL     1       6.253   4.106  14.912  0.00  0.00    +0.000 C 
ATOM      8  C   UNL     1       4.746   4.165  15.177  0.00  0.00    +0.000 C 
ATOM      9  C   UNL     1       4.411   4.168  16.685  0.00  0.00    +0.000 C 
ATOM     10  H   UNL     1       2.874   5.543  18.270  0.00  0.00    +0.000 HD
ENDROOT
BRANCH   1  19
ATOM     11  C   UNL     1      -0.402  11.833  18.789  0.00  0.00    +0.000 C 
ATOM     12  N   UNL     1       0.121  10.890  19.766  0.00  0.00    +0.000 N 
ATOM     13  C   UNL     1      -0.214  11.081  21.108  0.00  0.00    +0.000 C 
ATOM     14  O   UNL     1      -0.915  12.011  21.511  0.00  0.00    +0.000 OA
ATOM     15  C   UNL     1       0.427  10.140  22.103  0.00  0.00    +0.000 C 
ATOM     16  C   UNL     1       0.497   8.732  21.560  0.00  0.00    +0.000 C 
ATOM     17  C   UNL     1       1.171   8.738  20.219  0.00  0.00    +0.000 A 
ATOM     18  C   UNL     1       1.949   7.636  19.821  0.00  0.00    +0.000 A 
ATOM     19  C   UNL     1       2.501   7.559  18.543  0.00  0.00    +0.000 A 
ATOM     20  C   UNL     1       2.279   8.625  17.667  0.00  0.00    +0.000 A 
ATOM     21  C   UNL     1       1.487   9.725  18.052  0.00  0.00    +0.000 A 
ATOM     22  C   UNL     1       0.930   9.796  19.334  0.00  0.00    +0.000 A 
ENDBRANCH   1  19
BRANCH   9  23
ATOM     23  C   UNL     1       4.727   2.794  17.316  0.00  0.00    +0.000 C 
BRANCH  23  24
ATOM     24  C   UNL     1       4.586   2.787  18.839  0.00  0.00    +0.000 C 
BRANCH  24  25
ATOM     25  C   UNL     1       3.145   2.985  19.244  0.00  0.00    +0.000 A 
ATOM     26  C   UNL     1       2.818   3.841  20.305  0.00  0.00    +0.000 A 
ATOM     27  C   UNL     1       1.490   3.999  20.704  0.00  0.00    +0.000 A 
ATOM     28  C   UNL     1       0.478   3.298  20.051  0.00  0.00    +0.000 A 
ATOM     29  C   UNL     1       0.793   2.437  19.001  0.00  0.00    +0.000 A 
ATOM     30  C   UNL     1       2.120   2.278  18.601  0.00  0.00    +0.000 A 
ENDBRANCH  24  25
ENDBRANCH  23  24
ENDBRANCH   9  23
TORSDOF 4
ENDMDL
MODEL 5
REMARK VINA RESULT:      -8.1      1.891      4.115
REMARK  Name = 
REMARK  5 active torsions:
REMARK  status: ('A' for Active; 'I' for Inactive)
REMARK    1  A    between atoms: C_1  and  N_2
REMARK    2  A    between atoms: C_9  and  N_10
REMARK    3  A    between atoms: C_18  and  C_19
REMARK    4  A    between atoms: C_19  and  C_20
REMARK    5  A    between atoms: C_20  and  C_21
REMARK                            x       y       z     vdW  Elec       q    Type
REMARK                         _______ _______ _______ _____ _____    ______ ____
ROOT
ATOM      1  N   UNL     1       2.765   6.436  19.237  0.00  0.00    +0.000 N 
ATOM      2  C   UNL     1       2.354   5.425  18.393  0.00  0.00    +0.000 C 
ATOM      3  O   UNL     1       1.279   5.430  17.793  0.00  0.00    +0.000 OA
ATOM      4  N   UNL     1       3.275   4.393  18.189  0.00  0.00    +0.000 N 
ATOM      5  C   UNL     1       2.928   3.391  17.173  0.00  0.00    +0.000 C 
ATOM      6  C   UNL     1       2.530   2.062  17.811  0.00  0.00    +0.000 C 
ATOM      7  C   UNL     1       3.584   1.573  18.802  0.00  0.00    +0.000 C 
ATOM      8  C   UNL     1       3.940   2.670  19.809  0.00  0.00    +0.000 C 
ATOM      9  C   UNL     1       4.349   3.992  19.120  0.00  0.00    +0.000 C 
ATOM     10  H   UNL     1       3.758   6.511  19.381  0.00  0.00    +0.000 HD
ENDROOT
BRANCH   1  19
ATOM     11  C   UNL     1      -0.742  11.961  19.460  0.00  0.00    +0.000 C 
ATOM     12  N   UNL     1      -0.374  11.012  20.500  0.00  0.00    +0.000 N 
ATOM     13  C   UNL     1      -0.855  11.233  21.792  0.00  0.00    +0.000 C 
ATOM     14  O   UNL     1      -1.561  12.195  22.102  0.00  0.00    +0.000 OA
ATOM     15  C   UNL     1      -0.373  10.282  22.863  0.00  0.00    +0.000 C 
ATOM     16  C   UNL     1      -0.296   8.865  22.345  0.00  0.00    +0.000 C 
ATOM     17  C   UNL     1       0.530   8.828  21.092  0.00  0.00    +0.000 A 
ATOM     18  C   UNL     1       1.304   7.692  20.797  0.00  0.00    +0.000 A 
ATOM     19  C   UNL     1       1.998   7.576  19.593  0.00  0.00    +0.000 A 
ATOM     20  C   UNL     1       1.922   8.638  18.687  0.00  0.00    +0.000 A 
ATOM     21  C   UNL     1       1.135   9.773  18.968  0.00  0.00    +0.000 A 
ATOM     22  C   UNL     1       0.435   9.882  20.175  0.00  0.00    +0.000 A 
ENDBRANCH   1  19
BRANCH   9  23
ATOM     23  C   UNL     1       5.714   3.840  18.416  0.00  0.00    +0.000 C 
BRANCH  23  24
ATOM     24  C   UNL     1       5.901   4.814  17.252  0.00  0.00    +0.000 C 
BRANCH  24  25
ATOM     25  C   UNL     1       6.785   5.969  17.657  0.00  0.00    +0.000 A 
ATOM     26  C   UNL     1       7.637   5.855  18.764  0.00  0.00    +0.000 A 
ATOM     27  C   UNL     1       8.429   6.933  19.162  0.00  0.00    +0.000 A 
ATOM     28  C   UNL     1       8.373   8.136  18.461  0.00  0.00    +0.000 A 
ATOM     29  C   UNL     1       7.522   8.263  17.364  0.00  0.00    +0.000 A 
ATOM     30  C   UNL     1       6.729   7.186  16.965  0.00  0.00    +0.000 A 
ENDBRANCH  24  25
ENDBRANCH  23  24
ENDBRANCH   9  23
TORSDOF 4
ENDMDL
MODEL 6
REMARK VINA RESULT:      -8.1      1.781      3.942
REMARK  Name = 
REMARK  5 active torsions:
REMARK  status: ('A' for Active; 'I' for Inactive)
REMARK    1  A    between atoms: C_1  and  N_2
REMARK    2  A    between atoms: C_9  and  N_10
REMARK    3  A    between atoms: C_18  and  C_19
REMARK    4  A    between atoms: C_19  and  C_20
REMARK    5  A    between atoms: C_20  and  C_21
REMARK                            x       y       z     vdW  Elec       q    Type
REMARK                         _______ _______ _______ _____ _____    ______ ____
ROOT
ATOM      1  N   UNL     1       2.965   6.451  18.501  0.00  0.00    +0.000 N 
ATOM      2  C   UNL     1       2.368   5.309  18.008  0.00  0.00    +0.000 C 
ATOM      3  O   UNL     1       1.167   5.220  17.755  0.00  0.00    +0.000 OA
ATOM      4  N   UNL     1       3.230   4.243  17.735  0.00  0.00    +0.000 N 
ATOM      5  C   UNL     1       2.645   3.077  17.062  0.00  0.00    +0.000 C 
ATOM      6  C   UNL     1       2.500   1.894  18.015  0.00  0.00    +0.000 C 
ATOM      7  C   UNL     1       3.813   1.579  18.730  0.00  0.00    +0.000 C 
ATOM      8  C   UNL     1       4.400   2.837  19.375  0.00  0.00    +0.000 C 
ATOM      9  C   UNL     1       4.542   4.003  18.371  0.00  0.00    +0.000 C 
ATOM     10  H   UNL     1       3.954   6.536  18.334  0.00  0.00    +0.000 HD
ENDROOT
BRANCH   1  19
ATOM     11  C   UNL     1      -0.134  12.216  18.699  0.00  0.00    +0.000 C 
ATOM     12  N   UNL     1       0.189  11.261  19.748  0.00  0.00    +0.000 N 
ATOM     13  C   UNL     1      -0.246  11.537  21.045  0.00  0.00    +0.000 C 
ATOM     14  O   UNL     1      -0.875  12.551  21.353  0.00  0.00    +0.000 OA
ATOM     15  C   UNL     1       0.192  10.571  22.123  0.00  0.00    +0.000 C 
ATOM     16  C   UNL     1       0.156   9.144  21.629  0.00  0.00    +0.000 C 
ATOM     17  C   UNL     1       0.948   9.027  20.359  0.00  0.00    +0.000 A 
ATOM     18  C   UNL     1       1.633   7.834  20.069  0.00  0.00    +0.000 A 
ATOM     19  C   UNL     1       2.289   7.649  18.852  0.00  0.00    +0.000 A 
ATOM     20  C   UNL     1       2.269   8.699  17.929  0.00  0.00    +0.000 A 
ATOM     21  C   UNL     1       1.571   9.891  18.206  0.00  0.00    +0.000 A 
ATOM     22  C   UNL     1       0.908  10.070  19.426  0.00  0.00    +0.000 A 
ENDBRANCH   1  19
BRANCH   9  23
ATOM     23  C   UNL     1       5.652   3.704  17.340  0.00  0.00    +0.000 C 
BRANCH  23  24
ATOM     24  C   UNL     1       6.006   4.912  16.471  0.00  0.00    +0.000 C 
BRANCH  24  25
ATOM     25  C   UNL     1       6.807   5.920  17.259  0.00  0.00    +0.000 A 
ATOM     26  C   UNL     1       6.896   7.250  16.824  0.00  0.00    +0.000 A 
ATOM     27  C   UNL     1       7.665   8.176  17.530  0.00  0.00    +0.000 A 
ATOM     28  C   UNL     1       8.356   7.781  18.674  0.00  0.00    +0.000 A 
ATOM     29  C   UNL     1       8.281   6.459  19.110  0.00  0.00    +0.000 A 
ATOM     30  C   UNL     1       7.513   5.532  18.405  0.00  0.00    +0.000 A 
ENDBRANCH  24  25
ENDBRANCH  23  24
ENDBRANCH   9  23
TORSDOF 4
ENDMDL
MODEL 7
REMARK VINA RESULT:      -8.1      1.563      3.906
REMARK  Name = 
REMARK  5 active torsions:
REMARK  status: ('A' for Active; 'I' for Inactive)
REMARK    1  A    between atoms: C_1  and  N_2
REMARK    2  A    between atoms: C_9  and  N_10
REMARK    3  A    between atoms: C_18  and  C_19
REMARK    4  A    between atoms: C_19  and  C_20
REMARK    5  A    between atoms: C_20  and  C_21
REMARK                            x       y       z     vdW  Elec       q    Type
REMARK                         _______ _______ _______ _____ _____    ______ ____
ROOT
ATOM      1  N   UNL     1       2.654   6.530  19.634  0.00  0.00    +0.000 N 
ATOM      2  C   UNL     1       2.387   5.594  18.657  0.00  0.00    +0.000 C 
ATOM      3  O   UNL     1       1.455   5.685  17.859  0.00  0.00    +0.000 OA
ATOM      4  N   UNL     1       3.297   4.536  18.567  0.00  0.00    +0.000 N 
ATOM      5  C   UNL     1       3.127   3.616  17.435  0.00  0.00    +0.000 C 
ATOM      6  C   UNL     1       2.567   2.269  17.887  0.00  0.00    +0.000 C 
ATOM      7  C   UNL     1       3.385   1.672  19.030  0.00  0.00    +0.000 C 
ATOM      8  C   UNL     1       3.569   2.687  20.161  0.00  0.00    +0.000 C 
ATOM      9  C   UNL     1       4.150   4.029  19.661  0.00  0.00    +0.000 C 
ATOM     10  H   UNL     1       3.601   6.551  19.976  0.00  0.00    +0.000 HD
ENDROOT
BRANCH   1  19
ATOM     11  C   UNL     1      -0.903  12.026  19.482  0.00  0.00    +0.000 C 
ATOM     12  N   UNL     1      -0.554  11.136  20.579  0.00  0.00    +0.000 N 
ATOM     13  C   UNL     1      -1.069  11.420  21.845  0.00  0.00    +0.000 C 
ATOM     14  O   UNL     1      -1.790  12.390  22.087  0.00  0.00    +0.000 OA
ATOM     15  C   UNL     1      -0.605  10.530  22.976  0.00  0.00    +0.000 C 
ATOM     16  C   UNL     1      -0.504   9.090  22.535  0.00  0.00    +0.000 C 
ATOM     17  C   UNL     1       0.354   8.995  21.306  0.00  0.00    +0.000 A 
ATOM     18  C   UNL     1       1.145   7.852  21.090  0.00  0.00    +0.000 A 
ATOM     19  C   UNL     1       1.869   7.681  19.911  0.00  0.00    +0.000 A 
ATOM     20  C   UNL     1       1.807   8.693  18.949  0.00  0.00    +0.000 A 
ATOM     21  C   UNL     1       1.004   9.833  19.151  0.00  0.00    +0.000 A 
ATOM     22  C   UNL     1       0.273   9.999  20.333  0.00  0.00    +0.000 A 
ENDBRANCH   1  19
BRANCH   9  23
ATOM     23  C   UNL     1       5.622   3.859  19.230  0.00  0.00    +0.000 C 
BRANCH  23  24
ATOM     24  C   UNL     1       6.256   5.158  18.730  0.00  0.00    +0.000 C 
BRANCH  24  25
ATOM     25  C   UNL     1       6.182   5.244  17.225  0.00  0.00    +0.000 A 
ATOM     26  C   UNL     1       5.467   6.280  16.609  0.00  0.00    +0.000 A 
ATOM     27  C   UNL     1       5.368   6.342  15.218  0.00  0.00    +0.000 A 
ATOM     28  C   UNL     1       5.978   5.367  14.431  0.00  0.00    +0.000 A 
ATOM     29  C   UNL     1       6.684   4.328  15.035  0.00  0.00    +0.000 A 
ATOM     30  C   UNL     1       6.784   4.264  16.425  0.00  0.00    +0.000 A 
ENDBRANCH  24  25
ENDBRANCH  23  24
ENDBRANCH   9  23
TORSDOF 4
ENDMDL
MODEL 8
REMARK VINA RESULT:      -7.9      5.774      6.822
REMARK  Name = 
REMARK  5 active torsions:
REMARK  status: ('A' for Active; 'I' for Inactive)
REMARK    1  A    between atoms: C_1  and  N_2
REMARK    2  A    between atoms: C_9  and  N_10
REMARK    3  A    between atoms: C_18  and  C_19
REMARK    4  A    between atoms: C_19  and  C_20
REMARK    5  A    between atoms: C_20  and  C_21
REMARK                            x       y       z     vdW  Elec       q    Type
REMARK                         _______ _______ _______ _____ _____    ______ ____
ROOT
ATOM      1  N   UNL     1       7.512   8.966  17.611  0.00  0.00    +0.000 N 
ATOM      2  C   UNL     1       7.751   7.714  18.139  0.00  0.00    +0.000 C 
ATOM      3  O   UNL     1       8.609   7.485  18.991  0.00  0.00    +0.000 OA
ATOM      4  N   UNL     1       6.899   6.698  17.699  0.00  0.00    +0.000 N 
ATOM      5  C   UNL     1       7.028   5.395  18.364  0.00  0.00    +0.000 C 
ATOM      6  C   UNL     1       7.698   4.367  17.457  0.00  0.00    +0.000 C 
ATOM      7  C   UNL     1       7.010   4.280  16.096  0.00  0.00    +0.000 C 
ATOM      8  C   UNL     1       6.863   5.669  15.468  0.00  0.00    +0.000 C 
ATOM      9  C   UNL     1       6.168   6.673  16.415  0.00  0.00    +0.000 C 
ATOM     10  H   UNL     1       6.597   9.109  17.217  0.00  0.00    +0.000 HD
ENDROOT
BRANCH   1  19
ATOM     11  C   UNL     1       9.749  15.061  18.470  0.00  0.00    +0.000 C 
ATOM     12  N   UNL     1      10.322  13.768  18.813  0.00  0.00    +0.000 N 
ATOM     13  C   UNL     1      11.546  13.749  19.484  0.00  0.00    +0.000 C 
ATOM     14  O   UNL     1      12.173  14.765  19.789  0.00  0.00    +0.000 OA
ATOM     15  C   UNL     1      12.156  12.389  19.735  0.00  0.00    +0.000 C 
ATOM     16  C   UNL     1      11.101  11.375  20.111  0.00  0.00    +0.000 C 
ATOM     17  C   UNL     1      10.016  11.364  19.074  0.00  0.00    +0.000 A 
ATOM     18  C   UNL     1       9.335  10.169  18.784  0.00  0.00    +0.000 A 
ATOM     19  C   UNL     1       8.251  10.142  17.908  0.00  0.00    +0.000 A 
ATOM     20  C   UNL     1       7.869  11.341  17.300  0.00  0.00    +0.000 A 
ATOM     21  C   UNL     1       8.536  12.546  17.597  0.00  0.00    +0.000 A 
ATOM     22  C   UNL     1       9.619  12.570  18.482  0.00  0.00    +0.000 A 
ENDBRANCH   1  19
BRANCH   9  23
ATOM     23  C   UNL     1       4.677   6.314  16.593  0.00  0.00    +0.000 C 
BRANCH  23  24
ATOM     24  C   UNL     1       4.028   7.018  17.785  0.00  0.00    +0.000 C 
BRANCH  24  25
ATOM     25  C   UNL     1       3.073   6.091  18.498  0.00  0.00    +0.000 A 
ATOM     26  C   UNL     1       2.650   6.376  19.804  0.00  0.00    +0.000 A 
ATOM     27  C   UNL     1       1.796   5.503  20.479  0.00  0.00    +0.000 A 
ATOM     28  C   UNL     1       1.361   4.334  19.857  0.00  0.00    +0.000 A 
ATOM     29  C   UNL     1       1.782   4.036  18.562  0.00  0.00    +0.000 A 
ATOM     30  C   UNL     1       2.637   4.908  17.886  0.00  0.00    +0.000 A 
ENDBRANCH  24  25
ENDBRANCH  23  24
ENDBRANCH   9  23
TORSDOF 4
ENDMDL
MODEL 9
REMARK VINA RESULT:      -7.9      1.983      4.638
REMARK  Name = 
REMARK  5 active torsions:
REMARK  status: ('A' for Active; 'I' for Inactive)
REMARK    1  A    between atoms: C_1  and  N_2
REMARK    2  A    between atoms: C_9  and  N_10
REMARK    3  A    between atoms: C_18  and  C_19
REMARK    4  A    between atoms: C_19  and  C_20
REMARK    5  A    between atoms: C_20  and  C_21
REMARK                            x       y       z     vdW  Elec       q    Type
REMARK                         _______ _______ _______ _____ _____    ______ ____
ROOT
ATOM      1  N   UNL     1       2.588   7.843  18.432  0.00  0.00    +0.000 N 
ATOM      2  C   UNL     1       2.604   6.467  18.524  0.00  0.00    +0.000 C 
ATOM      3  O   UNL     1       1.770   5.814  19.151  0.00  0.00    +0.000 OA
ATOM      4  N   UNL     1       3.604   5.821  17.791  0.00  0.00    +0.000 N 
ATOM      5  C   UNL     1       3.544   4.356  17.743  0.00  0.00    +0.000 C 
ATOM      6  C   UNL     1       4.637   3.722  18.599  0.00  0.00    +0.000 C 
ATOM      7  C   UNL     1       6.018   4.278  18.256  0.00  0.00    +0.000 C 
ATOM      8  C   UNL     1       6.012   5.809  18.278  0.00  0.00    +0.000 C 
ATOM      9  C   UNL     1       4.899   6.407  17.388  0.00  0.00    +0.000 C 
ATOM     10  H   UNL     1       3.068   8.236  17.639  0.00  0.00    +0.000 HD
ENDROOT
BRANCH   1  19
ATOM     11  C   UNL     1      -1.977  12.221  20.128  0.00  0.00    +0.000 C 
ATOM     12  N   UNL     1      -1.187  11.296  20.927  0.00  0.00    +0.000 N 
ATOM     13  C   UNL     1      -1.420  11.250  22.302  0.00  0.00    +0.000 C 
ATOM     14  O   UNL     1      -2.248  11.960  22.878  0.00  0.00    +0.000 OA
ATOM     15  C   UNL     1      -0.513  10.350  23.110  0.00  0.00    +0.000 C 
ATOM     16  C   UNL     1      -0.221   9.064  22.376  0.00  0.00    +0.000 C 
ATOM     17  C   UNL     1       0.305   9.371  21.004  0.00  0.00    +0.000 A 
ATOM     18  C   UNL     1       1.241   8.511  20.404  0.00  0.00    +0.000 A 
ATOM     19  C   UNL     1       1.671   8.704  19.091  0.00  0.00    +0.000 A 
ATOM     20  C   UNL     1       1.159   9.798  18.388  0.00  0.00    +0.000 A 
ATOM     21  C   UNL     1       0.208  10.655  18.976  0.00  0.00    +0.000 A 
ATOM     22  C   UNL     1      -0.225  10.454  20.292  0.00  0.00    +0.000 A 
ENDBRANCH   1  19
BRANCH   9  23
ATOM     23  C   UNL     1       5.212   6.175  15.894  0.00  0.00    +0.000 C 
BRANCH  23  24
ATOM     24  C   UNL     1       6.582   5.536  15.660  0.00  0.00    +0.000 C 
BRANCH  24  25
ATOM     25  C   UNL     1       6.632   4.856  14.313  0.00  0.00    +0.000 A 
ATOM     26  C   UNL     1       7.622   5.199  13.382  0.00  0.00    +0.000 A 
ATOM     27  C   UNL     1       7.649   4.597  12.123  0.00  0.00    +0.000 A 
ATOM     28  C   UNL     1       6.684   3.652  11.781  0.00  0.00    +0.000 A 
ATOM     29  C   UNL     1       5.689   3.311  12.696  0.00  0.00    +0.000 A 
ATOM     30  C   UNL     1       5.661   3.912  13.955  0.00  0.00    +0.000 A 
ENDBRANCH  24  25
ENDBRANCH  23  24
ENDBRANCH   9  23
TORSDOF 4
ENDMDL
