MODEL 1
REMARK VINA RESULT:      -9.1      0.000      0.000
REMARK  Name = 
REMARK  6 active torsions:
REMARK  status: ('A' for Active; 'I' for Inactive)
REMARK    1  A    between atoms: C_1  and  N_2
REMARK    2  A    between atoms: C_6  and  C_7
REMARK    3  A    between atoms: C_7  and  C_8
REMARK    4  A    between atoms: C_8  and  C_9
REMARK    5  A    between atoms: C_13  and  N_14
REMARK    6  A    between atoms: C_22  and  C_23
REMARK                            x       y       z     vdW  Elec       q    Type
REMARK                         _______ _______ _______ _____ _____    ______ ____
ROOT
ATOM      1  N   UNL     1       4.147   4.501  19.176  0.00  0.00    +0.000 N 
ATOM      2  C   UNL     1       5.486   5.135  19.281  0.00  0.00    +0.000 C 
ATOM      3  C   UNL     1       6.006   4.997  17.882  0.00  0.00    +0.000 A 
ATOM      4  C   UNL     1       5.389   3.871  17.321  0.00  0.00    +0.000 A 
ATOM      5  C   UNL     1       5.511   3.530  15.988  0.00  0.00    +0.000 A 
ATOM      6  C   UNL     1       6.272   4.381  15.200  0.00  0.00    +0.000 A 
ATOM      7  F   UNL     1       6.352   4.155  13.882  0.00  0.00    +0.000 F 
ATOM      8  C   UNL     1       6.884   5.528  15.729  0.00  0.00    +0.000 A 
ATOM      9  C   UNL     1       6.761   5.862  17.094  0.00  0.00    +0.000 A 
ATOM     10  C   UNL     1       4.296   3.458  18.229  0.00  0.00    +0.000 C 
ATOM     11  O   UNL     1       3.559   2.510  18.019  0.00  0.00    +0.000 OA
ENDROOT
BRANCH   1  16
ATOM     12  C   UNL     1       1.836   7.216  19.965  0.00  0.00    +0.000 A 
ATOM     13  C   UNL     1       2.288   8.142  19.015  0.00  0.00    +0.000 A 
ATOM     14  C   UNL     1       2.995   7.718  17.896  0.00  0.00    +0.000 A 
ATOM     15  C   UNL     1       3.364   6.383  17.778  0.00  0.00    +0.000 A 
ATOM     16  C   UNL     1       3.142   5.508  18.853  0.00  0.00    +0.000 A 
ATOM     17  C   UNL     1       2.250   5.884  19.863  0.00  0.00    +0.000 A 
BRANCH  12  18
ATOM     18  C   UNL     1       1.014   7.670  21.146  0.00  0.00    +0.000 C 
BRANCH  18  19
ATOM     19  C   UNL     1       1.555   8.972  21.741  0.00  0.00    +0.000 C 
BRANCH  19  25
ATOM     20  C   UNL     1       0.056  10.989  19.935  0.00  0.00    +0.000 C 
ATOM     21  N   UNL     1      -0.173  10.780  21.335  0.00  0.00    +0.000 N 
ATOM     22  C   UNL     1      -1.069  11.444  22.105  0.00  0.00    +0.000 A 
ATOM     23  N   UNL     1      -1.004  10.990  23.335  0.00  0.00    +0.000 NA
ATOM     24  N   UNL     1      -0.037  10.016  23.371  0.00  0.00    +0.000 NA
ATOM     25  C   UNL     1       0.459   9.886  22.159  0.00  0.00    +0.000 A 
ENDBRANCH  19  25
ENDBRANCH  18  19
ENDBRANCH  12  18
ENDBRANCH   1  16
BRANCH   9  26
ATOM     26  C   UNL     1       7.331   7.170  17.584  0.00  0.00    +0.000 C 
ATOM     27  F   UNL     1       8.188   7.764  16.712  0.00  0.00    +0.000 F 
ATOM     28  F   UNL     1       6.360   8.089  17.830  0.00  0.00    +0.000 F 
ATOM     29  F   UNL     1       8.020   7.027  18.749  0.00  0.00    +0.000 F 
ENDBRANCH   9  26
TORSDOF 5
ENDMDL
MODEL 2
REMARK VINA RESULT:      -8.9      4.530      6.637
REMARK  Name = 
REMARK  6 active torsions:
REMARK  status: ('A' for Active; 'I' for Inactive)
REMARK    1  A    between atoms: C_1  and  N_2
REMARK    2  A    between atoms: C_6  and  C_7
REMARK    3  A    between atoms: C_7  and  C_8
REMARK    4  A    between atoms: C_8  and  C_9
REMARK    5  A    between atoms: C_13  and  N_14
REMARK    6  A    between atoms: C_22  and  C_23
REMARK                            x       y       z     vdW  Elec       q    Type
REMARK                         _______ _______ _______ _____ _____    ______ ____
ROOT
ATOM      1  N   UNL     1       6.040   5.315  15.589  0.00  0.00    +0.000 N 
ATOM      2  C   UNL     1       4.866   6.201  15.796  0.00  0.00    +0.000 C 
ATOM      3  C   UNL     1       4.083   5.444  16.826  0.00  0.00    +0.000 A 
ATOM      4  C   UNL     1       4.393   4.087  16.666  0.00  0.00    +0.000 A 
ATOM      5  C   UNL     1       3.974   3.109  17.547  0.00  0.00    +0.000 A 
ATOM      6  C   UNL     1       3.233   3.537  18.639  0.00  0.00    +0.000 A 
ATOM      7  F   UNL     1       2.877   2.649  19.577  0.00  0.00    +0.000 F 
ATOM      8  C   UNL     1       2.927   4.892  18.837  0.00  0.00    +0.000 A 
ATOM      9  C   UNL     1       3.350   5.882  17.926  0.00  0.00    +0.000 A 
ATOM     10  C   UNL     1       5.550   3.995  15.749  0.00  0.00    +0.000 C 
ATOM     11  O   UNL     1       6.070   2.945  15.412  0.00  0.00    +0.000 OA
ENDROOT
BRANCH   1  16
ATOM     12  C   UNL     1       7.837   7.622  17.777  0.00  0.00    +0.000 A 
ATOM     13  C   UNL     1       7.909   6.801  18.911  0.00  0.00    +0.000 A 
ATOM     14  C   UNL     1       7.780   5.422  18.795  0.00  0.00    +0.000 A 
ATOM     15  C   UNL     1       7.453   4.861  17.565  0.00  0.00    +0.000 A 
ATOM     16  C   UNL     1       7.121   5.700  16.490  0.00  0.00    +0.000 A 
ATOM     17  C   UNL     1       7.463   7.055  16.554  0.00  0.00    +0.000 A 
BRANCH  12  18
ATOM     18  C   UNL     1       8.041   9.112  17.896  0.00  0.00    +0.000 C 
BRANCH  18  19
ATOM     19  C   UNL     1       8.962   9.464  19.065  0.00  0.00    +0.000 C 
BRANCH  19  25
ATOM     20  C   UNL     1       9.157  11.644  21.252  0.00  0.00    +0.000 C 
ATOM     21  N   UNL     1       9.614  11.765  19.899  0.00  0.00    +0.000 N 
ATOM     22  C   UNL     1      10.189  12.860  19.345  0.00  0.00    +0.000 A 
ATOM     23  N   UNL     1      10.480  12.611  18.090  0.00  0.00    +0.000 NA
ATOM     24  N   UNL     1      10.075  11.328  17.815  0.00  0.00    +0.000 NA
ATOM     25  C   UNL     1       9.559  10.816  18.912  0.00  0.00    +0.000 A 
ENDBRANCH  19  25
ENDBRANCH  18  19
ENDBRANCH  12  18
ENDBRANCH   1  16
BRANCH   9  26
ATOM     26  C   UNL     1       3.103   7.334  18.252  0.00  0.00    +0.000 C 
ATOM     27  F   UNL     1       2.122   7.911  17.510  0.00  0.00    +0.000 F 
ATOM     28  F   UNL     1       2.737   7.510  19.549  0.00  0.00    +0.000 F 
ATOM     29  F   UNL     1       4.213   8.099  18.067  0.00  0.00    +0.000 F 
ENDBRANCH   9  26
TORSDOF 5
ENDMDL
MODEL 3
REMARK VINA RESULT:      -8.7      0.822      1.165
REMARK  Name = 
REMARK  6 active torsions:
REMARK  status: ('A' for Active; 'I' for Inactive)
REMARK    1  A    between atoms: C_1  and  N_2
REMARK    2  A    between atoms: C_6  and  C_7
REMARK    3  A    between atoms: C_7  and  C_8
REMARK    4  A    between atoms: C_8  and  C_9
REMARK    5  A    between atoms: C_13  and  N_14
REMARK    6  A    between atoms: C_22  and  C_23
REMARK                            x       y       z     vdW  Elec       q    Type
REMARK                         _______ _______ _______ _____ _____    ______ ____
ROOT
ATOM      1  N   UNL     1       3.870   4.416  19.067  0.00  0.00    +0.000 N 
ATOM      2  C   UNL     1       5.242   4.969  19.191  0.00  0.00    +0.000 C 
ATOM      3  C   UNL     1       5.732   4.904  17.775  0.00  0.00    +0.000 A 
ATOM      4  C   UNL     1       5.047   3.855  17.148  0.00  0.00    +0.000 A 
ATOM      5  C   UNL     1       5.129   3.605  15.793  0.00  0.00    +0.000 A 
ATOM      6  C   UNL     1       5.922   4.468  15.051  0.00  0.00    +0.000 A 
ATOM      7  F   UNL     1       5.969   4.334  13.719  0.00  0.00    +0.000 F 
ATOM      8  C   UNL     1       6.602   5.541  15.648  0.00  0.00    +0.000 A 
ATOM      9  C   UNL     1       6.519   5.783  17.035  0.00  0.00    +0.000 A 
ATOM     10  C   UNL     1       3.947   3.437  18.046  0.00  0.00    +0.000 C 
ATOM     11  O   UNL     1       3.157   2.546  17.784  0.00  0.00    +0.000 OA
ENDROOT
BRANCH   1  16
ATOM     12  C   UNL     1       2.018   7.427  19.986  0.00  0.00    +0.000 A 
ATOM     13  C   UNL     1       2.353   8.210  18.874  0.00  0.00    +0.000 A 
ATOM     14  C   UNL     1       2.779   7.615  17.692  0.00  0.00    +0.000 A 
ATOM     15  C   UNL     1       2.995   6.242  17.650  0.00  0.00    +0.000 A 
ATOM     16  C   UNL     1       2.915   5.494  18.835  0.00  0.00    +0.000 A 
ATOM     17  C   UNL     1       2.282   6.053  19.951  0.00  0.00    +0.000 A 
BRANCH  12  18
ATOM     18  C   UNL     1       1.495   8.070  21.247  0.00  0.00    +0.000 C 
BRANCH  18  19
ATOM     19  C   UNL     1       0.099   8.662  21.040  0.00  0.00    +0.000 C 
BRANCH  19  25
ATOM     20  C   UNL     1      -0.952  10.553  18.829  0.00  0.00    +0.000 C 
ATOM     21  N   UNL     1      -0.340  10.956  20.061  0.00  0.00    +0.000 N 
ATOM     22  C   UNL     1      -0.102  12.231  20.455  0.00  0.00    +0.000 A 
ATOM     23  N   UNL     1       0.468  12.221  21.637  0.00  0.00    +0.000 NA
ATOM     24  N   UNL     1       0.616  10.910  22.018  0.00  0.00    +0.000 NA
ATOM     25  C   UNL     1       0.120  10.147  21.067  0.00  0.00    +0.000 A 
ENDBRANCH  19  25
ENDBRANCH  18  19
ENDBRANCH  12  18
ENDBRANCH   1  16
BRANCH   9  26
ATOM     26  C   UNL     1       7.166   7.020  17.605  0.00  0.00    +0.000 C 
ATOM     27  F   UNL     1       7.788   6.824  18.798  0.00  0.00    +0.000 F 
ATOM     28  F   UNL     1       8.115   7.528  16.774  0.00  0.00    +0.000 F 
ATOM     29  F   UNL     1       6.269   8.023  17.810  0.00  0.00    +0.000 F 
ENDBRANCH   9  26
TORSDOF 5
ENDMDL
MODEL 4
REMARK VINA RESULT:      -8.6      0.773      1.267
REMARK  Name = 
REMARK  6 active torsions:
REMARK  status: ('A' for Active; 'I' for Inactive)
REMARK    1  A    between atoms: C_1  and  N_2
REMARK    2  A    between atoms: C_6  and  C_7
REMARK    3  A    between atoms: C_7  and  C_8
REMARK    4  A    between atoms: C_8  and  C_9
REMARK    5  A    between atoms: C_13  and  N_14
REMARK    6  A    between atoms: C_22  and  C_23
REMARK                            x       y       z     vdW  Elec       q    Type
REMARK                         _______ _______ _______ _____ _____    ______ ____
ROOT
ATOM      1  N   UNL     1       4.011   4.604  19.232  0.00  0.00    +0.000 N 
ATOM      2  C   UNL     1       5.371   5.193  19.330  0.00  0.00    +0.000 C 
ATOM      3  C   UNL     1       5.888   5.015  17.934  0.00  0.00    +0.000 A 
ATOM      4  C   UNL     1       5.234   3.902  17.389  0.00  0.00    +0.000 A 
ATOM      5  C   UNL     1       5.347   3.536  16.063  0.00  0.00    +0.000 A 
ATOM      6  C   UNL     1       6.137   4.348  15.262  0.00  0.00    +0.000 A 
ATOM      7  F   UNL     1       6.212   4.099  13.948  0.00  0.00    +0.000 F 
ATOM      8  C   UNL     1       6.787   5.481  15.775  0.00  0.00    +0.000 A 
ATOM      9  C   UNL     1       6.674   5.841  17.134  0.00  0.00    +0.000 A 
ATOM     10  C   UNL     1       4.126   3.541  18.301  0.00  0.00    +0.000 C 
ATOM     11  O   UNL     1       3.357   2.616  18.104  0.00  0.00    +0.000 OA
ENDROOT
BRANCH   1  16
ATOM     12  C   UNL     1       2.020   7.594  19.889  0.00  0.00    +0.000 A 
ATOM     13  C   UNL     1       2.400   8.335  18.762  0.00  0.00    +0.000 A 
ATOM     14  C   UNL     1       2.915   7.698  17.638  0.00  0.00    +0.000 A 
ATOM     15  C   UNL     1       3.173   6.333  17.677  0.00  0.00    +0.000 A 
ATOM     16  C   UNL     1       3.042   5.639  18.890  0.00  0.00    +0.000 A 
ATOM     17  C   UNL     1       2.325   6.229  19.937  0.00  0.00    +0.000 A 
BRANCH  12  18
ATOM     18  C   UNL     1       1.403   8.279  21.083  0.00  0.00    +0.000 C 
BRANCH  18  19
ATOM     19  C   UNL     1       0.117   9.017  20.706  0.00  0.00    +0.000 C 
BRANCH  19  25
ATOM     20  C   UNL     1      -1.041  10.660  23.059  0.00  0.00    +0.000 C 
ATOM     21  N   UNL     1      -0.297  11.184  21.952  0.00  0.00    +0.000 N 
ATOM     22  C   UNL     1       0.007  12.488  21.739  0.00  0.00    +0.000 A 
ATOM     23  N   UNL     1       0.698  12.597  20.629  0.00  0.00    +0.000 NA
ATOM     24  N   UNL     1       0.839  11.339  20.100  0.00  0.00    +0.000 NA
ATOM     25  C   UNL     1       0.243  10.485  20.905  0.00  0.00    +0.000 A 
ENDBRANCH  19  25
ENDBRANCH  18  19
ENDBRANCH  12  18
ENDBRANCH   1  16
BRANCH   9  26
ATOM     26  C   UNL     1       7.288   7.136  17.605  0.00  0.00    +0.000 C 
ATOM     27  F   UNL     1       8.144   7.702  16.714  0.00  0.00    +0.000 F 
ATOM     28  F   UNL     1       6.346   8.082  17.864  0.00  0.00    +0.000 F 
ATOM     29  F   UNL     1       7.994   6.982  18.758  0.00  0.00    +0.000 F 
ENDBRANCH   9  26
TORSDOF 5
ENDMDL
MODEL 5
REMARK VINA RESULT:      -8.6      0.872      1.549
REMARK  Name = 
REMARK  6 active torsions:
REMARK  status: ('A' for Active; 'I' for Inactive)
REMARK    1  A    between atoms: C_1  and  N_2
REMARK    2  A    between atoms: C_6  and  C_7
REMARK    3  A    between atoms: C_7  and  C_8
REMARK    4  A    between atoms: C_8  and  C_9
REMARK    5  A    between atoms: C_13  and  N_14
REMARK    6  A    between atoms: C_22  and  C_23
REMARK                            x       y       z     vdW  Elec       q    Type
REMARK                         _______ _______ _______ _____ _____    ______ ____
ROOT
ATOM      1  N   UNL     1       3.716   4.600  19.326  0.00  0.00    +0.000 N 
ATOM      2  C   UNL     1       5.107   5.117  19.368  0.00  0.00    +0.000 C 
ATOM      3  C   UNL     1       5.556   4.920  17.952  0.00  0.00    +0.000 A 
ATOM      4  C   UNL     1       4.823   3.845  17.431  0.00  0.00    +0.000 A 
ATOM      5  C   UNL     1       4.861   3.481  16.100  0.00  0.00    +0.000 A 
ATOM      6  C   UNL     1       5.658   4.255  15.270  0.00  0.00    +0.000 A 
ATOM      7  F   UNL     1       5.665   4.009  13.953  0.00  0.00    +0.000 F 
ATOM      8  C   UNL     1       6.387   5.350  15.758  0.00  0.00    +0.000 A 
ATOM      9  C   UNL     1       6.349   5.708  17.122  0.00  0.00    +0.000 A 
ATOM     10  C   UNL     1       3.736   3.538  18.388  0.00  0.00    +0.000 C 
ATOM     11  O   UNL     1       2.913   2.654  18.221  0.00  0.00    +0.000 OA
ENDROOT
BRANCH   1  16
ATOM     12  C   UNL     1       1.925   7.695  20.068  0.00  0.00    +0.000 A 
ATOM     13  C   UNL     1       2.288   8.412  18.921  0.00  0.00    +0.000 A 
ATOM     14  C   UNL     1       2.711   7.747  17.776  0.00  0.00    +0.000 A 
ATOM     15  C   UNL     1       2.897   6.369  17.807  0.00  0.00    +0.000 A 
ATOM     16  C   UNL     1       2.789   5.686  19.028  0.00  0.00    +0.000 A 
ATOM     17  C   UNL     1       2.158   6.315  20.107  0.00  0.00    +0.000 A 
BRANCH  12  18
ATOM     18  C   UNL     1       1.405   8.413  21.289  0.00  0.00    +0.000 C 
BRANCH  18  19
ATOM     19  C   UNL     1      -0.118   8.559  21.251  0.00  0.00    +0.000 C 
BRANCH  19  25
ATOM     20  C   UNL     1      -0.966  10.917  23.066  0.00  0.00    +0.000 C 
ATOM     21  N   UNL     1      -0.919  10.931  21.633  0.00  0.00    +0.000 N 
ATOM     22  C   UNL     1      -1.256  11.972  20.833  0.00  0.00    +0.000 A 
ATOM     23  N   UNL     1      -1.088  11.628  19.578  0.00  0.00    +0.000 NA
ATOM     24  N   UNL     1      -0.641  10.330  19.558  0.00  0.00    +0.000 NA
ATOM     25  C   UNL     1      -0.533   9.913  20.801  0.00  0.00    +0.000 A 
ENDBRANCH  19  25
ENDBRANCH  18  19
ENDBRANCH  12  18
ENDBRANCH   1  16
BRANCH   9  26
ATOM     26  C   UNL     1       7.049   6.967  17.570  0.00  0.00    +0.000 C 
ATOM     27  F   UNL     1       7.711   6.845  18.751  0.00  0.00    +0.000 F 
ATOM     28  F   UNL     1       7.977   7.384  16.668  0.00  0.00    +0.000 F 
ATOM     29  F   UNL     1       6.185   8.007  17.731  0.00  0.00    +0.000 F 
ENDBRANCH   9  26
TORSDOF 5
ENDMDL
MODEL 6
REMARK VINA RESULT:      -8.5      4.361      6.324
REMARK  Name = 
REMARK  6 active torsions:
REMARK  status: ('A' for Active; 'I' for Inactive)
REMARK    1  A    between atoms: C_1  and  N_2
REMARK    2  A    between atoms: C_6  and  C_7
REMARK    3  A    between atoms: C_7  and  C_8
REMARK    4  A    between atoms: C_8  and  C_9
REMARK    5  A    between atoms: C_13  and  N_14
REMARK    6  A    between atoms: C_22  and  C_23
REMARK                            x       y       z     vdW  Elec       q    Type
REMARK                         _______ _______ _______ _____ _____    ______ ____
ROOT
ATOM      1  N   UNL     1       6.116   5.410  15.589  0.00  0.00    +0.000 N 
ATOM      2  C   UNL     1       4.916   6.258  15.803  0.00  0.00    +0.000 C 
ATOM      3  C   UNL     1       4.138   5.450  16.798  0.00  0.00    +0.000 A 
ATOM      4  C   UNL     1       4.486   4.107  16.603  0.00  0.00    +0.000 A 
ATOM      5  C   UNL     1       4.080   3.093  17.447  0.00  0.00    +0.000 A 
ATOM      6  C   UNL     1       3.312   3.468  18.540  0.00  0.00    +0.000 A 
ATOM      7  F   UNL     1       2.965   2.543  19.445  0.00  0.00    +0.000 F 
ATOM      8  C   UNL     1       2.966   4.808  18.773  0.00  0.00    +0.000 A 
ATOM      9  C   UNL     1       3.377   5.835  17.899  0.00  0.00    +0.000 A 
ATOM     10  C   UNL     1       5.659   4.073  15.702  0.00  0.00    +0.000 C 
ATOM     11  O   UNL     1       6.211   3.047  15.342  0.00  0.00    +0.000 OA
ENDROOT
BRANCH   1  16
ATOM     12  C   UNL     1       7.812   7.691  17.881  0.00  0.00    +0.000 A 
ATOM     13  C   UNL     1       7.895   6.834  18.987  0.00  0.00    +0.000 A 
ATOM     14  C   UNL     1       7.810   5.456  18.820  0.00  0.00    +0.000 A 
ATOM     15  C   UNL     1       7.517   4.930  17.567  0.00  0.00    +0.000 A 
ATOM     16  C   UNL     1       7.172   5.795  16.518  0.00  0.00    +0.000 A 
ATOM     17  C   UNL     1       7.471   7.157  16.634  0.00  0.00    +0.000 A 
BRANCH  12  18
ATOM     18  C   UNL     1       7.967   9.182  18.055  0.00  0.00    +0.000 C 
BRANCH  18  19
ATOM     19  C   UNL     1       9.325   9.540  18.662  0.00  0.00    +0.000 C 
BRANCH  19  25
ATOM     20  C   UNL     1       9.515  12.495  17.765  0.00  0.00    +0.000 C 
ATOM     21  N   UNL     1       9.344  12.033  19.111  0.00  0.00    +0.000 N 
ATOM     22  C   UNL     1       9.257  12.811  20.218  0.00  0.00    +0.000 A 
ATOM     23  N   UNL     1       9.103  12.048  21.274  0.00  0.00    +0.000 NA
ATOM     24  N   UNL     1       9.101  10.743  20.849  0.00  0.00    +0.000 NA
ATOM     25  C   UNL     1       9.239  10.736  19.541  0.00  0.00    +0.000 A 
ENDBRANCH  19  25
ENDBRANCH  18  19
ENDBRANCH  12  18
ENDBRANCH   1  16
BRANCH   9  26
ATOM     26  C   UNL     1       3.087   7.270  18.263  0.00  0.00    +0.000 C 
ATOM     27  F   UNL     1       2.031   7.810  17.599  0.00  0.00    +0.000 F 
ATOM     28  F   UNL     1       2.803   7.413  19.585  0.00  0.00    +0.000 F 
ATOM     29  F   UNL     1       4.145   8.089  18.014  0.00  0.00    +0.000 F 
ENDBRANCH   9  26
TORSDOF 5
ENDMDL
MODEL 7
REMARK VINA RESULT:      -8.4      4.684      6.553
REMARK  Name = 
REMARK  6 active torsions:
REMARK  status: ('A' for Active; 'I' for Inactive)
REMARK    1  A    between atoms: C_1  and  N_2
REMARK    2  A    between atoms: C_6  and  C_7
REMARK    3  A    between atoms: C_7  and  C_8
REMARK    4  A    between atoms: C_8  and  C_9
REMARK    5  A    between atoms: C_13  and  N_14
REMARK    6  A    between atoms: C_22  and  C_23
REMARK                            x       y       z     vdW  Elec       q    Type
REMARK                         _______ _______ _______ _____ _____    ______ ____
ROOT
ATOM      1  N   UNL     1       5.869   5.914  15.839  0.00  0.00    +0.000 N 
ATOM      2  C   UNL     1       4.693   6.419  16.591  0.00  0.00    +0.000 C 
ATOM      3  C   UNL     1       4.104   5.152  17.135  0.00  0.00    +0.000 A 
ATOM      4  C   UNL     1       4.456   4.121  16.255  0.00  0.00    +0.000 A 
ATOM      5  C   UNL     1       4.217   2.788  16.521  0.00  0.00    +0.000 A 
ATOM      6  C   UNL     1       3.618   2.498  17.738  0.00  0.00    +0.000 A 
ATOM      7  F   UNL     1       3.444   1.218  18.095  0.00  0.00    +0.000 F 
ATOM      8  C   UNL     1       3.274   3.508  18.650  0.00  0.00    +0.000 A 
ATOM      9  C   UNL     1       3.513   4.868  18.364  0.00  0.00    +0.000 A 
ATOM     10  C   UNL     1       5.474   4.654  15.323  0.00  0.00    +0.000 C 
ATOM     11  O   UNL     1       5.993   3.999  14.435  0.00  0.00    +0.000 OA
ENDROOT
BRANCH   1  16
ATOM     12  C   UNL     1       8.084   7.274  18.404  0.00  0.00    +0.000 A 
ATOM     13  C   UNL     1       8.123   6.153  19.244  0.00  0.00    +0.000 A 
ATOM     14  C   UNL     1       7.811   4.891  18.754  0.00  0.00    +0.000 A 
ATOM     15  C   UNL     1       7.336   4.754  17.454  0.00  0.00    +0.000 A 
ATOM     16  C   UNL     1       7.045   5.901  16.700  0.00  0.00    +0.000 A 
ATOM     17  C   UNL     1       7.562   7.134  17.113  0.00  0.00    +0.000 A 
BRANCH  12  18
ATOM     18  C   UNL     1       8.485   8.633  18.921  0.00  0.00    +0.000 C 
BRANCH  18  19
ATOM     19  C   UNL     1       8.371   9.705  17.835  0.00  0.00    +0.000 C 
BRANCH  19  25
ATOM     20  C   UNL     1       7.617  12.620  17.120  0.00  0.00    +0.000 C 
ATOM     21  N   UNL     1       8.789  12.204  17.833  0.00  0.00    +0.000 N 
ATOM     22  C   UNL     1       9.772  13.014  18.296  0.00  0.00    +0.000 A 
ATOM     23  N   UNL     1      10.684  12.289  18.900  0.00  0.00    +0.000 NA
ATOM     24  N   UNL     1      10.293  10.975  18.820  0.00  0.00    +0.000 NA
ATOM     25  C   UNL     1       9.144  10.927  18.181  0.00  0.00    +0.000 A 
ENDBRANCH  19  25
ENDBRANCH  18  19
ENDBRANCH  12  18
ENDBRANCH   1  16
BRANCH   9  26
ATOM     26  C   UNL     1       3.241   5.902  19.429  0.00  0.00    +0.000 C 
ATOM     27  F   UNL     1       4.351   6.556  19.865  0.00  0.00    +0.000 F 
ATOM     28  F   UNL     1       2.390   6.869  18.995  0.00  0.00    +0.000 F 
ATOM     29  F   UNL     1       2.665   5.360  20.537  0.00  0.00    +0.000 F 
ENDBRANCH   9  26
TORSDOF 5
ENDMDL
MODEL 8
REMARK VINA RESULT:      -8.3      3.772      5.129
REMARK  Name = 
REMARK  6 active torsions:
REMARK  status: ('A' for Active; 'I' for Inactive)
REMARK    1  A    between atoms: C_1  and  N_2
REMARK    2  A    between atoms: C_6  and  C_7
REMARK    3  A    between atoms: C_7  and  C_8
REMARK    4  A    between atoms: C_8  and  C_9
REMARK    5  A    between atoms: C_13  and  N_14
REMARK    6  A    between atoms: C_22  and  C_23
REMARK                            x       y       z     vdW  Elec       q    Type
REMARK                         _______ _______ _______ _____ _____    ______ ____
ROOT
ATOM      1  N   UNL     1       2.793   6.031  17.483  0.00  0.00    +0.000 N 
ATOM      2  C   UNL     1       1.780   4.976  17.738  0.00  0.00    +0.000 C 
ATOM      3  C   UNL     1       2.560   3.985  18.548  0.00  0.00    +0.000 A 
ATOM      4  C   UNL     1       3.905   4.118  18.182  0.00  0.00    +0.000 A 
ATOM      5  C   UNL     1       4.933   3.472  18.839  0.00  0.00    +0.000 A 
ATOM      6  C   UNL     1       4.575   2.679  19.919  0.00  0.00    +0.000 A 
ATOM      7  F   UNL     1       5.534   2.100  20.653  0.00  0.00    +0.000 F 
ATOM      8  C   UNL     1       3.238   2.544  20.323  0.00  0.00    +0.000 A 
ATOM      9  C   UNL     1       2.194   3.201  19.640  0.00  0.00    +0.000 A 
ATOM     10  C   UNL     1       4.029   5.347  17.367  0.00  0.00    +0.000 C 
ATOM     11  O   UNL     1       5.080   5.750  16.899  0.00  0.00    +0.000 OA
ENDROOT
BRANCH   1  16
ATOM     12  C   UNL     1       1.498   9.064  19.052  0.00  0.00    +0.000 A 
ATOM     13  C   UNL     1       1.201   8.523  20.310  0.00  0.00    +0.000 A 
ATOM     14  C   UNL     1       1.820   7.355  20.741  0.00  0.00    +0.000 A 
ATOM     15  C   UNL     1       2.643   6.649  19.871  0.00  0.00    +0.000 A 
ATOM     16  C   UNL     1       2.731   7.047  18.528  0.00  0.00    +0.000 A 
ATOM     17  C   UNL     1       2.291   8.325  18.167  0.00  0.00    +0.000 A 
BRANCH  12  18
ATOM     18  C   UNL     1       0.874  10.365  18.611  0.00  0.00    +0.000 C 
BRANCH  18  19
ATOM     19  C   UNL     1      -0.496  10.581  19.258  0.00  0.00    +0.000 C 
BRANCH  19  25
ATOM     20  C   UNL     1      -3.085  12.270  19.389  0.00  0.00    +0.000 C 
ATOM     21  N   UNL     1      -2.729  11.353  18.346  0.00  0.00    +0.000 N 
ATOM     22  C   UNL     1      -3.476  11.058  17.253  0.00  0.00    +0.000 A 
ATOM     23  N   UNL     1      -2.837  10.181  16.515  0.00  0.00    +0.000 NA
ATOM     24  N   UNL     1      -1.653   9.889  17.145  0.00  0.00    +0.000 NA
ATOM     25  C   UNL     1      -1.586  10.604  18.248  0.00  0.00    +0.000 A 
ENDBRANCH  19  25
ENDBRANCH  18  19
ENDBRANCH  12  18
ENDBRANCH   1  16
BRANCH   9  26
ATOM     26  C   UNL     1       0.792   3.124  20.191  0.00  0.00    +0.000 C 
ATOM     27  F   UNL     1       0.202   4.334  20.382  0.00  0.00    +0.000 F 
ATOM     28  F   UNL     1      -0.042   2.432  19.369  0.00  0.00    +0.000 F 
ATOM     29  F   UNL     1       0.746   2.490  21.394  0.00  0.00    +0.000 F 
ENDBRANCH   9  26
TORSDOF 5
ENDMDL
MODEL 9
REMARK VINA RESULT:      -8.2      4.250      7.758
REMARK  Name = 
REMARK  6 active torsions:
REMARK  status: ('A' for Active; 'I' for Inactive)
REMARK    1  A    between atoms: C_1  and  N_2
REMARK    2  A    between atoms: C_6  and  C_7
REMARK    3  A    between atoms: C_7  and  C_8
REMARK    4  A    between atoms: C_8  and  C_9
REMARK    5  A    between atoms: C_13  and  N_14
REMARK    6  A    between atoms: C_22  and  C_23
REMARK                            x       y       z     vdW  Elec       q    Type
REMARK                         _______ _______ _______ _____ _____    ______ ____
ROOT
ATOM      1  N   UNL     1       2.612   7.345  19.355  0.00  0.00    +0.000 N 
ATOM      2  C   UNL     1       2.288   8.135  20.570  0.00  0.00    +0.000 C 
ATOM      3  C   UNL     1       1.206   9.045  20.071  0.00  0.00    +0.000 A 
ATOM      4  C   UNL     1       1.415   9.221  18.696  0.00  0.00    +0.000 A 
ATOM      5  C   UNL     1       0.518   9.873  17.875  0.00  0.00    +0.000 A 
ATOM      6  C   UNL     1      -0.642  10.341  18.474  0.00  0.00    +0.000 A 
ATOM      7  F   UNL     1      -1.592  10.901  17.713  0.00  0.00    +0.000 F 
ATOM      8  C   UNL     1      -0.889  10.161  19.844  0.00  0.00    +0.000 A 
ATOM      9  C   UNL     1       0.039   9.502  20.677  0.00  0.00    +0.000 A 
ATOM     10  C   UNL     1       2.432   8.235  18.267  0.00  0.00    +0.000 C 
ATOM     11  O   UNL     1       2.831   8.125  17.120  0.00  0.00    +0.000 OA
ENDROOT
BRANCH   1  16
ATOM     12  C   UNL     1       1.951   3.856  18.505  0.00  0.00    +0.000 A 
ATOM     13  C   UNL     1       1.598   3.405  19.784  0.00  0.00    +0.000 A 
ATOM     14  C   UNL     1       1.166   4.301  20.755  0.00  0.00    +0.000 A 
ATOM     15  C   UNL     1       1.202   5.667  20.498  0.00  0.00    +0.000 A 
ATOM     16  C   UNL     1       1.803   6.132  19.318  0.00  0.00    +0.000 A 
ATOM     17  C   UNL     1       2.028   5.233  18.270  0.00  0.00    +0.000 A 
BRANCH  12  18
ATOM     18  C   UNL     1       2.358   2.876  17.433  0.00  0.00    +0.000 C 
BRANCH  18  19
ATOM     19  C   UNL     1       3.732   2.267  17.719  0.00  0.00    +0.000 C 
BRANCH  19  25
ATOM     20  C   UNL     1       5.181   4.232  15.818  0.00  0.00    +0.000 C 
ATOM     21  N   UNL     1       5.361   4.146  17.237  0.00  0.00    +0.000 N 
ATOM     22  C   UNL     1       6.209   4.897  17.981  0.00  0.00    +0.000 A 
ATOM     23  N   UNL     1       6.108   4.547  19.242  0.00  0.00    +0.000 NA
ATOM     24  N   UNL     1       5.181   3.537  19.321  0.00  0.00    +0.000 NA
ATOM     25  C   UNL     1       4.725   3.302  18.109  0.00  0.00    +0.000 A 
ENDBRANCH  19  25
ENDBRANCH  18  19
ENDBRANCH  12  18
ENDBRANCH   1  16
BRANCH   9  26
ATOM     26  C   UNL     1      -0.332   9.222  22.112  0.00  0.00    +0.000 C 
ATOM     27  F   UNL     1      -1.170  10.143  22.659  0.00  0.00    +0.000 F 
ATOM     28  F   UNL     1      -0.959   8.024  22.253  0.00  0.00    +0.000 F 
ATOM     29  F   UNL     1       0.758   9.176  22.926  0.00  0.00    +0.000 F 
ENDBRANCH   9  26
TORSDOF 5
ENDMDL
