MODEL 1
REMARK VINA RESULT:      -9.4      0.000      0.000
REMARK  Name = 
REMARK  4 active torsions:
REMARK  status: ('A' for Active; 'I' for Inactive)
REMARK    1  A    between atoms: C_2  and  C_19
REMARK    2  A    between atoms: N_3  and  C_4
REMARK    3  A    between atoms: C_8  and  S_9
REMARK    4  A    between atoms: S_9  and  N_12
REMARK                            x       y       z     vdW  Elec       q    Type
REMARK                         _______ _______ _______ _____ _____    ______ ____
ROOT
ATOM      1  C   UNL     1       3.253   5.688  18.185  0.00  0.00    +0.000 A 
ATOM      2  C   UNL     1       2.706   4.501  17.706  0.00  0.00    +0.000 A 
ATOM      3  C   UNL     1       3.518   3.571  17.048  0.00  0.00    +0.000 A 
ATOM      4  C   UNL     1       4.879   3.825  16.863  0.00  0.00    +0.000 A 
ATOM      5  C   UNL     1       5.439   4.989  17.384  0.00  0.00    +0.000 A 
ATOM      6  C   UNL     1       4.627   5.927  18.029  0.00  0.00    +0.000 A 
ENDROOT
BRANCH   1   9
ATOM      7  O   UNL     1       2.580   8.503  17.335  0.00  0.00    +0.000 OA
ATOM      8  C   UNL     1       2.263   8.020  18.416  0.00  0.00    +0.000 C 
ATOM      9  N   UNL     1       2.518   6.712  18.805  0.00  0.00    +0.000 N 
ATOM     10  H   UNL     1       2.161   6.488  19.728  0.00  0.00    +0.000 HD
BRANCH   8  11
ATOM     11  C   UNL     1       1.579   8.796  19.464  0.00  0.00    +0.000 A 
ATOM     12  C   UNL     1       1.368   8.481  20.798  0.00  0.00    +0.000 A 
ATOM     13  C   UNL     1       0.509   9.426  21.477  0.00  0.00    +0.000 A 
ATOM     14  C   UNL     1      -0.016   9.443  22.794  0.00  0.00    +0.000 A 
ATOM     15  C   UNL     1      -0.921  10.442  23.186  0.00  0.00    +0.000 A 
ATOM     16  C   UNL     1      -1.295  11.443  22.300  0.00  0.00    +0.000 A 
ATOM     17  C   UNL     1      -0.756  11.478  21.016  0.00  0.00    +0.000 A 
ATOM     18  C   UNL     1       0.134  10.463  20.624  0.00  0.00    +0.000 A 
ATOM     19  S   UNL     1       0.881  10.320  19.094  0.00  0.00    +0.000 S 
ENDBRANCH   8  11
ENDBRANCH   1   9
BRANCH   5  20
ATOM     20  S   UNL     1       7.169   5.349  17.155  0.00  0.00    +0.000 S 
ATOM     21  O   UNL     1       7.529   6.432  18.046  0.00  0.00    +0.000 OA
ATOM     22  O   UNL     1       7.878   4.089  17.174  0.00  0.00    +0.000 OA
BRANCH  20  23
ATOM     23  N   UNL     1       7.227   5.899  15.589  0.00  0.00    +0.000 N 
ATOM     24  C   UNL     1       7.008   5.179  14.422  0.00  0.00    +0.000 C 
ATOM     25  N   UNL     1       7.537   5.604  13.322  0.00  0.00    +0.000 NA
ATOM     26  C   UNL     1       7.155   4.602  12.303  0.00  0.00    +0.000 C 
ATOM     27  C   UNL     1       6.704   3.375  13.076  0.00  0.00    +0.000 C 
ATOM     28  C   UNL     1       6.139   3.971  14.342  0.00  0.00    +0.000 C 
ATOM     29  H   UNL     1       7.691   6.799  15.484  0.00  0.00    +0.000 HD
ENDBRANCH  20  23
ENDBRANCH   5  20
TORSDOF 4
ENDMDL
MODEL 2
REMARK VINA RESULT:      -9.1      1.360      1.511
REMARK  Name = 
REMARK  4 active torsions:
REMARK  status: ('A' for Active; 'I' for Inactive)
REMARK    1  A    between atoms: C_2  and  C_19
REMARK    2  A    between atoms: N_3  and  C_4
REMARK    3  A    between atoms: C_8  and  S_9
REMARK    4  A    between atoms: S_9  and  N_12
REMARK                            x       y       z     vdW  Elec       q    Type
REMARK                         _______ _______ _______ _____ _____    ______ ____
ROOT
ATOM      1  C   UNL     1       3.435   5.726  19.530  0.00  0.00    +0.000 A 
ATOM      2  C   UNL     1       3.045   4.397  19.395  0.00  0.00    +0.000 A 
ATOM      3  C   UNL     1       3.971   3.434  18.978  0.00  0.00    +0.000 A 
ATOM      4  C   UNL     1       5.289   3.796  18.690  0.00  0.00    +0.000 A 
ATOM      5  C   UNL     1       5.694   5.117  18.872  0.00  0.00    +0.000 A 
ATOM      6  C   UNL     1       4.768   6.083  19.275  0.00  0.00    +0.000 A 
ENDROOT
BRANCH   1   9
ATOM      7  O   UNL     1       2.289   8.027  17.953  0.00  0.00    +0.000 OA
ATOM      8  C   UNL     1       2.098   7.856  19.151  0.00  0.00    +0.000 C 
ATOM      9  N   UNL     1       2.573   6.777  19.884  0.00  0.00    +0.000 N 
ATOM     10  H   UNL     1       2.296   6.797  20.859  0.00  0.00    +0.000 HD
BRANCH   8  11
ATOM     11  C   UNL     1       1.345   8.813  19.980  0.00  0.00    +0.000 A 
ATOM     12  C   UNL     1       1.065   8.772  21.338  0.00  0.00    +0.000 A 
ATOM     13  C   UNL     1       0.154   9.812  21.762  0.00  0.00    +0.000 A 
ATOM     14  C   UNL     1      -0.443  10.085  23.019  0.00  0.00    +0.000 A 
ATOM     15  C   UNL     1      -1.384  11.118  23.150  0.00  0.00    +0.000 A 
ATOM     16  C   UNL     1      -1.725  11.905  22.059  0.00  0.00    +0.000 A 
ATOM     17  C   UNL     1      -1.116  11.691  20.824  0.00  0.00    +0.000 A 
ATOM     18  C   UNL     1      -0.189  10.642  20.696  0.00  0.00    +0.000 A 
ATOM     19  S   UNL     1       0.643  10.209  19.269  0.00  0.00    +0.000 S 
ENDBRANCH   8  11
ENDBRANCH   1   9
BRANCH   5  20
ATOM     20  S   UNL     1       7.365   5.615  18.505  0.00  0.00    +0.000 S 
ATOM     21  O   UNL     1       7.377   7.049  18.304  0.00  0.00    +0.000 OA
ATOM     22  O   UNL     1       8.228   4.982  19.478  0.00  0.00    +0.000 OA
BRANCH  20  23
ATOM     23  N   UNL     1       7.662   4.866  17.053  0.00  0.00    +0.000 N 
ATOM     24  C   UNL     1       6.834   4.804  15.939  0.00  0.00    +0.000 C 
ATOM     25  N   UNL     1       6.989   3.828  15.105  0.00  0.00    +0.000 NA
ATOM     26  C   UNL     1       5.941   4.031  14.082  0.00  0.00    +0.000 C 
ATOM     27  C   UNL     1       4.944   5.001  14.695  0.00  0.00    +0.000 C 
ATOM     28  C   UNL     1       5.813   5.836  15.604  0.00  0.00    +0.000 C 
ATOM     29  H   UNL     1       8.433   4.203  17.080  0.00  0.00    +0.000 HD
ENDBRANCH  20  23
ENDBRANCH   5  20
TORSDOF 4
ENDMDL
MODEL 3
REMARK VINA RESULT:      -9.1      3.575      9.375
REMARK  Name = 
REMARK  4 active torsions:
REMARK  status: ('A' for Active; 'I' for Inactive)
REMARK    1  A    between atoms: C_2  and  C_19
REMARK    2  A    between atoms: N_3  and  C_4
REMARK    3  A    between atoms: C_8  and  S_9
REMARK    4  A    between atoms: S_9  and  N_12
REMARK                            x       y       z     vdW  Elec       q    Type
REMARK                         _______ _______ _______ _____ _____    ______ ____
ROOT
ATOM      1  C   UNL     1       1.089   8.893  20.583  0.00  0.00    +0.000 A 
ATOM      2  C   UNL     1       0.865   8.695  21.943  0.00  0.00    +0.000 A 
ATOM      3  C   UNL     1       0.153   9.647  22.681  0.00  0.00    +0.000 A 
ATOM      4  C   UNL     1      -0.335  10.802  22.064  0.00  0.00    +0.000 A 
ATOM      5  C   UNL     1      -0.155  10.978  20.694  0.00  0.00    +0.000 A 
ATOM      6  C   UNL     1       0.569  10.036  19.958  0.00  0.00    +0.000 A 
ENDROOT
BRANCH   1   9
ATOM      7  O   UNL     1       1.639   5.930  20.722  0.00  0.00    +0.000 OA
ATOM      8  C   UNL     1       2.121   6.677  19.878  0.00  0.00    +0.000 C 
ATOM      9  N   UNL     1       1.840   8.032  19.766  0.00  0.00    +0.000 N 
ATOM     10  H   UNL     1       2.319   8.481  18.992  0.00  0.00    +0.000 HD
BRANCH   8  11
ATOM     11  C   UNL     1       3.098   6.219  18.876  0.00  0.00    +0.000 A 
ATOM     12  C   UNL     1       3.698   6.924  17.844  0.00  0.00    +0.000 A 
ATOM     13  C   UNL     1       4.481   6.087  16.962  0.00  0.00    +0.000 A 
ATOM     14  C   UNL     1       5.184   6.378  15.765  0.00  0.00    +0.000 A 
ATOM     15  C   UNL     1       5.799   5.350  15.034  0.00  0.00    +0.000 A 
ATOM     16  C   UNL     1       5.751   4.038  15.483  0.00  0.00    +0.000 A 
ATOM     17  C   UNL     1       5.110   3.731  16.681  0.00  0.00    +0.000 A 
ATOM     18  C   UNL     1       4.480   4.763  17.399  0.00  0.00    +0.000 A 
ATOM     19  S   UNL     1       3.628   4.586  18.869  0.00  0.00    +0.000 S 
ENDBRANCH   8  11
ENDBRANCH   1   9
BRANCH   5  20
ATOM     20  S   UNL     1      -0.754  12.444  19.878  0.00  0.00    +0.000 S 
ATOM     21  O   UNL     1      -0.791  13.520  20.848  0.00  0.00    +0.000 OA
ATOM     22  O   UNL     1      -0.028  12.574  18.634  0.00  0.00    +0.000 OA
BRANCH  20  23
ATOM     23  N   UNL     1      -2.311  12.032  19.475  0.00  0.00    +0.000 N 
ATOM     24  C   UNL     1      -2.764  11.461  18.291  0.00  0.00    +0.000 C 
ATOM     25  N   UNL     1      -3.999  11.637  17.951  0.00  0.00    +0.000 NA
ATOM     26  C   UNL     1      -4.136  10.953  16.647  0.00  0.00    +0.000 C 
ATOM     27  C   UNL     1      -2.720  10.744  16.137  0.00  0.00    +0.000 C 
ATOM     28  C   UNL     1      -1.927  10.596  17.412  0.00  0.00    +0.000 C 
ATOM     29  H   UNL     1      -3.018  12.451  20.073  0.00  0.00    +0.000 HD
ENDBRANCH  20  23
ENDBRANCH   5  20
TORSDOF 4
ENDMDL
MODEL 4
REMARK VINA RESULT:      -9.1      1.511      1.639
REMARK  Name = 
REMARK  4 active torsions:
REMARK  status: ('A' for Active; 'I' for Inactive)
REMARK    1  A    between atoms: C_2  and  C_19
REMARK    2  A    between atoms: N_3  and  C_4
REMARK    3  A    between atoms: C_8  and  S_9
REMARK    4  A    between atoms: S_9  and  N_12
REMARK                            x       y       z     vdW  Elec       q    Type
REMARK                         _______ _______ _______ _____ _____    ______ ____
ROOT
ATOM      1  C   UNL     1       2.961   5.441  19.986  0.00  0.00    +0.000 A 
ATOM      2  C   UNL     1       2.644   4.152  20.405  0.00  0.00    +0.000 A 
ATOM      3  C   UNL     1       3.444   3.073  20.013  0.00  0.00    +0.000 A 
ATOM      4  C   UNL     1       4.560   3.277  19.197  0.00  0.00    +0.000 A 
ATOM      5  C   UNL     1       4.907   4.572  18.818  0.00  0.00    +0.000 A 
ATOM      6  C   UNL     1       4.101   5.650  19.196  0.00  0.00    +0.000 A 
ENDROOT
BRANCH   1   9
ATOM      7  O   UNL     1       2.321   7.912  18.378  0.00  0.00    +0.000 OA
ATOM      8  C   UNL     1       1.954   7.733  19.534  0.00  0.00    +0.000 C 
ATOM      9  N   UNL     1       2.194   6.583  20.273  0.00  0.00    +0.000 N 
ATOM     10  H   UNL     1       1.794   6.611  21.205  0.00  0.00    +0.000 HD
BRANCH   8  11
ATOM     11  C   UNL     1       1.219   8.753  20.301  0.00  0.00    +0.000 A 
ATOM     12  C   UNL     1       0.782   8.720  21.617  0.00  0.00    +0.000 A 
ATOM     13  C   UNL     1      -0.053   9.848  21.967  0.00  0.00    +0.000 A 
ATOM     14  C   UNL     1      -0.758  10.164  23.156  0.00  0.00    +0.000 A 
ATOM     15  C   UNL     1      -1.589  11.294  23.211  0.00  0.00    +0.000 A 
ATOM     16  C   UNL     1      -1.712  12.134  22.113  0.00  0.00    +0.000 A 
ATOM     17  C   UNL     1      -0.992  11.875  20.949  0.00  0.00    +0.000 A 
ATOM     18  C   UNL     1      -0.177  10.730  20.894  0.00  0.00    +0.000 A 
ATOM     19  S   UNL     1       0.762  10.231  19.558  0.00  0.00    +0.000 S 
ENDBRANCH   8  11
ENDBRANCH   1   9
BRANCH   5  20
ATOM     20  S   UNL     1       6.317   4.866  17.770  0.00  0.00    +0.000 S 
ATOM     21  O   UNL     1       6.250   6.232  17.292  0.00  0.00    +0.000 OA
ATOM     22  O   UNL     1       7.483   4.366  18.464  0.00  0.00    +0.000 OA
BRANCH  20  23
ATOM     23  N   UNL     1       6.050   3.837  16.494  0.00  0.00    +0.000 N 
ATOM     24  C   UNL     1       6.410   4.015  15.164  0.00  0.00    +0.000 C 
ATOM     25  N   UNL     1       5.742   3.388  14.252  0.00  0.00    +0.000 NA
ATOM     26  C   UNL     1       6.340   3.826  12.972  0.00  0.00    +0.000 C 
ATOM     27  C   UNL     1       7.137   5.079  13.294  0.00  0.00    +0.000 C 
ATOM     28  C   UNL     1       7.569   4.839  14.719  0.00  0.00    +0.000 C 
ATOM     29  H   UNL     1       5.356   3.117  16.682  0.00  0.00    +0.000 HD
ENDBRANCH  20  23
ENDBRANCH   5  20
TORSDOF 4
ENDMDL
MODEL 5
REMARK VINA RESULT:      -9.1      1.484      1.927
REMARK  Name = 
REMARK  4 active torsions:
REMARK  status: ('A' for Active; 'I' for Inactive)
REMARK    1  A    between atoms: C_2  and  C_19
REMARK    2  A    between atoms: N_3  and  C_4
REMARK    3  A    between atoms: C_8  and  S_9
REMARK    4  A    between atoms: S_9  and  N_12
REMARK                            x       y       z     vdW  Elec       q    Type
REMARK                         _______ _______ _______ _____ _____    ______ ____
ROOT
ATOM      1  C   UNL     1       3.317   6.044  19.086  0.00  0.00    +0.000 A 
ATOM      2  C   UNL     1       3.492   4.816  19.717  0.00  0.00    +0.000 A 
ATOM      3  C   UNL     1       4.431   3.903  19.224  0.00  0.00    +0.000 A 
ATOM      4  C   UNL     1       5.196   4.213  18.097  0.00  0.00    +0.000 A 
ATOM      5  C   UNL     1       5.057   5.461  17.493  0.00  0.00    +0.000 A 
ATOM      6  C   UNL     1       4.110   6.368  17.975  0.00  0.00    +0.000 A 
ENDROOT
BRANCH   1   9
ATOM      7  O   UNL     1       2.512   8.687  17.875  0.00  0.00    +0.000 OA
ATOM      8  C   UNL     1       2.044   8.240  18.916  0.00  0.00    +0.000 C 
ATOM      9  N   UNL     1       2.363   7.004  19.462  0.00  0.00    +0.000 N 
ATOM     10  H   UNL     1       1.858   6.798  20.318  0.00  0.00    +0.000 HD
BRANCH   8  11
ATOM     11  C   UNL     1       1.084   8.991  19.743  0.00  0.00    +0.000 A 
ATOM     12  C   UNL     1       0.310  10.093  19.413  0.00  0.00    +0.000 A 
ATOM     13  C   UNL     1      -0.391  10.656  20.546  0.00  0.00    +0.000 A 
ATOM     14  C   UNL     1      -1.213  11.806  20.668  0.00  0.00    +0.000 A 
ATOM     15  C   UNL     1      -1.707  12.196  21.922  0.00  0.00    +0.000 A 
ATOM     16  C   UNL     1      -1.422  11.449  23.057  0.00  0.00    +0.000 A 
ATOM     17  C   UNL     1      -0.659  10.288  22.958  0.00  0.00    +0.000 A 
ATOM     18  C   UNL     1      -0.150   9.914  21.702  0.00  0.00    +0.000 A 
ATOM     19  S   UNL     1       0.819   8.545  21.380  0.00  0.00    +0.000 S 
ENDBRANCH   8  11
ENDBRANCH   1   9
BRANCH   5  20
ATOM     20  S   UNL     1       6.009   5.883  16.047  0.00  0.00    +0.000 S 
ATOM     21  O   UNL     1       5.288   6.900  15.311  0.00  0.00    +0.000 OA
ATOM     22  O   UNL     1       7.376   6.088  16.475  0.00  0.00    +0.000 OA
BRANCH  20  23
ATOM     23  N   UNL     1       5.995   4.473  15.171  0.00  0.00    +0.000 N 
ATOM     24  C   UNL     1       6.489   4.258  13.891  0.00  0.00    +0.000 C 
ATOM     25  N   UNL     1       5.997   3.289  13.191  0.00  0.00    +0.000 NA
ATOM     26  C   UNL     1       6.695   3.366  11.889  0.00  0.00    +0.000 C 
ATOM     27  C   UNL     1       7.322   4.749  11.836  0.00  0.00    +0.000 C 
ATOM     28  C   UNL     1       7.606   5.039  13.289  0.00  0.00    +0.000 C 
ATOM     29  H   UNL     1       5.358   3.767  15.534  0.00  0.00    +0.000 HD
ENDBRANCH  20  23
ENDBRANCH   5  20
TORSDOF 4
ENDMDL
MODEL 6
REMARK VINA RESULT:      -9.0      3.456      9.277
REMARK  Name = 
REMARK  4 active torsions:
REMARK  status: ('A' for Active; 'I' for Inactive)
REMARK    1  A    between atoms: C_2  and  C_19
REMARK    2  A    between atoms: N_3  and  C_4
REMARK    3  A    between atoms: C_8  and  S_9
REMARK    4  A    between atoms: S_9  and  N_12
REMARK                            x       y       z     vdW  Elec       q    Type
REMARK                         _______ _______ _______ _____ _____    ______ ____
ROOT
ATOM      1  C   UNL     1       0.903   9.370  19.875  0.00  0.00    +0.000 A 
ATOM      2  C   UNL     1       0.391   9.224  21.161  0.00  0.00    +0.000 A 
ATOM      3  C   UNL     1      -0.343  10.263  21.744  0.00  0.00    +0.000 A 
ATOM      4  C   UNL     1      -0.564  11.453  21.047  0.00  0.00    +0.000 A 
ATOM      5  C   UNL     1      -0.094  11.583  19.741  0.00  0.00    +0.000 A 
ATOM      6  C   UNL     1       0.652  10.552  19.162  0.00  0.00    +0.000 A 
ENDROOT
BRANCH   1   9
ATOM      7  O   UNL     1       1.735   6.569  20.621  0.00  0.00    +0.000 OA
ATOM      8  C   UNL     1       2.112   7.148  19.609  0.00  0.00    +0.000 C 
ATOM      9  N   UNL     1       1.701   8.416  19.222  0.00  0.00    +0.000 N 
ATOM     10  H   UNL     1       2.105   8.721  18.343  0.00  0.00    +0.000 HD
BRANCH   8  11
ATOM     11  C   UNL     1       3.090   6.563  18.675  0.00  0.00    +0.000 A 
ATOM     12  C   UNL     1       3.771   7.159  17.625  0.00  0.00    +0.000 A 
ATOM     13  C   UNL     1       4.526   6.217  16.828  0.00  0.00    +0.000 A 
ATOM     14  C   UNL     1       5.287   6.383  15.644  0.00  0.00    +0.000 A 
ATOM     15  C   UNL     1       5.855   5.272  15.002  0.00  0.00    +0.000 A 
ATOM     16  C   UNL     1       5.703   3.998  15.530  0.00  0.00    +0.000 A 
ATOM     17  C   UNL     1       5.003   3.812  16.719  0.00  0.00    +0.000 A 
ATOM     18  C   UNL     1       4.419   4.927  17.346  0.00  0.00    +0.000 A 
ATOM     19  S   UNL     1       3.508   4.902  18.790  0.00  0.00    +0.000 S 
ENDBRANCH   8  11
ENDBRANCH   1   9
BRANCH   5  20
ATOM     20  S   UNL     1      -0.349  13.091  18.828  0.00  0.00    +0.000 S 
ATOM     21  O   UNL     1      -1.271  13.922  19.573  0.00  0.00    +0.000 OA
ATOM     22  O   UNL     1       0.953  13.579  18.428  0.00  0.00    +0.000 OA
BRANCH  20  23
ATOM     23  N   UNL     1      -1.100  12.562  17.444  0.00  0.00    +0.000 N 
ATOM     24  C   UNL     1      -2.155  11.665  17.335  0.00  0.00    +0.000 C 
ATOM     25  N   UNL     1      -2.303  11.015  16.228  0.00  0.00    +0.000 NA
ATOM     26  C   UNL     1      -3.465  10.129  16.458  0.00  0.00    +0.000 C 
ATOM     27  C   UNL     1      -3.664  10.089  17.964  0.00  0.00    +0.000 C 
ATOM     28  C   UNL     1      -3.176  11.449  18.399  0.00  0.00    +0.000 C 
ATOM     29  H   UNL     1      -0.577  12.750  16.593  0.00  0.00    +0.000 HD
ENDBRANCH  20  23
ENDBRANCH   5  20
TORSDOF 4
ENDMDL
MODEL 7
REMARK VINA RESULT:      -9.0      1.376      1.560
REMARK  Name = 
REMARK  4 active torsions:
REMARK  status: ('A' for Active; 'I' for Inactive)
REMARK    1  A    between atoms: C_2  and  C_19
REMARK    2  A    between atoms: N_3  and  C_4
REMARK    3  A    between atoms: C_8  and  S_9
REMARK    4  A    between atoms: S_9  and  N_12
REMARK                            x       y       z     vdW  Elec       q    Type
REMARK                         _______ _______ _______ _____ _____    ______ ____
ROOT
ATOM      1  C   UNL     1       3.078   6.201  18.884  0.00  0.00    +0.000 A 
ATOM      2  C   UNL     1       3.039   4.907  19.396  0.00  0.00    +0.000 A 
ATOM      3  C   UNL     1       3.854   3.911  18.846  0.00  0.00    +0.000 A 
ATOM      4  C   UNL     1       4.709   4.204  17.779  0.00  0.00    +0.000 A 
ATOM      5  C   UNL     1       4.785   5.509  17.297  0.00  0.00    +0.000 A 
ATOM      6  C   UNL     1       3.961   6.501  17.836  0.00  0.00    +0.000 A 
ENDROOT
BRANCH   1   9
ATOM      7  O   UNL     1       2.112   8.716  17.529  0.00  0.00    +0.000 OA
ATOM      8  C   UNL     1       1.870   8.431  18.696  0.00  0.00    +0.000 C 
ATOM      9  N   UNL     1       2.261   7.256  19.322  0.00  0.00    +0.000 N 
ATOM     10  H   UNL     1       1.951   7.189  20.286  0.00  0.00    +0.000 HD
BRANCH   8  11
ATOM     11  C   UNL     1       1.140   9.336  19.600  0.00  0.00    +0.000 A 
ATOM     12  C   UNL     1       0.898   9.215  20.960  0.00  0.00    +0.000 A 
ATOM     13  C   UNL     1      -0.002  10.227  21.470  0.00  0.00    +0.000 A 
ATOM     14  C   UNL     1      -0.564  10.424  22.757  0.00  0.00    +0.000 A 
ATOM     15  C   UNL     1      -1.502  11.445  22.974  0.00  0.00    +0.000 A 
ATOM     16  C   UNL     1      -1.873  12.295  21.940  0.00  0.00    +0.000 A 
ATOM     17  C   UNL     1      -1.298  12.155  20.679  0.00  0.00    +0.000 A 
ATOM     18  C   UNL     1      -0.375  11.117  20.464  0.00  0.00    +0.000 A 
ATOM     19  S   UNL     1       0.417  10.769  18.991  0.00  0.00    +0.000 S 
ENDBRANCH   8  11
ENDBRANCH   1   9
BRANCH   5  20
ATOM     20  S   UNL     1       5.855   5.913  15.932  0.00  0.00    +0.000 S 
ATOM     21  O   UNL     1       5.201   6.924  15.127  0.00  0.00    +0.000 OA
ATOM     22  O   UNL     1       7.182   6.118  16.469  0.00  0.00    +0.000 OA
BRANCH  20  23
ATOM     23  N   UNL     1       5.908   4.494  15.072  0.00  0.00    +0.000 N 
ATOM     24  C   UNL     1       6.462   4.276  13.816  0.00  0.00    +0.000 C 
ATOM     25  N   UNL     1       6.021   3.290  13.107  0.00  0.00    +0.000 NA
ATOM     26  C   UNL     1       6.775   3.368  11.836  0.00  0.00    +0.000 C 
ATOM     27  C   UNL     1       7.376   4.763  11.795  0.00  0.00    +0.000 C 
ATOM     28  C   UNL     1       7.589   5.074  13.256  0.00  0.00    +0.000 C 
ATOM     29  H   UNL     1       5.270   3.779  15.414  0.00  0.00    +0.000 HD
ENDBRANCH  20  23
ENDBRANCH   5  20
TORSDOF 4
ENDMDL
MODEL 8
REMARK VINA RESULT:      -8.8      1.552      1.959
REMARK  Name = 
REMARK  4 active torsions:
REMARK  status: ('A' for Active; 'I' for Inactive)
REMARK    1  A    between atoms: C_2  and  C_19
REMARK    2  A    between atoms: N_3  and  C_4
REMARK    3  A    between atoms: C_8  and  S_9
REMARK    4  A    between atoms: S_9  and  N_12
REMARK                            x       y       z     vdW  Elec       q    Type
REMARK                         _______ _______ _______ _____ _____    ______ ____
ROOT
ATOM      1  C   UNL     1       3.360   5.616  19.560  0.00  0.00    +0.000 A 
ATOM      2  C   UNL     1       3.033   4.263  19.525  0.00  0.00    +0.000 A 
ATOM      3  C   UNL     1       4.007   3.315  19.195  0.00  0.00    +0.000 A 
ATOM      4  C   UNL     1       5.312   3.715  18.895  0.00  0.00    +0.000 A 
ATOM      5  C   UNL     1       5.654   5.063  18.978  0.00  0.00    +0.000 A 
ATOM      6  C   UNL     1       4.679   6.013  19.293  0.00  0.00    +0.000 A 
ENDROOT
BRANCH   1   9
ATOM      7  O   UNL     1       2.661   8.132  18.051  0.00  0.00    +0.000 OA
ATOM      8  C   UNL     1       2.177   7.827  19.134  0.00  0.00    +0.000 C 
ATOM      9  N   UNL     1       2.446   6.651  19.820  0.00  0.00    +0.000 N 
ATOM     10  H   UNL     1       1.935   6.565  20.692  0.00  0.00    +0.000 HD
BRANCH   8  11
ATOM     11  C   UNL     1       1.250   8.706  19.867  0.00  0.00    +0.000 A 
ATOM     12  C   UNL     1       0.579   9.839  19.430  0.00  0.00    +0.000 A 
ATOM     13  C   UNL     1      -0.118  10.533  20.490  0.00  0.00    +0.000 A 
ATOM     14  C   UNL     1      -0.849  11.748  20.499  0.00  0.00    +0.000 A 
ATOM     15  C   UNL     1      -1.358  12.262  21.701  0.00  0.00    +0.000 A 
ATOM     16  C   UNL     1      -1.177  11.578  22.895  0.00  0.00    +0.000 A 
ATOM     17  C   UNL     1      -0.506  10.357  22.907  0.00  0.00    +0.000 A 
ATOM     18  C   UNL     1       0.019   9.857  21.703  0.00  0.00    +0.000 A 
ATOM     19  S   UNL     1       0.887   8.398  21.516  0.00  0.00    +0.000 S 
ENDBRANCH   8  11
ENDBRANCH   1   9
BRANCH   5  20
ATOM     20  S   UNL     1       7.306   5.608  18.591  0.00  0.00    +0.000 S 
ATOM     21  O   UNL     1       7.266   7.033  18.339  0.00  0.00    +0.000 OA
ATOM     22  O   UNL     1       8.191   5.042  19.585  0.00  0.00    +0.000 OA
BRANCH  20  23
ATOM     23  N   UNL     1       7.631   4.819  17.167  0.00  0.00    +0.000 N 
ATOM     24  C   UNL     1       6.838   4.751  16.028  0.00  0.00    +0.000 C 
ATOM     25  N   UNL     1       6.995   3.752  15.222  0.00  0.00    +0.000 NA
ATOM     26  C   UNL     1       5.985   3.956  14.161  0.00  0.00    +0.000 C 
ATOM     27  C   UNL     1       4.993   4.963  14.720  0.00  0.00    +0.000 C 
ATOM     28  C   UNL     1       5.852   5.798  15.638  0.00  0.00    +0.000 C 
ATOM     29  H   UNL     1       8.385   4.139  17.233  0.00  0.00    +0.000 HD
ENDBRANCH  20  23
ENDBRANCH   5  20
TORSDOF 4
ENDMDL
MODEL 9
REMARK VINA RESULT:      -8.8      2.487      2.965
REMARK  Name = 
REMARK  4 active torsions:
REMARK  status: ('A' for Active; 'I' for Inactive)
REMARK    1  A    between atoms: C_2  and  C_19
REMARK    2  A    between atoms: N_3  and  C_4
REMARK    3  A    between atoms: C_8  and  S_9
REMARK    4  A    between atoms: S_9  and  N_12
REMARK                            x       y       z     vdW  Elec       q    Type
REMARK                         _______ _______ _______ _____ _____    ______ ____
ROOT
ATOM      1  C   UNL     1       2.065   4.946  20.752  0.00  0.00    +0.000 A 
ATOM      2  C   UNL     1       2.118   4.028  21.797  0.00  0.00    +0.000 A 
ATOM      3  C   UNL     1       2.620   2.741  21.575  0.00  0.00    +0.000 A 
ATOM      4  C   UNL     1       3.068   2.365  20.306  0.00  0.00    +0.000 A 
ATOM      5  C   UNL     1       3.061   3.297  19.270  0.00  0.00    +0.000 A 
ATOM      6  C   UNL     1       2.546   4.578  19.486  0.00  0.00    +0.000 A 
ENDROOT
BRANCH   1   9
ATOM      7  O   UNL     1       2.585   7.487  19.212  0.00  0.00    +0.000 OA
ATOM      8  C   UNL     1       1.818   7.408  20.165  0.00  0.00    +0.000 C 
ATOM      9  N   UNL     1       1.526   6.239  20.853  0.00  0.00    +0.000 N 
ATOM     10  H   UNL     1       0.852   6.367  21.600  0.00  0.00    +0.000 HD
BRANCH   8  11
ATOM     11  C   UNL     1       1.118   8.579  20.721  0.00  0.00    +0.000 A 
ATOM     12  C   UNL     1       0.557   8.756  21.976  0.00  0.00    +0.000 A 
ATOM     13  C   UNL     1      -0.192   9.988  22.097  0.00  0.00    +0.000 A 
ATOM     14  C   UNL     1      -0.972  10.516  23.157  0.00  0.00    +0.000 A 
ATOM     15  C   UNL     1      -1.688  11.710  22.986  0.00  0.00    +0.000 A 
ATOM     16  C   UNL     1      -1.624  12.407  21.787  0.00  0.00    +0.000 A 
ATOM     17  C   UNL     1      -0.825  11.937  20.747  0.00  0.00    +0.000 A 
ATOM     18  C   UNL     1      -0.126  10.730  20.918  0.00  0.00    +0.000 A 
ATOM     19  S   UNL     1       0.881   9.982  19.759  0.00  0.00    +0.000 S 
ENDBRANCH   8  11
ENDBRANCH   1   9
BRANCH   5  20
ATOM     20  S   UNL     1       3.613   2.846  17.637  0.00  0.00    +0.000 S 
ATOM     21  O   UNL     1       3.944   1.436  17.643  0.00  0.00    +0.000 OA
ATOM     22  O   UNL     1       2.665   3.395  16.694  0.00  0.00    +0.000 OA
BRANCH  20  23
ATOM     23  N   UNL     1       5.012   3.726  17.465  0.00  0.00    +0.000 N 
ATOM     24  C   UNL     1       5.636   4.115  16.287  0.00  0.00    +0.000 C 
ATOM     25  N   UNL     1       6.905   4.362  16.310  0.00  0.00    +0.000 NA
ATOM     26  C   UNL     1       7.254   4.696  14.912  0.00  0.00    +0.000 C 
ATOM     27  C   UNL     1       6.097   4.196  14.064  0.00  0.00    +0.000 C 
ATOM     28  C   UNL     1       4.919   4.332  14.998  0.00  0.00    +0.000 C 
ATOM     29  H   UNL     1       5.571   3.782  18.313  0.00  0.00    +0.000 HD
ENDBRANCH  20  23
ENDBRANCH   5  20
TORSDOF 4
ENDMDL
