MODEL 1
REMARK VINA RESULT:      -7.6      0.000      0.000
REMARK  Name = 
REMARK  6 active torsions:
REMARK  status: ('A' for Active; 'I' for Inactive)
REMARK    1  A    between atoms: C_1  and  O_2
REMARK    2  A    between atoms: O_2  and  C_3
REMARK    3  A    between atoms: C_3  and  C_4
REMARK    4  A    between atoms: C_6  and  N_7
REMARK    5  A    between atoms: C_10  and  C_11
REMARK    6  A    between atoms: C_11  and  C_12
REMARK                            x       y       z     vdW  Elec       q    Type
REMARK                         _______ _______ _______ _____ _____    ______ ____
ROOT
ATOM      1  N   UNL     1       2.313   7.335  18.302  0.00  0.00    +0.000 N 
ATOM      2  C   UNL     1       2.027   8.406  17.338  0.00  0.00    +0.000 C 
ATOM      3  C   UNL     1       2.178   9.791  17.979  0.00  0.00    +0.000 C 
ATOM      4  C   UNL     1       1.449   9.944  19.328  0.00  0.00    +0.000 C 
ATOM      5  C   UNL     1       1.911   8.802  20.241  0.00  0.00    +0.000 C 
ATOM      6  C   UNL     1       1.702   7.429  19.629  0.00  0.00    +0.000 C 
ENDROOT
BRANCH   1   9
ATOM      7  C   UNL     1       5.555   5.701  17.604  0.00  0.00    +0.000 A 
ATOM      8  C   UNL     1       4.586   6.679  17.791  0.00  0.00    +0.000 A 
ATOM      9  C   UNL     1       3.250   6.330  18.028  0.00  0.00    +0.000 A 
ATOM     10  C   UNL     1       2.942   4.934  18.038  0.00  0.00    +0.000 A 
ATOM     11  C   UNL     1       1.636   4.386  18.161  0.00  0.00    +0.000 A 
ATOM     12  C   UNL     1       1.428   3.029  18.353  0.00  0.00    +0.000 A 
ATOM     13  F   UNL     1       0.192   2.579  18.596  0.00  0.00    +0.000 F 
ATOM     14  C   UNL     1       2.489   2.153  18.323  0.00  0.00    +0.000 A 
ATOM     15  C   UNL     1       3.767   2.649  18.059  0.00  0.00    +0.000 A 
ATOM     16  C   UNL     1       4.010   4.016  17.913  0.00  0.00    +0.000 A 
ATOM     17  N   UNL     1       5.276   4.382  17.674  0.00  0.00    +0.000 NA
BRANCH   7  18
ATOM     18  C   UNL     1       6.987   6.102  17.332  0.00  0.00    +0.000 C 
BRANCH  18  20
ATOM     19  C   UNL     1       7.919   8.236  17.693  0.00  0.00    +0.000 C 
ATOM     20  O   UNL     1       7.033   7.464  16.898  0.00  0.00    +0.000 OA
ENDBRANCH  18  20
ENDBRANCH   7  18
ENDBRANCH   1   9
BRANCH   4  21
ATOM     21  C   UNL     1      -0.092  10.121  19.232  0.00  0.00    +0.000 C 
ATOM     22  C   UNL     1      -0.822   9.841  20.553  0.00  0.00    +0.000 C 
ATOM     23  N   UNL     1      -0.752   9.418  18.152  0.00  0.00    +0.000 N 
ATOM     24  C   UNL     1      -1.566  10.239  17.407  0.00  0.00    +0.000 C 
ATOM     25  O   UNL     1      -2.254   9.876  16.472  0.00  0.00    +0.000 OA
ATOM     26  N   UNL     1      -1.429  11.504  17.861  0.00  0.00    +0.000 N 
ATOM     27  C   UNL     1      -0.467  11.562  18.821  0.00  0.00    +0.000 C 
ATOM     28  O   UNL     1      -0.025  12.593  19.305  0.00  0.00    +0.000 OA
ATOM     29  H   UNL     1      -0.746   8.423  17.972  0.00  0.00    +0.000 HD
ATOM     30  H   UNL     1      -1.854  12.303  17.425  0.00  0.00    +0.000 HD
ENDBRANCH   4  21
TORSDOF 4
ENDMDL
MODEL 2
REMARK VINA RESULT:      -7.5      1.026      1.026
REMARK  Name = 
REMARK  6 active torsions:
REMARK  status: ('A' for Active; 'I' for Inactive)
REMARK    1  A    between atoms: C_1  and  O_2
REMARK    2  A    between atoms: O_2  and  C_3
REMARK    3  A    between atoms: C_3  and  C_4
REMARK    4  A    between atoms: C_6  and  N_7
REMARK    5  A    between atoms: C_10  and  C_11
REMARK    6  A    between atoms: C_11  and  C_12
REMARK                            x       y       z     vdW  Elec       q    Type
REMARK                         _______ _______ _______ _____ _____    ______ ____
ROOT
ATOM      1  N   UNL     1       2.209   7.566  18.653  0.00  0.00    +0.000 N 
ATOM      2  C   UNL     1       1.914   8.476  17.538  0.00  0.00    +0.000 C 
ATOM      3  C   UNL     1       2.054   9.943  17.961  0.00  0.00    +0.000 C 
ATOM      4  C   UNL     1       1.323  10.294  19.272  0.00  0.00    +0.000 C 
ATOM      5  C   UNL     1       1.795   9.308  20.347  0.00  0.00    +0.000 C 
ATOM      6  C   UNL     1       1.597   7.856  19.952  0.00  0.00    +0.000 C 
ENDROOT
BRANCH   1   9
ATOM      7  C   UNL     1       5.351   5.814  17.803  0.00  0.00    +0.000 A 
ATOM      8  C   UNL     1       4.358   6.784  17.862  0.00  0.00    +0.000 A 
ATOM      9  C   UNL     1       3.153   6.539  18.534  0.00  0.00    +0.000 A 
ATOM     10  C   UNL     1       2.996   5.244  19.122  0.00  0.00    +0.000 A 
ATOM     11  C   UNL     1       1.814   4.773  19.755  0.00  0.00    +0.000 A 
ATOM     12  C   UNL     1       1.793   3.583  20.467  0.00  0.00    +0.000 A 
ATOM     13  F   UNL     1       0.696   3.247  21.156  0.00  0.00    +0.000 F 
ATOM     14  C   UNL     1       2.901   2.767  20.490  0.00  0.00    +0.000 A 
ATOM     15  C   UNL     1       4.029   3.139  19.755  0.00  0.00    +0.000 A 
ATOM     16  C   UNL     1       4.094   4.354  19.072  0.00  0.00    +0.000 A 
ATOM     17  N   UNL     1       5.229   4.615  18.410  0.00  0.00    +0.000 NA
BRANCH   7  18
ATOM     18  C   UNL     1       6.635   6.095  17.057  0.00  0.00    +0.000 C 
BRANCH  18  20
ATOM     19  C   UNL     1       7.824   8.041  17.654  0.00  0.00    +0.000 C 
ATOM     20  O   UNL     1       6.779   7.504  16.858  0.00  0.00    +0.000 OA
ENDBRANCH  18  20
ENDBRANCH   7  18
ENDBRANCH   1   9
BRANCH   4  21
ATOM     21  C   UNL     1      -0.219  10.442  19.152  0.00  0.00    +0.000 C 
ATOM     22  C   UNL     1      -0.949  10.342  20.499  0.00  0.00    +0.000 C 
ATOM     23  N   UNL     1      -0.871   9.591  18.180  0.00  0.00    +0.000 N 
ATOM     24  C   UNL     1      -1.691  10.293  17.328  0.00  0.00    +0.000 C 
ATOM     25  O   UNL     1      -2.374   9.798  16.451  0.00  0.00    +0.000 OA
ATOM     26  N   UNL     1      -1.566  11.610  17.602  0.00  0.00    +0.000 N 
ATOM     27  C   UNL     1      -0.606  11.809  18.545  0.00  0.00    +0.000 C 
ATOM     28  O   UNL     1      -0.174  12.901  18.881  0.00  0.00    +0.000 OA
ATOM     29  H   UNL     1      -0.856   8.580  18.139  0.00  0.00    +0.000 HD
ATOM     30  H   UNL     1      -1.998  12.337  17.059  0.00  0.00    +0.000 HD
ENDBRANCH   4  21
TORSDOF 4
ENDMDL
MODEL 3
REMARK VINA RESULT:      -7.5      1.027      1.098
REMARK  Name = 
REMARK  6 active torsions:
REMARK  status: ('A' for Active; 'I' for Inactive)
REMARK    1  A    between atoms: C_1  and  O_2
REMARK    2  A    between atoms: O_2  and  C_3
REMARK    3  A    between atoms: C_3  and  C_4
REMARK    4  A    between atoms: C_6  and  N_7
REMARK    5  A    between atoms: C_10  and  C_11
REMARK    6  A    between atoms: C_11  and  C_12
REMARK                            x       y       z     vdW  Elec       q    Type
REMARK                         _______ _______ _______ _____ _____    ______ ____
ROOT
ATOM      1  N   UNL     1       2.155   7.227  18.638  0.00  0.00    +0.000 N 
ATOM      2  C   UNL     1       1.668   8.354  17.831  0.00  0.00    +0.000 C 
ATOM      3  C   UNL     1       1.912   9.693  18.535  0.00  0.00    +0.000 C 
ATOM      4  C   UNL     1       1.451   9.726  20.006  0.00  0.00    +0.000 C 
ATOM      5  C   UNL     1       2.103   8.538  20.725  0.00  0.00    +0.000 C 
ATOM      6  C   UNL     1       1.807   7.205  20.061  0.00  0.00    +0.000 C 
ENDROOT
BRANCH   1   9
ATOM      7  C   UNL     1       5.247   5.749  17.252  0.00  0.00    +0.000 A 
ATOM      8  C   UNL     1       4.314   6.680  17.692  0.00  0.00    +0.000 A 
ATOM      9  C   UNL     1       3.041   6.276  18.116  0.00  0.00    +0.000 A 
ATOM     10  C   UNL     1       2.753   4.877  18.046  0.00  0.00    +0.000 A 
ATOM     11  C   UNL     1       1.492   4.287  18.334  0.00  0.00    +0.000 A 
ATOM     12  C   UNL     1       1.334   2.913  18.427  0.00  0.00    +0.000 A 
ATOM     13  F   UNL     1       0.162   2.410  18.832  0.00  0.00    +0.000 F 
ATOM     14  C   UNL     1       2.384   2.072  18.136  0.00  0.00    +0.000 A 
ATOM     15  C   UNL     1       3.593   2.623  17.709  0.00  0.00    +0.000 A 
ATOM     16  C   UNL     1       3.794   4.003  17.655  0.00  0.00    +0.000 A 
ATOM     17  N   UNL     1       4.997   4.423  17.242  0.00  0.00    +0.000 NA
BRANCH   7  18
ATOM     18  C   UNL     1       6.607   6.211  16.783  0.00  0.00    +0.000 C 
BRANCH  18  20
ATOM     19  C   UNL     1       7.842   8.006  17.680  0.00  0.00    +0.000 C 
ATOM     20  O   UNL     1       6.707   7.631  16.915  0.00  0.00    +0.000 OA
ENDBRANCH  18  20
ENDBRANCH   7  18
ENDBRANCH   1   9
BRANCH   4  21
ATOM     21  C   UNL     1      -0.083   9.856  20.217  0.00  0.00    +0.000 C 
ATOM     22  C   UNL     1      -0.671   8.757  21.113  0.00  0.00    +0.000 C 
ATOM     23  N   UNL     1      -0.885   9.992  19.021  0.00  0.00    +0.000 N 
ATOM     24  C   UNL     1      -1.745  11.064  19.080  0.00  0.00    +0.000 C 
ATOM     25  O   UNL     1      -2.546  11.364  18.215  0.00  0.00    +0.000 OA
ATOM     26  N   UNL     1      -1.510  11.739  20.227  0.00  0.00    +0.000 N 
ATOM     27  C   UNL     1      -0.445  11.204  20.882  0.00  0.00    +0.000 C 
ATOM     28  O   UNL     1       0.088  11.694  21.866  0.00  0.00    +0.000 OA
ATOM     29  H   UNL     1      -0.938   9.352  18.240  0.00  0.00    +0.000 HD
ATOM     30  H   UNL     1      -1.949  12.611  20.462  0.00  0.00    +0.000 HD
ENDBRANCH   4  21
TORSDOF 4
ENDMDL
MODEL 4
REMARK VINA RESULT:      -7.5      0.817      1.051
REMARK  Name = 
REMARK  6 active torsions:
REMARK  status: ('A' for Active; 'I' for Inactive)
REMARK    1  A    between atoms: C_1  and  O_2
REMARK    2  A    between atoms: O_2  and  C_3
REMARK    3  A    between atoms: C_3  and  C_4
REMARK    4  A    between atoms: C_6  and  N_7
REMARK    5  A    between atoms: C_10  and  C_11
REMARK    6  A    between atoms: C_11  and  C_12
REMARK                            x       y       z     vdW  Elec       q    Type
REMARK                         _______ _______ _______ _____ _____    ______ ____
ROOT
ATOM      1  N   UNL     1       2.267   7.240  18.348  0.00  0.00    +0.000 N 
ATOM      2  C   UNL     1       1.942   8.347  17.439  0.00  0.00    +0.000 C 
ATOM      3  C   UNL     1       2.163   9.707  18.112  0.00  0.00    +0.000 C 
ATOM      4  C   UNL     1       1.526   9.830  19.511  0.00  0.00    +0.000 C 
ATOM      5  C   UNL     1       2.022   8.650  20.355  0.00  0.00    +0.000 C 
ATOM      6  C   UNL     1       1.745   7.302  19.715  0.00  0.00    +0.000 C 
ENDROOT
BRANCH   1   9
ATOM      7  C   UNL     1       5.409   5.577  17.332  0.00  0.00    +0.000 A 
ATOM      8  C   UNL     1       4.472   6.564  17.614  0.00  0.00    +0.000 A 
ATOM      9  C   UNL     1       3.163   6.227  17.982  0.00  0.00    +0.000 A 
ATOM     10  C   UNL     1       2.845   4.833  18.023  0.00  0.00    +0.000 A 
ATOM     11  C   UNL     1       1.552   4.298  18.274  0.00  0.00    +0.000 A 
ATOM     12  C   UNL     1       1.353   2.942  18.485  0.00  0.00    +0.000 A 
ATOM     13  F   UNL     1       0.142   2.503  18.850  0.00  0.00    +0.000 F 
ATOM     14  C   UNL     1       2.397   2.057  18.350  0.00  0.00    +0.000 A 
ATOM     15  C   UNL     1       3.648   2.542  17.961  0.00  0.00    +0.000 A 
ATOM     16  C   UNL     1       3.887   3.906  17.792  0.00  0.00    +0.000 A 
ATOM     17  N   UNL     1       5.127   4.262  17.429  0.00  0.00    +0.000 NA
BRANCH   7  18
ATOM     18  C   UNL     1       6.810   5.966  16.919  0.00  0.00    +0.000 C 
BRANCH  18  20
ATOM     19  C   UNL     1       7.089   4.918  14.827  0.00  0.00    +0.000 C 
ATOM     20  O   UNL     1       7.421   4.887  16.206  0.00  0.00    +0.000 OA
ENDBRANCH  18  20
ENDBRANCH   7  18
ENDBRANCH   1   9
BRANCH   4  21
ATOM     21  C   UNL     1      -0.014  10.039  19.520  0.00  0.00    +0.000 C 
ATOM     22  C   UNL     1      -0.699   9.477  20.775  0.00  0.00    +0.000 C 
ATOM     23  N   UNL     1      -0.728   9.603  18.340  0.00  0.00    +0.000 N 
ATOM     24  C   UNL     1      -1.554  10.578  17.832  0.00  0.00    +0.000 C 
ATOM     25  O   UNL     1      -2.284  10.441  16.868  0.00  0.00    +0.000 OA
ATOM     26  N   UNL     1      -1.377  11.707  18.551  0.00  0.00    +0.000 N 
ATOM     27  C   UNL     1      -0.378  11.540  19.459  0.00  0.00    +0.000 C 
ATOM     28  O   UNL     1       0.102  12.431  20.142  0.00  0.00    +0.000 OA
ATOM     29  H   UNL     1      -0.748   8.673  17.941  0.00  0.00    +0.000 HD
ATOM     30  H   UNL     1      -1.803  12.588  18.323  0.00  0.00    +0.000 HD
ENDBRANCH   4  21
TORSDOF 4
ENDMDL
MODEL 5
REMARK VINA RESULT:      -7.4      2.898      4.412
REMARK  Name = 
REMARK  6 active torsions:
REMARK  status: ('A' for Active; 'I' for Inactive)
REMARK    1  A    between atoms: C_1  and  O_2
REMARK    2  A    between atoms: O_2  and  C_3
REMARK    3  A    between atoms: C_3  and  C_4
REMARK    4  A    between atoms: C_6  and  N_7
REMARK    5  A    between atoms: C_10  and  C_11
REMARK    6  A    between atoms: C_11  and  C_12
REMARK                            x       y       z     vdW  Elec       q    Type
REMARK                         _______ _______ _______ _____ _____    ______ ____
ROOT
ATOM      1  N   UNL     1       2.036   8.033  19.277  0.00  0.00    +0.000 N 
ATOM      2  C   UNL     1       1.626   8.673  20.535  0.00  0.00    +0.000 C 
ATOM      3  C   UNL     1       0.296   9.420  20.374  0.00  0.00    +0.000 C 
ATOM      4  C   UNL     1       0.239  10.349  19.145  0.00  0.00    +0.000 C 
ATOM      5  C   UNL     1       0.616   9.517  17.913  0.00  0.00    +0.000 C 
ATOM      6  C   UNL     1       1.962   8.829  18.049  0.00  0.00    +0.000 C 
ENDROOT
BRANCH   1   9
ATOM      7  C   UNL     1       1.899   4.400  19.945  0.00  0.00    +0.000 A 
ATOM      8  C   UNL     1       1.674   5.767  20.047  0.00  0.00    +0.000 A 
ATOM      9  C   UNL     1       2.350   6.670  19.214  0.00  0.00    +0.000 A 
ATOM     10  C   UNL     1       3.288   6.113  18.290  0.00  0.00    +0.000 A 
ATOM     11  C   UNL     1       4.140   6.867  17.437  0.00  0.00    +0.000 A 
ATOM     12  C   UNL     1       4.887   6.265  16.436  0.00  0.00    +0.000 A 
ATOM     13  F   UNL     1       5.569   7.029  15.574  0.00  0.00    +0.000 F 
ATOM     14  C   UNL     1       4.905   4.895  16.310  0.00  0.00    +0.000 A 
ATOM     15  C   UNL     1       4.190   4.123  17.228  0.00  0.00    +0.000 A 
ATOM     16  C   UNL     1       3.390   4.705  18.213  0.00  0.00    +0.000 A 
ATOM     17  N   UNL     1       2.739   3.869  19.033  0.00  0.00    +0.000 NA
BRANCH   7  18
ATOM     18  C   UNL     1       1.171   3.448  20.867  0.00  0.00    +0.000 C 
BRANCH  18  20
ATOM     19  C   UNL     1       3.034   2.229  21.640  0.00  0.00    +0.000 C 
ATOM     20  O   UNL     1       1.999   3.135  21.990  0.00  0.00    +0.000 OA
ENDBRANCH  18  20
ENDBRANCH   7  18
ENDBRANCH   1   9
BRANCH   4  21
ATOM     21  C   UNL     1       1.012  11.689  19.290  0.00  0.00    +0.000 C 
ATOM     22  C   UNL     1       2.206  11.812  18.333  0.00  0.00    +0.000 C 
ATOM     23  N   UNL     1       1.422  12.051  20.630  0.00  0.00    +0.000 N 
ATOM     24  C   UNL     1       1.046  13.328  20.971  0.00  0.00    +0.000 C 
ATOM     25  O   UNL     1       1.306  13.874  22.027  0.00  0.00    +0.000 OA
ATOM     26  N   UNL     1       0.307  13.841  19.963  0.00  0.00    +0.000 N 
ATOM     27  C   UNL     1       0.096  12.900  19.004  0.00  0.00    +0.000 C 
ATOM     28  O   UNL     1      -0.658  13.030  18.051  0.00  0.00    +0.000 OA
ATOM     29  H   UNL     1       2.010  11.518  21.258  0.00  0.00    +0.000 HD
ATOM     30  H   UNL     1      -0.158  14.730  20.007  0.00  0.00    +0.000 HD
ENDBRANCH   4  21
TORSDOF 4
ENDMDL
MODEL 6
REMARK VINA RESULT:      -7.2      2.653      3.761
REMARK  Name = 
REMARK  6 active torsions:
REMARK  status: ('A' for Active; 'I' for Inactive)
REMARK    1  A    between atoms: C_1  and  O_2
REMARK    2  A    between atoms: O_2  and  C_3
REMARK    3  A    between atoms: C_3  and  C_4
REMARK    4  A    between atoms: C_6  and  N_7
REMARK    5  A    between atoms: C_10  and  C_11
REMARK    6  A    between atoms: C_11  and  C_12
REMARK                            x       y       z     vdW  Elec       q    Type
REMARK                         _______ _______ _______ _____ _____    ______ ____
ROOT
ATOM      1  N   UNL     1       1.549   7.907  19.292  0.00  0.00    +0.000 N 
ATOM      2  C   UNL     1       1.391   8.584  17.998  0.00  0.00    +0.000 C 
ATOM      3  C   UNL     1       1.800  10.059  18.084  0.00  0.00    +0.000 C 
ATOM      4  C   UNL     1       1.177  10.817  19.273  0.00  0.00    +0.000 C 
ATOM      5  C   UNL     1       1.494  10.027  20.549  0.00  0.00    +0.000 C 
ATOM      6  C   UNL     1       1.032   8.583  20.485  0.00  0.00    +0.000 C 
ENDROOT
BRANCH   1   9
ATOM      7  C   UNL     1       2.651   4.611  20.554  0.00  0.00    +0.000 A 
ATOM      8  C   UNL     1       1.991   5.830  20.454  0.00  0.00    +0.000 A 
ATOM      9  C   UNL     1       2.293   6.727  19.420  0.00  0.00    +0.000 A 
ATOM     10  C   UNL     1       3.322   6.335  18.508  0.00  0.00    +0.000 A 
ATOM     11  C   UNL     1       3.838   7.146  17.461  0.00  0.00    +0.000 A 
ATOM     12  C   UNL     1       4.698   6.636  16.500  0.00  0.00    +0.000 A 
ATOM     13  F   UNL     1       5.051   7.401  15.459  0.00  0.00    +0.000 F 
ATOM     14  C   UNL     1       5.162   5.345  16.597  0.00  0.00    +0.000 A 
ATOM     15  C   UNL     1       4.784   4.572  17.697  0.00  0.00    +0.000 A 
ATOM     16  C   UNL     1       3.881   5.043  18.651  0.00  0.00    +0.000 A 
ATOM     17  N   UNL     1       3.579   4.214  19.659  0.00  0.00    +0.000 NA
BRANCH   7  18
ATOM     18  C   UNL     1       2.320   3.668  21.688  0.00  0.00    +0.000 C 
BRANCH  18  20
ATOM     19  C   UNL     1       1.057   2.420  20.139  0.00  0.00    +0.000 C 
ATOM     20  O   UNL     1       1.074   3.017  21.426  0.00  0.00    +0.000 OA
ENDBRANCH  18  20
ENDBRANCH   7  18
ENDBRANCH   1   9
BRANCH   4  21
ATOM     21  C   UNL     1      -0.317  11.207  19.100  0.00  0.00    +0.000 C 
ATOM     22  C   UNL     1      -1.054  11.405  20.432  0.00  0.00    +0.000 C 
ATOM     23  N   UNL     1      -1.104  10.362  18.229  0.00  0.00    +0.000 N 
ATOM     24  C   UNL     1      -1.791  11.078  17.277  0.00  0.00    +0.000 C 
ATOM     25  O   UNL     1      -2.548  10.597  16.454  0.00  0.00    +0.000 OA
ATOM     26  N   UNL     1      -1.444  12.379  17.386  0.00  0.00    +0.000 N 
ATOM     27  C   UNL     1      -0.465  12.532  18.317  0.00  0.00    +0.000 C 
ATOM     28  O   UNL     1       0.148  13.568  18.524  0.00  0.00    +0.000 OA
ATOM     29  H   UNL     1      -1.262   9.366  18.316  0.00  0.00    +0.000 HD
ATOM     30  H   UNL     1      -1.744  13.093  16.746  0.00  0.00    +0.000 HD
ENDBRANCH   4  21
TORSDOF 4
ENDMDL
MODEL 7
REMARK VINA RESULT:      -6.8      1.911      2.735
REMARK  Name = 
REMARK  6 active torsions:
REMARK  status: ('A' for Active; 'I' for Inactive)
REMARK    1  A    between atoms: C_1  and  O_2
REMARK    2  A    between atoms: O_2  and  C_3
REMARK    3  A    between atoms: C_3  and  C_4
REMARK    4  A    between atoms: C_6  and  N_7
REMARK    5  A    between atoms: C_10  and  C_11
REMARK    6  A    between atoms: C_11  and  C_12
REMARK                            x       y       z     vdW  Elec       q    Type
REMARK                         _______ _______ _______ _____ _____    ______ ____
ROOT
ATOM      1  N   UNL     1       2.328   8.132  18.799  0.00  0.00    +0.000 N 
ATOM      2  C   UNL     1       1.867   8.236  20.190  0.00  0.00    +0.000 C 
ATOM      3  C   UNL     1       0.365   8.537  20.260  0.00  0.00    +0.000 C 
ATOM      4  C   UNL     1      -0.088   9.701  19.356  0.00  0.00    +0.000 C 
ATOM      5  C   UNL     1       0.403   9.405  17.933  0.00  0.00    +0.000 C 
ATOM      6  C   UNL     1       1.900   9.169  17.857  0.00  0.00    +0.000 C 
ENDROOT
BRANCH   1   9
ATOM      7  C   UNL     1       4.916   6.105  17.108  0.00  0.00    +0.000 A 
ATOM      8  C   UNL     1       4.146   7.190  17.509  0.00  0.00    +0.000 A 
ATOM      9  C   UNL     1       3.031   7.011  18.338  0.00  0.00    +0.000 A 
ATOM     10  C   UNL     1       2.720   5.668  18.719  0.00  0.00    +0.000 A 
ATOM     11  C   UNL     1       1.578   5.274  19.468  0.00  0.00    +0.000 A 
ATOM     12  C   UNL     1       1.438   3.986  19.961  0.00  0.00    +0.000 A 
ATOM     13  F   UNL     1       0.413   3.699  20.773  0.00  0.00    +0.000 F 
ATOM     14  C   UNL     1       2.361   3.016  19.644  0.00  0.00    +0.000 A 
ATOM     15  C   UNL     1       3.416   3.342  18.789  0.00  0.00    +0.000 A 
ATOM     16  C   UNL     1       3.608   4.642  18.320  0.00  0.00    +0.000 A 
ATOM     17  N   UNL     1       4.660   4.844  17.515  0.00  0.00    +0.000 NA
BRANCH   7  18
ATOM     18  C   UNL     1       6.104   6.320  16.198  0.00  0.00    +0.000 C 
BRANCH  18  20
ATOM     19  C   UNL     1       6.790   4.766  14.565  0.00  0.00    +0.000 C 
ATOM     20  O   UNL     1       5.835   5.757  14.911  0.00  0.00    +0.000 OA
ENDBRANCH  18  20
ENDBRANCH   7  18
ENDBRANCH   1   9
BRANCH   4  21
ATOM     21  C   UNL     1       0.255  11.122  19.884  0.00  0.00    +0.000 C 
ATOM     22  C   UNL     1       1.474  11.751  19.195  0.00  0.00    +0.000 C 
ATOM     23  N   UNL     1       0.381  11.260  21.318  0.00  0.00    +0.000 N 
ATOM     24  C   UNL     1      -0.377  12.292  21.818  0.00  0.00    +0.000 C 
ATOM     25  O   UNL     1      -0.411  12.631  22.987  0.00  0.00    +0.000 OA
ATOM     26  N   UNL     1      -1.101  12.821  20.808  0.00  0.00    +0.000 N 
ATOM     27  C   UNL     1      -0.922  12.100  19.668  0.00  0.00    +0.000 C 
ATOM     28  O   UNL     1      -1.559  12.252  18.638  0.00  0.00    +0.000 OA
ATOM     29  H   UNL     1       1.013  10.762  21.931  0.00  0.00    +0.000 HD
ATOM     30  H   UNL     1      -1.798  13.533  20.933  0.00  0.00    +0.000 HD
ENDBRANCH   4  21
TORSDOF 4
ENDMDL
MODEL 8
REMARK VINA RESULT:      -6.7      1.460      2.298
REMARK  Name = 
REMARK  6 active torsions:
REMARK  status: ('A' for Active; 'I' for Inactive)
REMARK    1  A    between atoms: C_1  and  O_2
REMARK    2  A    between atoms: O_2  and  C_3
REMARK    3  A    between atoms: C_3  and  C_4
REMARK    4  A    between atoms: C_6  and  N_7
REMARK    5  A    between atoms: C_10  and  C_11
REMARK    6  A    between atoms: C_11  and  C_12
REMARK                            x       y       z     vdW  Elec       q    Type
REMARK                         _______ _______ _______ _____ _____    ______ ____
ROOT
ATOM      1  N   UNL     1       2.687   7.796  18.593  0.00  0.00    +0.000 N 
ATOM      2  C   UNL     1       2.141   7.729  19.955  0.00  0.00    +0.000 C 
ATOM      3  C   UNL     1       0.619   7.916  19.957  0.00  0.00    +0.000 C 
ATOM      4  C   UNL     1       0.133   9.130  19.141  0.00  0.00    +0.000 C 
ATOM      5  C   UNL     1       0.724   9.012  17.731  0.00  0.00    +0.000 C 
ATOM      6  C   UNL     1       2.237   8.889  17.729  0.00  0.00    +0.000 C 
ENDROOT
BRANCH   1   9
ATOM      7  C   UNL     1       5.676   6.060  17.281  0.00  0.00    +0.000 A 
ATOM      8  C   UNL     1       4.821   7.066  17.715  0.00  0.00    +0.000 A 
ATOM      9  C   UNL     1       3.498   6.778  18.074  0.00  0.00    +0.000 A 
ATOM     10  C   UNL     1       3.077   5.417  17.944  0.00  0.00    +0.000 A 
ATOM     11  C   UNL     1       1.754   4.946  18.161  0.00  0.00    +0.000 A 
ATOM     12  C   UNL     1       1.458   3.592  18.201  0.00  0.00    +0.000 A 
ATOM     13  F   UNL     1       0.226   3.197  18.541  0.00  0.00    +0.000 F 
ATOM     14  C   UNL     1       2.431   2.660  17.923  0.00  0.00    +0.000 A 
ATOM     15  C   UNL     1       3.706   3.102  17.563  0.00  0.00    +0.000 A 
ATOM     16  C   UNL     1       4.043   4.456  17.565  0.00  0.00    +0.000 A 
ATOM     17  N   UNL     1       5.299   4.767  17.215  0.00  0.00    +0.000 NA
BRANCH   7  18
ATOM     18  C   UNL     1       7.094   6.399  16.881  0.00  0.00    +0.000 C 
BRANCH  18  20
ATOM     19  C   UNL     1       8.102   8.268  17.903  0.00  0.00    +0.000 C 
ATOM     20  O   UNL     1       7.262   7.819  16.851  0.00  0.00    +0.000 OA
ENDBRANCH  18  20
ENDBRANCH   7  18
ENDBRANCH   1   9
BRANCH   4  21
ATOM     21  C   UNL     1       0.337  10.512  19.822  0.00  0.00    +0.000 C 
ATOM     22  C   UNL     1       1.470  11.338  19.198  0.00  0.00    +0.000 C 
ATOM     23  N   UNL     1       0.478  10.502  21.262  0.00  0.00    +0.000 N 
ATOM     24  C   UNL     1      -0.373  11.386  21.883  0.00  0.00    +0.000 C 
ATOM     25  O   UNL     1      -0.417  11.587  23.082  0.00  0.00    +0.000 OA
ATOM     26  N   UNL     1      -1.169  11.945  20.945  0.00  0.00    +0.000 N 
ATOM     27  C   UNL     1      -0.940  11.378  19.730  0.00  0.00    +0.000 C 
ATOM     28  O   UNL     1      -1.611  11.575  18.729  0.00  0.00    +0.000 OA
ATOM     29  H   UNL     1       1.171  10.008  21.809  0.00  0.00    +0.000 HD
ATOM     30  H   UNL     1      -1.934  12.561  21.156  0.00  0.00    +0.000 HD
ENDBRANCH   4  21
TORSDOF 4
ENDMDL
MODEL 9
REMARK VINA RESULT:      -6.7      2.956      4.470
REMARK  Name = 
REMARK  6 active torsions:
REMARK  status: ('A' for Active; 'I' for Inactive)
REMARK    1  A    between atoms: C_1  and  O_2
REMARK    2  A    between atoms: O_2  and  C_3
REMARK    3  A    between atoms: C_3  and  C_4
REMARK    4  A    between atoms: C_6  and  N_7
REMARK    5  A    between atoms: C_10  and  C_11
REMARK    6  A    between atoms: C_11  and  C_12
REMARK                            x       y       z     vdW  Elec       q    Type
REMARK                         _______ _______ _______ _____ _____    ______ ____
ROOT
ATOM      1  N   UNL     1       1.821   8.257  19.521  0.00  0.00    +0.000 N 
ATOM      2  C   UNL     1       1.275   8.871  20.740  0.00  0.00    +0.000 C 
ATOM      3  C   UNL     1      -0.167   9.348  20.528  0.00  0.00    +0.000 C 
ATOM      4  C   UNL     1      -0.372  10.188  19.251  0.00  0.00    +0.000 C 
ATOM      5  C   UNL     1       0.177   9.381  18.069  0.00  0.00    +0.000 C 
ATOM      6  C   UNL     1       1.625   8.964  18.253  0.00  0.00    +0.000 C 
ENDROOT
BRANCH   1   9
ATOM      7  C   UNL     1       2.479   4.758  20.515  0.00  0.00    +0.000 A 
ATOM      8  C   UNL     1       2.007   6.065  20.528  0.00  0.00    +0.000 A 
ATOM      9  C   UNL     1       2.384   6.975  19.532  0.00  0.00    +0.000 A 
ATOM     10  C   UNL     1       3.289   6.497  18.533  0.00  0.00    +0.000 A 
ATOM     11  C   UNL     1       3.863   7.291  17.504  0.00  0.00    +0.000 A 
ATOM     12  C   UNL     1       4.582   6.726  16.461  0.00  0.00    +0.000 A 
ATOM     13  F   UNL     1       4.988   7.498  15.446  0.00  0.00    +0.000 F 
ATOM     14  C   UNL     1       4.849   5.377  16.453  0.00  0.00    +0.000 A 
ATOM     15  C   UNL     1       4.420   4.596  17.528  0.00  0.00    +0.000 A 
ATOM     16  C   UNL     1       3.653   5.130  18.565  0.00  0.00    +0.000 A 
ATOM     17  N   UNL     1       3.285   4.289  19.540  0.00  0.00    +0.000 NA
BRANCH   7  18
ATOM     18  C   UNL     1       2.072   3.800  21.611  0.00  0.00    +0.000 C 
BRANCH  18  20
ATOM     19  C   UNL     1       0.651   2.920  19.949  0.00  0.00    +0.000 C 
ATOM     20  O   UNL     1       1.513   2.616  21.035  0.00  0.00    +0.000 OA
ENDBRANCH  18  20
ENDBRANCH   7  18
ENDBRANCH   1   9
BRANCH   4  21
ATOM     21  C   UNL     1       0.136  11.654  19.335  0.00  0.00    +0.000 C 
ATOM     22  C   UNL     1      -0.142  12.470  18.065  0.00  0.00    +0.000 C 
ATOM     23  N   UNL     1       1.515  11.834  19.737  0.00  0.00    +0.000 N 
ATOM     24  C   UNL     1       1.651  12.730  20.771  0.00  0.00    +0.000 C 
ATOM     25  O   UNL     1       2.711  13.076  21.259  0.00  0.00    +0.000 OA
ATOM     26  N   UNL     1       0.419  13.114  21.171  0.00  0.00    +0.000 N 
ATOM     27  C   UNL     1      -0.536  12.416  20.500  0.00  0.00    +0.000 C 
ATOM     28  O   UNL     1      -1.730  12.442  20.756  0.00  0.00    +0.000 OA
ATOM     29  H   UNL     1       2.340  11.459  19.288  0.00  0.00    +0.000 HD
ATOM     30  H   UNL     1       0.248  13.699  21.969  0.00  0.00    +0.000 HD
ENDBRANCH   4  21
TORSDOF 4
ENDMDL
