MODEL 1
REMARK VINA RESULT:      -9.6      0.000      0.000
REMARK  Name = 
REMARK  3 active torsions:
REMARK  status: ('A' for Active; 'I' for Inactive)
REMARK    1  A    between atoms: C_2  and  C_17
REMARK    2  A    between atoms: N_3  and  C_4
REMARK    3  A    between atoms: C_8  and  C_9
REMARK                            x       y       z     vdW  Elec       q    Type
REMARK                         _______ _______ _______ _____ _____    ______ ____
ROOT
ATOM      1  O   UNL     1       1.931   8.149  19.307  0.00  0.00    +0.000 OA
ATOM      2  C   UNL     1       1.429   7.893  20.397  0.00  0.00    +0.000 C 
ATOM      3  N   UNL     1       1.395   6.669  21.033  0.00  0.00    +0.000 N 
ATOM      4  H   UNL     1       0.867   6.668  21.901  0.00  0.00    +0.000 HD
ENDROOT
BRANCH   2   5
ATOM      5  C   UNL     1       0.730   8.974  21.162  0.00  0.00    +0.000 A 
ATOM      6  C   UNL     1       0.580   8.850  22.535  0.00  0.00    +0.000 A 
ATOM      7  C   UNL     1      -0.170   9.814  23.192  0.00  0.00    +0.000 A 
ATOM      8  C   UNL     1      -0.811  10.812  22.450  0.00  0.00    +0.000 A 
ATOM      9  C   UNL     1      -1.726  11.686  23.057  0.00  0.00    +0.000 A 
ATOM     10  C   UNL     1      -2.420  12.617  22.290  0.00  0.00    +0.000 A 
ATOM     11  C   UNL     1      -2.151  12.724  20.931  0.00  0.00    +0.000 A 
ATOM     12  C   UNL     1      -1.212  11.876  20.334  0.00  0.00    +0.000 A 
ATOM     13  C   UNL     1      -0.564  10.887  21.059  0.00  0.00    +0.000 A 
ATOM     14  N   UNL     1       0.229  10.007  20.421  0.00  0.00    +0.000 NA
ENDBRANCH   2   5
BRANCH   3  15
ATOM     15  C   UNL     1       1.936   5.460  20.573  0.00  0.00    +0.000 A 
ATOM     16  C   UNL     1       1.447   4.204  20.942  0.00  0.00    +0.000 A 
ATOM     17  C   UNL     1       2.035   3.040  20.440  0.00  0.00    +0.000 A 
ATOM     18  C   UNL     1       3.129   3.121  19.580  0.00  0.00    +0.000 A 
ATOM     19  C   UNL     1       3.635   4.373  19.212  0.00  0.00    +0.000 A 
ATOM     20  C   UNL     1       3.019   5.539  19.686  0.00  0.00    +0.000 A 
BRANCH  19  21
ATOM     21  C   UNL     1       4.805   4.429  18.294  0.00  0.00    +0.000 A 
ATOM     22  C   UNL     1       4.528   4.663  16.853  0.00  0.00    +0.000 A 
ATOM     23  C   UNL     1       5.574   4.664  16.023  0.00  0.00    +0.000 A 
ATOM     24  C   UNL     1       6.938   4.462  16.544  0.00  0.00    +0.000 A 
ATOM     25  O   UNL     1       7.899   4.439  15.786  0.00  0.00    +0.000 OA
ATOM     26  N   UNL     1       7.043   4.327  17.905  0.00  0.00    +0.000 N 
ATOM     27  N   UNL     1       6.000   4.291  18.785  0.00  0.00    +0.000 NA
ATOM     28  H   UNL     1       7.970   4.191  18.293  0.00  0.00    +0.000 HD
ENDBRANCH  19  21
ENDBRANCH   3  15
TORSDOF 3
ENDMDL
MODEL 2
REMARK VINA RESULT:      -9.4      0.945      1.012
REMARK  Name = 
REMARK  3 active torsions:
REMARK  status: ('A' for Active; 'I' for Inactive)
REMARK    1  A    between atoms: C_2  and  C_17
REMARK    2  A    between atoms: N_3  and  C_4
REMARK    3  A    between atoms: C_8  and  C_9
REMARK                            x       y       z     vdW  Elec       q    Type
REMARK                         _______ _______ _______ _____ _____    ______ ____
ROOT
ATOM      1  O   UNL     1       1.992   8.271  18.829  0.00  0.00    +0.000 OA
ATOM      2  C   UNL     1       1.712   7.993  19.990  0.00  0.00    +0.000 C 
ATOM      3  N   UNL     1       1.964   6.806  20.648  0.00  0.00    +0.000 N 
ATOM      4  H   UNL     1       1.584   6.766  21.590  0.00  0.00    +0.000 HD
ENDROOT
BRANCH   2   5
ATOM      5  C   UNL     1       0.985   8.992  20.836  0.00  0.00    +0.000 A 
ATOM      6  C   UNL     1       0.933   8.813  22.210  0.00  0.00    +0.000 A 
ATOM      7  C   UNL     1       0.157   9.696  22.947  0.00  0.00    +0.000 A 
ATOM      8  C   UNL     1      -0.603  10.665  22.283  0.00  0.00    +0.000 A 
ATOM      9  C   UNL     1      -1.539  11.447  22.976  0.00  0.00    +0.000 A 
ATOM     10  C   UNL     1      -2.348  12.346  22.288  0.00  0.00    +0.000 A 
ATOM     11  C   UNL     1      -2.175  12.517  20.919  0.00  0.00    +0.000 A 
ATOM     12  C   UNL     1      -1.216  11.762  20.235  0.00  0.00    +0.000 A 
ATOM     13  C   UNL     1      -0.451  10.803  20.883  0.00  0.00    +0.000 A 
ATOM     14  N   UNL     1       0.363  10.006  20.165  0.00  0.00    +0.000 NA
ENDBRANCH   2   5
BRANCH   3  15
ATOM     15  C   UNL     1       2.603   5.670  20.132  0.00  0.00    +0.000 A 
ATOM     16  C   UNL     1       2.414   4.381  20.635  0.00  0.00    +0.000 A 
ATOM     17  C   UNL     1       3.083   3.293  20.066  0.00  0.00    +0.000 A 
ATOM     18  C   UNL     1       3.963   3.489  19.003  0.00  0.00    +0.000 A 
ATOM     19  C   UNL     1       4.170   4.778  18.498  0.00  0.00    +0.000 A 
ATOM     20  C   UNL     1       3.467   5.860  19.044  0.00  0.00    +0.000 A 
BRANCH  19  21
ATOM     21  C   UNL     1       5.116   4.958  17.363  0.00  0.00    +0.000 A 
ATOM     22  C   UNL     1       5.045   3.970  16.255  0.00  0.00    +0.000 A 
ATOM     23  C   UNL     1       5.927   4.103  15.262  0.00  0.00    +0.000 A 
ATOM     24  C   UNL     1       6.906   5.206  15.278  0.00  0.00    +0.000 A 
ATOM     25  O   UNL     1       7.733   5.320  14.382  0.00  0.00    +0.000 OA
ATOM     26  N   UNL     1       6.805   6.077  16.332  0.00  0.00    +0.000 N 
ATOM     27  N   UNL     1       5.939   5.964  17.381  0.00  0.00    +0.000 NA
ATOM     28  H   UNL     1       7.462   6.850  16.367  0.00  0.00    +0.000 HD
ENDBRANCH  19  21
ENDBRANCH   3  15
TORSDOF 3
ENDMDL
MODEL 3
REMARK VINA RESULT:      -9.2      0.949      1.009
REMARK  Name = 
REMARK  3 active torsions:
REMARK  status: ('A' for Active; 'I' for Inactive)
REMARK    1  A    between atoms: C_2  and  C_17
REMARK    2  A    between atoms: N_3  and  C_4
REMARK    3  A    between atoms: C_8  and  C_9
REMARK                            x       y       z     vdW  Elec       q    Type
REMARK                         _______ _______ _______ _____ _____    ______ ____
ROOT
ATOM      1  O   UNL     1       1.931   8.261  19.042  0.00  0.00    +0.000 OA
ATOM      2  C   UNL     1       1.583   8.000  20.189  0.00  0.00    +0.000 C 
ATOM      3  N   UNL     1       1.756   6.808  20.863  0.00  0.00    +0.000 N 
ATOM      4  H   UNL     1       1.330   6.788  21.785  0.00  0.00    +0.000 HD
ENDROOT
BRANCH   2   5
ATOM      5  C   UNL     1       0.855   9.031  20.994  0.00  0.00    +0.000 A 
ATOM      6  C   UNL     1       0.787   8.897  22.372  0.00  0.00    +0.000 A 
ATOM      7  C   UNL     1       0.010   9.809  23.073  0.00  0.00    +0.000 A 
ATOM      8  C   UNL     1      -0.735  10.762  22.370  0.00  0.00    +0.000 A 
ATOM      9  C   UNL     1      -1.673  11.572  23.027  0.00  0.00    +0.000 A 
ATOM     10  C   UNL     1      -2.467  12.455  22.302  0.00  0.00    +0.000 A 
ATOM     11  C   UNL     1      -2.278  12.580  20.930  0.00  0.00    +0.000 A 
ATOM     12  C   UNL     1      -1.318  11.797  20.281  0.00  0.00    +0.000 A 
ATOM     13  C   UNL     1      -0.568  10.853  20.968  0.00  0.00    +0.000 A 
ATOM     14  N   UNL     1       0.248  10.028  20.285  0.00  0.00    +0.000 NA
ENDBRANCH   2   5
BRANCH   3  15
ATOM     15  C   UNL     1       2.375   5.646  20.383  0.00  0.00    +0.000 A 
ATOM     16  C   UNL     1       2.093   4.364  20.863  0.00  0.00    +0.000 A 
ATOM     17  C   UNL     1       2.748   3.249  20.333  0.00  0.00    +0.000 A 
ATOM     18  C   UNL     1       3.706   3.408  19.332  0.00  0.00    +0.000 A 
ATOM     19  C   UNL     1       4.005   4.687  18.851  0.00  0.00    +0.000 A 
ATOM     20  C   UNL     1       3.319   5.799  19.356  0.00  0.00    +0.000 A 
BRANCH  19  21
ATOM     21  C   UNL     1       5.033   4.827  17.783  0.00  0.00    +0.000 A 
ATOM     22  C   UNL     1       6.029   5.920  17.938  0.00  0.00    +0.000 A 
ATOM     23  C   UNL     1       6.920   6.077  16.956  0.00  0.00    +0.000 A 
ATOM     24  C   UNL     1       6.907   5.176  15.789  0.00  0.00    +0.000 A 
ATOM     25  O   UNL     1       7.707   5.328  14.874  0.00  0.00    +0.000 OA
ATOM     26  N   UNL     1       5.973   4.173  15.820  0.00  0.00    +0.000 N 
ATOM     27  N   UNL     1       5.027   3.993  16.787  0.00  0.00    +0.000 NA
ATOM     28  H   UNL     1       5.944   3.533  15.032  0.00  0.00    +0.000 HD
ENDBRANCH  19  21
ENDBRANCH   3  15
TORSDOF 3
ENDMDL
MODEL 4
REMARK VINA RESULT:      -9.1      1.430      1.815
REMARK  Name = 
REMARK  3 active torsions:
REMARK  status: ('A' for Active; 'I' for Inactive)
REMARK    1  A    between atoms: C_2  and  C_17
REMARK    2  A    between atoms: N_3  and  C_4
REMARK    3  A    between atoms: C_8  and  C_9
REMARK                            x       y       z     vdW  Elec       q    Type
REMARK                         _______ _______ _______ _____ _____    ______ ____
ROOT
ATOM      1  O   UNL     1       2.383   8.237  18.058  0.00  0.00    +0.000 OA
ATOM      2  C   UNL     1       2.050   7.782  19.148  0.00  0.00    +0.000 C 
ATOM      3  N   UNL     1       2.156   6.474  19.573  0.00  0.00    +0.000 N 
ATOM      4  H   UNL     1       1.756   6.303  20.492  0.00  0.00    +0.000 HD
ENDROOT
BRANCH   2   5
ATOM      5  C   UNL     1       1.423   8.683  20.165  0.00  0.00    +0.000 A 
ATOM      6  C   UNL     1       1.379   8.287  21.493  0.00  0.00    +0.000 A 
ATOM      7  C   UNL     1       0.691   9.095  22.387  0.00  0.00    +0.000 A 
ATOM      8  C   UNL     1       0.003  10.217  21.911  0.00  0.00    +0.000 A 
ATOM      9  C   UNL     1      -0.854  10.945  22.750  0.00  0.00    +0.000 A 
ATOM     10  C   UNL     1      -1.597  12.006  22.240  0.00  0.00    +0.000 A 
ATOM     11  C   UNL     1      -1.433  12.385  20.913  0.00  0.00    +0.000 A 
ATOM     12  C   UNL     1      -0.552  11.679  20.088  0.00  0.00    +0.000 A 
ATOM     13  C   UNL     1       0.142  10.569  20.548  0.00  0.00    +0.000 A 
ATOM     14  N   UNL     1       0.875   9.840  19.687  0.00  0.00    +0.000 NA
ENDBRANCH   2   5
BRANCH   3  15
ATOM     15  C   UNL     1       2.675   5.388  18.854  0.00  0.00    +0.000 A 
ATOM     16  C   UNL     1       2.232   4.073  19.011  0.00  0.00    +0.000 A 
ATOM     17  C   UNL     1       2.794   3.040  18.256  0.00  0.00    +0.000 A 
ATOM     18  C   UNL     1       3.819   3.311  17.351  0.00  0.00    +0.000 A 
ATOM     19  C   UNL     1       4.280   4.623  17.192  0.00  0.00    +0.000 A 
ATOM     20  C   UNL     1       3.687   5.661  17.922  0.00  0.00    +0.000 A 
BRANCH  19  21
ATOM     21  C   UNL     1       5.376   4.883  16.220  0.00  0.00    +0.000 A 
ATOM     22  C   UNL     1       5.309   4.176  14.914  0.00  0.00    +0.000 A 
ATOM     23  C   UNL     1       6.319   4.371  14.063  0.00  0.00    +0.000 A 
ATOM     24  C   UNL     1       7.430   5.272  14.419  0.00  0.00    +0.000 A 
ATOM     25  O   UNL     1       8.370   5.438  13.652  0.00  0.00    +0.000 OA
ATOM     26  N   UNL     1       7.319   5.906  15.630  0.00  0.00    +0.000 N 
ATOM     27  N   UNL     1       6.321   5.715  16.542  0.00  0.00    +0.000 NA
ATOM     28  H   UNL     1       8.066   6.537  15.900  0.00  0.00    +0.000 HD
ENDBRANCH  19  21
ENDBRANCH   3  15
TORSDOF 3
ENDMDL
MODEL 5
REMARK VINA RESULT:      -9.1      7.049      8.563
REMARK  Name = 
REMARK  3 active torsions:
REMARK  status: ('A' for Active; 'I' for Inactive)
REMARK    1  A    between atoms: C_2  and  C_17
REMARK    2  A    between atoms: N_3  and  C_4
REMARK    3  A    between atoms: C_8  and  C_9
REMARK                            x       y       z     vdW  Elec       q    Type
REMARK                         _______ _______ _______ _____ _____    ______ ____
ROOT
ATOM      1  O   UNL     1       7.548   9.675  17.460  0.00  0.00    +0.000 OA
ATOM      2  C   UNL     1       8.420   9.356  18.262  0.00  0.00    +0.000 C 
ATOM      3  N   UNL     1       8.644   8.103  18.797  0.00  0.00    +0.000 N 
ATOM      4  H   UNL     1       9.380   8.078  19.497  0.00  0.00    +0.000 HD
ENDROOT
BRANCH   2   5
ATOM      5  C   UNL     1       9.359  10.397  18.787  0.00  0.00    +0.000 A 
ATOM      6  C   UNL     1       9.390  10.663  20.147  0.00  0.00    +0.000 A 
ATOM      7  C   UNL     1      10.189  11.710  20.583  0.00  0.00    +0.000 A 
ATOM      8  C   UNL     1      10.857  12.503  19.643  0.00  0.00    +0.000 A 
ATOM      9  C   UNL     1      11.518  13.678  20.032  0.00  0.00    +0.000 A 
ATOM     10  C   UNL     1      12.104  14.501  19.074  0.00  0.00    +0.000 A 
ATOM     11  C   UNL     1      12.093  14.118  17.738  0.00  0.00    +0.000 A 
ATOM     12  C   UNL     1      11.464  12.927  17.358  0.00  0.00    +0.000 A 
ATOM     13  C   UNL     1      10.804  12.128  18.280  0.00  0.00    +0.000 A 
ATOM     14  N   UNL     1      10.099  11.064  17.853  0.00  0.00    +0.000 NA
ENDBRANCH   2   5
BRANCH   3  15
ATOM     15  C   UNL     1       7.930   6.927  18.529  0.00  0.00    +0.000 A 
ATOM     16  C   UNL     1       7.384   6.110  19.522  0.00  0.00    +0.000 A 
ATOM     17  C   UNL     1       6.679   4.953  19.180  0.00  0.00    +0.000 A 
ATOM     18  C   UNL     1       6.531   4.592  17.841  0.00  0.00    +0.000 A 
ATOM     19  C   UNL     1       7.083   5.395  16.838  0.00  0.00    +0.000 A 
ATOM     20  C   UNL     1       7.755   6.576  17.183  0.00  0.00    +0.000 A 
BRANCH  19  21
ATOM     21  C   UNL     1       6.912   4.985  15.417  0.00  0.00    +0.000 A 
ATOM     22  C   UNL     1       5.843   3.996  15.120  0.00  0.00    +0.000 A 
ATOM     23  C   UNL     1       5.723   3.591  13.854  0.00  0.00    +0.000 A 
ATOM     24  C   UNL     1       6.612   4.133  12.811  0.00  0.00    +0.000 A 
ATOM     25  O   UNL     1       6.522   3.749  11.651  0.00  0.00    +0.000 OA
ATOM     26  N   UNL     1       7.504   5.088  13.225  0.00  0.00    +0.000 N 
ATOM     27  N   UNL     1       7.680   5.511  14.511  0.00  0.00    +0.000 NA
ATOM     28  H   UNL     1       8.126   5.484  12.528  0.00  0.00    +0.000 HD
ENDBRANCH  19  21
ENDBRANCH   3  15
TORSDOF 3
ENDMDL
MODEL 6
REMARK VINA RESULT:      -9.0      3.338      9.511
REMARK  Name = 
REMARK  3 active torsions:
REMARK  status: ('A' for Active; 'I' for Inactive)
REMARK    1  A    between atoms: C_2  and  C_17
REMARK    2  A    between atoms: N_3  and  C_4
REMARK    3  A    between atoms: C_8  and  C_9
REMARK                            x       y       z     vdW  Elec       q    Type
REMARK                         _______ _______ _______ _____ _____    ______ ____
ROOT
ATOM      1  O   UNL     1       1.642   8.287  20.619  0.00  0.00    +0.000 OA
ATOM      2  C   UNL     1       1.872   8.095  19.430  0.00  0.00    +0.000 C 
ATOM      3  N   UNL     1       1.593   8.944  18.379  0.00  0.00    +0.000 N 
ATOM      4  H   UNL     1       1.807   8.556  17.464  0.00  0.00    +0.000 HD
ENDROOT
BRANCH   2   5
ATOM      5  C   UNL     1       2.493   6.804  18.995  0.00  0.00    +0.000 A 
ATOM      6  C   UNL     1       3.415   6.804  17.960  0.00  0.00    +0.000 A 
ATOM      7  C   UNL     1       3.883   5.578  17.511  0.00  0.00    +0.000 A 
ATOM      8  C   UNL     1       3.353   4.400  18.048  0.00  0.00    +0.000 A 
ATOM      9  C   UNL     1       3.662   3.151  17.489  0.00  0.00    +0.000 A 
ATOM     10  C   UNL     1       3.059   1.996  17.980  0.00  0.00    +0.000 A 
ATOM     11  C   UNL     1       2.204   2.078  19.072  0.00  0.00    +0.000 A 
ATOM     12  C   UNL     1       1.925   3.321  19.650  0.00  0.00    +0.000 A 
ATOM     13  C   UNL     1       2.449   4.496  19.132  0.00  0.00    +0.000 A 
ATOM     14  N   UNL     1       2.050   5.680  19.634  0.00  0.00    +0.000 NA
ENDBRANCH   2   5
BRANCH   3  15
ATOM     15  C   UNL     1       0.996  10.211  18.447  0.00  0.00    +0.000 A 
ATOM     16  C   UNL     1       1.705  11.387  18.705  0.00  0.00    +0.000 A 
ATOM     17  C   UNL     1       1.043  12.617  18.755  0.00  0.00    +0.000 A 
ATOM     18  C   UNL     1      -0.338  12.678  18.567  0.00  0.00    +0.000 A 
ATOM     19  C   UNL     1      -1.060  11.506  18.319  0.00  0.00    +0.000 A 
ATOM     20  C   UNL     1      -0.387  10.280  18.230  0.00  0.00    +0.000 A 
BRANCH  19  21
ATOM     21  C   UNL     1      -2.533  11.601  18.124  0.00  0.00    +0.000 A 
ATOM     22  C   UNL     1      -3.084  11.077  16.847  0.00  0.00    +0.000 A 
ATOM     23  C   UNL     1      -4.398  11.208  16.651  0.00  0.00    +0.000 A 
ATOM     24  C   UNL     1      -5.247  11.830  17.684  0.00  0.00    +0.000 A 
ATOM     25  O   UNL     1      -6.449  11.973  17.501  0.00  0.00    +0.000 OA
ATOM     26  N   UNL     1      -4.605  12.203  18.837  0.00  0.00    +0.000 N 
ATOM     27  N   UNL     1      -3.263  12.113  19.068  0.00  0.00    +0.000 NA
ATOM     28  H   UNL     1      -5.164  12.629  19.569  0.00  0.00    +0.000 HD
ENDBRANCH  19  21
ENDBRANCH   3  15
TORSDOF 3
ENDMDL
MODEL 7
REMARK VINA RESULT:      -8.9      3.143      9.359
REMARK  Name = 
REMARK  3 active torsions:
REMARK  status: ('A' for Active; 'I' for Inactive)
REMARK    1  A    between atoms: C_2  and  C_17
REMARK    2  A    between atoms: N_3  and  C_4
REMARK    3  A    between atoms: C_8  and  C_9
REMARK                            x       y       z     vdW  Elec       q    Type
REMARK                         _______ _______ _______ _____ _____    ______ ____
ROOT
ATOM      1  O   UNL     1       2.140   9.250  17.432  0.00  0.00    +0.000 OA
ATOM      2  C   UNL     1       1.934   8.663  18.489  0.00  0.00    +0.000 C 
ATOM      3  N   UNL     1       1.216   9.125  19.573  0.00  0.00    +0.000 N 
ATOM      4  H   UNL     1       1.228   8.500  20.375  0.00  0.00    +0.000 HD
ENDROOT
BRANCH   2   5
ATOM      5  C   UNL     1       2.525   7.306  18.709  0.00  0.00    +0.000 A 
ATOM      6  C   UNL     1       3.330   6.745  17.730  0.00  0.00    +0.000 A 
ATOM      7  C   UNL     1       3.768   5.443  17.920  0.00  0.00    +0.000 A 
ATOM      8  C   UNL     1       3.319   4.721  19.031  0.00  0.00    +0.000 A 
ATOM      9  C   UNL     1       3.586   3.349  19.156  0.00  0.00    +0.000 A 
ATOM     10  C   UNL     1       3.060   2.627  20.222  0.00  0.00    +0.000 A 
ATOM     11  C   UNL     1       2.326   3.285  21.202  0.00  0.00    +0.000 A 
ATOM     12  C   UNL     1       2.090   4.660  21.095  0.00  0.00    +0.000 A 
ATOM     13  C   UNL     1       2.536   5.389  20.001  0.00  0.00    +0.000 A 
ATOM     14  N   UNL     1       2.173   6.679  19.871  0.00  0.00    +0.000 NA
ENDBRANCH   2   5
BRANCH   3  15
ATOM     15  C   UNL     1       0.560  10.358  19.693  0.00  0.00    +0.000 A 
ATOM     16  C   UNL     1       1.123  11.476  20.315  0.00  0.00    +0.000 A 
ATOM     17  C   UNL     1       0.411  12.676  20.394  0.00  0.00    +0.000 A 
ATOM     18  C   UNL     1      -0.879  12.762  19.869  0.00  0.00    +0.000 A 
ATOM     19  C   UNL     1      -1.457  11.646  19.255  0.00  0.00    +0.000 A 
ATOM     20  C   UNL     1      -0.725  10.457  19.142  0.00  0.00    +0.000 A 
BRANCH  19  21
ATOM     21  C   UNL     1      -2.836  11.766  18.706  0.00  0.00    +0.000 A 
ATOM     22  C   UNL     1      -3.085  11.183  17.362  0.00  0.00    +0.000 A 
ATOM     23  C   UNL     1      -4.308  11.335  16.849  0.00  0.00    +0.000 A 
ATOM     24  C   UNL     1      -5.355  12.036  17.614  0.00  0.00    +0.000 A 
ATOM     25  O   UNL     1      -6.472  12.199  17.140  0.00  0.00    +0.000 OA
ATOM     26  N   UNL     1      -4.994  12.460  18.868  0.00  0.00    +0.000 N 
ATOM     27  N   UNL     1      -3.751  12.351  19.420  0.00  0.00    +0.000 NA
ATOM     28  H   UNL     1      -5.696  12.941  19.421  0.00  0.00    +0.000 HD
ENDBRANCH  19  21
ENDBRANCH   3  15
TORSDOF 3
ENDMDL
MODEL 8
REMARK VINA RESULT:      -8.9      5.523      8.311
REMARK  Name = 
REMARK  3 active torsions:
REMARK  status: ('A' for Active; 'I' for Inactive)
REMARK    1  A    between atoms: C_2  and  C_17
REMARK    2  A    between atoms: N_3  and  C_4
REMARK    3  A    between atoms: C_8  and  C_9
REMARK                            x       y       z     vdW  Elec       q    Type
REMARK                         _______ _______ _______ _____ _____    ______ ____
ROOT
ATOM      1  O   UNL     1       8.638   7.336  19.024  0.00  0.00    +0.000 OA
ATOM      2  C   UNL     1       8.115   8.153  18.272  0.00  0.00    +0.000 C 
ATOM      3  N   UNL     1       7.175   7.903  17.294  0.00  0.00    +0.000 N 
ATOM      4  H   UNL     1       6.927   8.719  16.740  0.00  0.00    +0.000 HD
ENDROOT
BRANCH   2   5
ATOM      5  C   UNL     1       8.521   9.591  18.346  0.00  0.00    +0.000 A 
ATOM      6  C   UNL     1       7.933  10.511  17.492  0.00  0.00    +0.000 A 
ATOM      7  C   UNL     1       8.413  11.812  17.512  0.00  0.00    +0.000 A 
ATOM      8  C   UNL     1       9.514  12.127  18.317  0.00  0.00    +0.000 A 
ATOM      9  C   UNL     1      10.143  13.377  18.221  0.00  0.00    +0.000 A 
ATOM     10  C   UNL     1      11.289  13.644  18.965  0.00  0.00    +0.000 A 
ATOM     11  C   UNL     1      11.767  12.691  19.856  0.00  0.00    +0.000 A 
ATOM     12  C   UNL     1      11.118  11.458  19.976  0.00  0.00    +0.000 A 
ATOM     13  C   UNL     1      10.021  11.135  19.190  0.00  0.00    +0.000 A 
ATOM     14  N   UNL     1       9.509   9.891  19.241  0.00  0.00    +0.000 NA
ENDBRANCH   2   5
BRANCH   3  15
ATOM     15  C   UNL     1       6.609   6.666  16.957  0.00  0.00    +0.000 A 
ATOM     16  C   UNL     1       7.072   5.860  15.914  0.00  0.00    +0.000 A 
ATOM     17  C   UNL     1       6.460   4.635  15.639  0.00  0.00    +0.000 A 
ATOM     18  C   UNL     1       5.365   4.213  16.393  0.00  0.00    +0.000 A 
ATOM     19  C   UNL     1       4.884   5.016  17.433  0.00  0.00    +0.000 A 
ATOM     20  C   UNL     1       5.525   6.226  17.731  0.00  0.00    +0.000 A 
BRANCH  19  21
ATOM     21  C   UNL     1       3.712   4.542  18.219  0.00  0.00    +0.000 A 
ATOM     22  C   UNL     1       2.598   3.910  17.466  0.00  0.00    +0.000 A 
ATOM     23  C   UNL     1       1.527   3.531  18.166  0.00  0.00    +0.000 A 
ATOM     24  C   UNL     1       1.486   3.722  19.627  0.00  0.00    +0.000 A 
ATOM     25  O   UNL     1       0.497   3.397  20.272  0.00  0.00    +0.000 OA
ATOM     26  N   UNL     1       2.616   4.256  20.190  0.00  0.00    +0.000 N 
ATOM     27  N   UNL     1       3.721   4.683  19.511  0.00  0.00    +0.000 NA
ATOM     28  H   UNL     1       2.620   4.394  21.195  0.00  0.00    +0.000 HD
ENDBRANCH  19  21
ENDBRANCH   3  15
TORSDOF 3
ENDMDL
MODEL 9
REMARK VINA RESULT:      -8.9      2.381      3.910
REMARK  Name = 
REMARK  3 active torsions:
REMARK  status: ('A' for Active; 'I' for Inactive)
REMARK    1  A    between atoms: C_2  and  C_17
REMARK    2  A    between atoms: N_3  and  C_4
REMARK    3  A    between atoms: C_8  and  C_9
REMARK                            x       y       z     vdW  Elec       q    Type
REMARK                         _______ _______ _______ _____ _____    ______ ____
ROOT
ATOM      1  O   UNL     1       2.843   5.402  19.830  0.00  0.00    +0.000 OA
ATOM      2  C   UNL     1       3.035   6.498  19.314  0.00  0.00    +0.000 C 
ATOM      3  N   UNL     1       4.111   6.878  18.538  0.00  0.00    +0.000 N 
ATOM      4  H   UNL     1       4.102   7.858  18.268  0.00  0.00    +0.000 HD
ENDROOT
BRANCH   2   5
ATOM      5  C   UNL     1       2.052   7.604  19.538  0.00  0.00    +0.000 A 
ATOM      6  C   UNL     1       1.839   8.541  18.538  0.00  0.00    +0.000 A 
ATOM      7  C   UNL     1       1.005   9.612  18.823  0.00  0.00    +0.000 A 
ATOM      8  C   UNL     1       0.487   9.757  20.114  0.00  0.00    +0.000 A 
ATOM      9  C   UNL     1      -0.200  10.921  20.489  0.00  0.00    +0.000 A 
ATOM     10  C   UNL     1      -0.635  11.087  21.801  0.00  0.00    +0.000 A 
ATOM     11  C   UNL     1      -0.447  10.062  22.721  0.00  0.00    +0.000 A 
ATOM     12  C   UNL     1       0.207   8.887  22.337  0.00  0.00    +0.000 A 
ATOM     13  C   UNL     1       0.720   8.728  21.057  0.00  0.00    +0.000 A 
ATOM     14  N   UNL     1       1.458   7.640  20.768  0.00  0.00    +0.000 NA
ENDBRANCH   2   5
BRANCH   3  15
ATOM     15  C   UNL     1       5.208   6.088  18.165  0.00  0.00    +0.000 A 
ATOM     16  C   UNL     1       6.110   5.536  19.077  0.00  0.00    +0.000 A 
ATOM     17  C   UNL     1       7.180   4.755  18.632  0.00  0.00    +0.000 A 
ATOM     18  C   UNL     1       7.368   4.534  17.268  0.00  0.00    +0.000 A 
ATOM     19  C   UNL     1       6.477   5.091  16.343  0.00  0.00    +0.000 A 
ATOM     20  C   UNL     1       5.383   5.841  16.795  0.00  0.00    +0.000 A 
BRANCH  19  21
ATOM     21  C   UNL     1       6.703   4.841  14.894  0.00  0.00    +0.000 A 
ATOM     22  C   UNL     1       5.783   3.890  14.217  0.00  0.00    +0.000 A 
ATOM     23  C   UNL     1       6.017   3.628  12.929  0.00  0.00    +0.000 A 
ATOM     24  C   UNL     1       7.133   4.286  12.226  0.00  0.00    +0.000 A 
ATOM     25  O   UNL     1       7.367   4.033  11.050  0.00  0.00    +0.000 OA
ATOM     26  N   UNL     1       7.853   5.190  12.964  0.00  0.00    +0.000 N 
ATOM     27  N   UNL     1       7.667   5.467  14.288  0.00  0.00    +0.000 NA
ATOM     28  H   UNL     1       8.625   5.663  12.505  0.00  0.00    +0.000 HD
ENDBRANCH  19  21
ENDBRANCH   3  15
TORSDOF 3
ENDMDL
