MODEL 1
REMARK VINA RESULT:      -8.6      0.000      0.000
REMARK  Name = 
REMARK  3 active torsions:
REMARK  status: ('A' for Active; 'I' for Inactive)
REMARK    1  A    between atoms: C_1  and  C_2
REMARK    2  A    between atoms: C_11  and  C_13
REMARK    3  A    between atoms: C_15  and  C_16
REMARK                            x       y       z     vdW  Elec       q    Type
REMARK                         _______ _______ _______ _____ _____    ______ ____
ROOT
ATOM      1  C   UNL     1       3.142   5.164  18.577  0.00  0.00    +0.000 A 
ATOM      2  C   UNL     1       2.703   6.472  18.778  0.00  0.00    +0.000 A 
ATOM      3  C   UNL     1       2.020   6.803  19.944  0.00  0.00    +0.000 A 
ATOM      4  N   UNL     1       1.761   5.878  20.899  0.00  0.00    +0.000 NA
ATOM      5  C   UNL     1       2.206   4.625  20.736  0.00  0.00    +0.000 A 
ATOM      6  C   UNL     1       2.012   3.743  21.790  0.00  0.00    +0.000 A 
ATOM      7  C   UNL     1       2.504   2.439  21.757  0.00  0.00    +0.000 A 
ATOM      8  C   UNL     1       3.132   1.975  20.613  0.00  0.00    +0.000 A 
ATOM      9  C   UNL     1       3.301   2.831  19.526  0.00  0.00    +0.000 A 
ATOM     10  C   UNL     1       2.889   4.186  19.579  0.00  0.00    +0.000 A 
ENDROOT
BRANCH   1  21
ATOM     11  C   UNL     1       6.497   5.390  19.019  0.00  0.00    +0.000 C 
ATOM     12  C   UNL     1       6.029   6.001  17.702  0.00  0.00    +0.000 C 
ATOM     13  C   UNL     1       7.226   6.295  16.768  0.00  0.00    +0.000 C 
ATOM     14  C   UNL     1       6.919   5.463  15.573  0.00  0.00    +0.000 A 
ATOM     15  C   UNL     1       7.688   5.366  14.420  0.00  0.00    +0.000 A 
ATOM     16  C   UNL     1       7.241   4.538  13.395  0.00  0.00    +0.000 A 
ATOM     17  C   UNL     1       6.048   3.811  13.545  0.00  0.00    +0.000 A 
ATOM     18  C   UNL     1       5.278   3.936  14.708  0.00  0.00    +0.000 A 
ATOM     19  C   UNL     1       5.711   4.782  15.719  0.00  0.00    +0.000 A 
ATOM     20  N   UNL     1       5.086   5.127  16.951  0.00  0.00    +0.000 N 
ATOM     21  C   UNL     1       3.777   4.777  17.269  0.00  0.00    +0.000 C 
ATOM     22  O   UNL     1       3.031   4.145  16.519  0.00  0.00    +0.000 OA
ENDBRANCH   1  21
BRANCH   3  23
ATOM     23  C   UNL     1       1.541   8.181  20.201  0.00  0.00    +0.000 A 
ATOM     24  C   UNL     1       1.181   8.626  21.473  0.00  0.00    +0.000 A 
ATOM     25  C   UNL     1       0.706   9.923  21.636  0.00  0.00    +0.000 A 
ATOM     26  C   UNL     1       0.610  10.758  20.528  0.00  0.00    +0.000 A 
ATOM     27  C   UNL     1       1.000  10.255  19.300  0.00  0.00    +0.000 A 
ATOM     28  N   UNL     1       1.459   8.998  19.112  0.00  0.00    +0.000 NA
ENDBRANCH   3  23
TORSDOF 2
ENDMDL
MODEL 2
REMARK VINA RESULT:      -8.2      4.835     10.566
REMARK  Name = 
REMARK  3 active torsions:
REMARK  status: ('A' for Active; 'I' for Inactive)
REMARK    1  A    between atoms: C_1  and  C_2
REMARK    2  A    between atoms: C_11  and  C_13
REMARK    3  A    between atoms: C_15  and  C_16
REMARK                            x       y       z     vdW  Elec       q    Type
REMARK                         _______ _______ _______ _____ _____    ______ ____
ROOT
ATOM      1  C   UNL     1      -0.841  11.797  19.403  0.00  0.00    +0.000 A 
ATOM      2  C   UNL     1      -0.305  10.509  19.402  0.00  0.00    +0.000 A 
ATOM      3  C   UNL     1       1.022  10.311  19.033  0.00  0.00    +0.000 A 
ATOM      4  N   UNL     1       1.817  11.345  18.666  0.00  0.00    +0.000 NA
ATOM      5  C   UNL     1       1.326  12.592  18.696  0.00  0.00    +0.000 A 
ATOM      6  C   UNL     1       2.209  13.625  18.418  0.00  0.00    +0.000 A 
ATOM      7  C   UNL     1       1.824  14.963  18.496  0.00  0.00    +0.000 A 
ATOM      8  C   UNL     1       0.504  15.277  18.777  0.00  0.00    +0.000 A 
ATOM      9  C   UNL     1      -0.410  14.253  19.019  0.00  0.00    +0.000 A 
ATOM     10  C   UNL     1      -0.013  12.893  19.033  0.00  0.00    +0.000 A 
ENDROOT
BRANCH   1  21
ATOM     11  C   UNL     1      -2.542  10.027  17.064  0.00  0.00    +0.000 C 
ATOM     12  C   UNL     1      -3.117  11.422  17.288  0.00  0.00    +0.000 C 
ATOM     13  C   UNL     1      -4.504  11.568  16.618  0.00  0.00    +0.000 C 
ATOM     14  C   UNL     1      -5.391  11.883  17.770  0.00  0.00    +0.000 A 
ATOM     15  C   UNL     1      -6.759  12.117  17.713  0.00  0.00    +0.000 A 
ATOM     16  C   UNL     1      -7.430  12.406  18.897  0.00  0.00    +0.000 A 
ATOM     17  C   UNL     1      -6.730  12.439  20.115  0.00  0.00    +0.000 A 
ATOM     18  C   UNL     1      -5.347  12.218  20.148  0.00  0.00    +0.000 A 
ATOM     19  C   UNL     1      -4.674  11.956  18.964  0.00  0.00    +0.000 A 
ATOM     20  N   UNL     1      -3.283  11.766  18.727  0.00  0.00    +0.000 N 
ATOM     21  C   UNL     1      -2.304  12.001  19.688  0.00  0.00    +0.000 C 
ATOM     22  O   UNL     1      -2.540  12.402  20.828  0.00  0.00    +0.000 OA
ENDBRANCH   1  21
BRANCH   3  23
ATOM     23  C   UNL     1       1.634   8.962  19.024  0.00  0.00    +0.000 A 
ATOM     24  C   UNL     1       2.268   8.434  17.899  0.00  0.00    +0.000 A 
ATOM     25  C   UNL     1       2.790   7.144  17.950  0.00  0.00    +0.000 A 
ATOM     26  C   UNL     1       2.680   6.411  19.126  0.00  0.00    +0.000 A 
ATOM     27  C   UNL     1       2.053   7.004  20.206  0.00  0.00    +0.000 A 
ATOM     28  N   UNL     1       1.531   8.251  20.183  0.00  0.00    +0.000 NA
ENDBRANCH   3  23
TORSDOF 2
ENDMDL
MODEL 3
REMARK VINA RESULT:      -7.7      4.634     11.105
REMARK  Name = 
REMARK  3 active torsions:
REMARK  status: ('A' for Active; 'I' for Inactive)
REMARK    1  A    between atoms: C_1  and  C_2
REMARK    2  A    between atoms: C_11  and  C_13
REMARK    3  A    between atoms: C_15  and  C_16
REMARK                            x       y       z     vdW  Elec       q    Type
REMARK                         _______ _______ _______ _____ _____    ______ ____
ROOT
ATOM      1  C   UNL     1      -0.913  12.074  19.636  0.00  0.00    +0.000 A 
ATOM      2  C   UNL     1      -0.392  10.781  19.605  0.00  0.00    +0.000 A 
ATOM      3  C   UNL     1       0.906  10.567  19.152  0.00  0.00    +0.000 A 
ATOM      4  N   UNL     1       1.686  11.592  18.730  0.00  0.00    +0.000 NA
ATOM      5  C   UNL     1       1.211  12.843  18.787  0.00  0.00    +0.000 A 
ATOM      6  C   UNL     1       2.086  13.866  18.448  0.00  0.00    +0.000 A 
ATOM      7  C   UNL     1       1.720  15.209  18.546  0.00  0.00    +0.000 A 
ATOM      8  C   UNL     1       0.425  15.538  18.910  0.00  0.00    +0.000 A 
ATOM      9  C   UNL     1      -0.483  14.524  19.215  0.00  0.00    +0.000 A 
ATOM     10  C   UNL     1      -0.099  13.160  19.209  0.00  0.00    +0.000 A 
ENDROOT
BRANCH   1  21
ATOM     11  C   UNL     1      -0.901  13.641  22.644  0.00  0.00    +0.000 C 
ATOM     12  C   UNL     1      -1.920  12.509  22.568  0.00  0.00    +0.000 C 
ATOM     13  C   UNL     1      -2.896  12.557  23.767  0.00  0.00    +0.000 C 
ATOM     14  C   UNL     1      -4.218  12.724  23.105  0.00  0.00    +0.000 A 
ATOM     15  C   UNL     1      -5.449  12.819  23.742  0.00  0.00    +0.000 A 
ATOM     16  C   UNL     1      -6.589  12.968  22.958  0.00  0.00    +0.000 A 
ATOM     17  C   UNL     1      -6.479  13.036  21.558  0.00  0.00    +0.000 A 
ATOM     18  C   UNL     1      -5.230  12.921  20.935  0.00  0.00    +0.000 A 
ATOM     19  C   UNL     1      -4.097  12.746  21.716  0.00  0.00    +0.000 A 
ATOM     20  N   UNL     1      -2.743  12.541  21.327  0.00  0.00    +0.000 N 
ATOM     21  C   UNL     1      -2.353  12.295  20.014  0.00  0.00    +0.000 C 
ATOM     22  O   UNL     1      -3.135  12.224  19.065  0.00  0.00    +0.000 OA
ENDBRANCH   1  21
BRANCH   3  23
ATOM     23  C   UNL     1       1.502   9.212  19.108  0.00  0.00    +0.000 A 
ATOM     24  C   UNL     1       2.103   8.693  17.961  0.00  0.00    +0.000 A 
ATOM     25  C   UNL     1       2.610   7.397  17.981  0.00  0.00    +0.000 A 
ATOM     26  C   UNL     1       2.520   6.648  19.148  0.00  0.00    +0.000 A 
ATOM     27  C   UNL     1       1.926   7.232  20.252  0.00  0.00    +0.000 A 
ATOM     28  N   UNL     1       1.419   8.485  20.259  0.00  0.00    +0.000 NA
ENDBRANCH   3  23
TORSDOF 2
ENDMDL
MODEL 4
REMARK VINA RESULT:      -7.4      5.237     11.751
REMARK  Name = 
REMARK  3 active torsions:
REMARK  status: ('A' for Active; 'I' for Inactive)
REMARK    1  A    between atoms: C_1  and  C_2
REMARK    2  A    between atoms: C_11  and  C_13
REMARK    3  A    between atoms: C_15  and  C_16
REMARK                            x       y       z     vdW  Elec       q    Type
REMARK                         _______ _______ _______ _____ _____    ______ ____
ROOT
ATOM      1  C   UNL     1      -1.656  12.583  20.133  0.00  0.00    +0.000 A 
ATOM      2  C   UNL     1      -1.041  11.339  20.000  0.00  0.00    +0.000 A 
ATOM      3  C   UNL     1       0.276  11.259  19.558  0.00  0.00    +0.000 A 
ATOM      4  N   UNL     1       0.986  12.370  19.245  0.00  0.00    +0.000 NA
ATOM      5  C   UNL     1       0.420  13.575  19.401  0.00  0.00    +0.000 A 
ATOM      6  C   UNL     1       1.222  14.684  19.172  0.00  0.00    +0.000 A 
ATOM      7  C   UNL     1       0.758  15.983  19.381  0.00  0.00    +0.000 A 
ATOM      8  C   UNL     1      -0.563  16.185  19.744  0.00  0.00    +0.000 A 
ATOM      9  C   UNL     1      -1.399  15.086  19.939  0.00  0.00    +0.000 A 
ATOM     10  C   UNL     1      -0.917  13.758  19.821  0.00  0.00    +0.000 A 
ENDROOT
BRANCH   1  21
ATOM     11  C   UNL     1      -1.801  13.844  23.278  0.00  0.00    +0.000 C 
ATOM     12  C   UNL     1      -2.737  12.658  23.070  0.00  0.00    +0.000 C 
ATOM     13  C   UNL     1      -3.733  12.520  24.246  0.00  0.00    +0.000 C 
ATOM     14  C   UNL     1      -5.053  12.660  23.573  0.00  0.00    +0.000 A 
ATOM     15  C   UNL     1      -6.297  12.607  24.188  0.00  0.00    +0.000 A 
ATOM     16  C   UNL     1      -7.432  12.753  23.396  0.00  0.00    +0.000 A 
ATOM     17  C   UNL     1      -7.305  12.966  22.013  0.00  0.00    +0.000 A 
ATOM     18  C   UNL     1      -6.042  12.998  21.410  0.00  0.00    +0.000 A 
ATOM     19  C   UNL     1      -4.911  12.827  22.196  0.00  0.00    +0.000 A 
ATOM     20  N   UNL     1      -3.540  12.754  21.820  0.00  0.00    +0.000 N 
ATOM     21  C   UNL     1      -3.113  12.666  20.498  0.00  0.00    +0.000 C 
ATOM     22  O   UNL     1      -3.873  12.635  19.529  0.00  0.00    +0.000 OA
ENDBRANCH   1  21
BRANCH   3  23
ATOM     23  C   UNL     1       0.970   9.959  19.407  0.00  0.00    +0.000 A 
ATOM     24  C   UNL     1       1.512   9.533  18.195  0.00  0.00    +0.000 A 
ATOM     25  C   UNL     1       2.119   8.284  18.117  0.00  0.00    +0.000 A 
ATOM     26  C   UNL     1       2.184   7.487  19.255  0.00  0.00    +0.000 A 
ATOM     27  C   UNL     1       1.641   7.980  20.426  0.00  0.00    +0.000 A 
ATOM     28  N   UNL     1       1.039   9.186  20.529  0.00  0.00    +0.000 NA
ENDBRANCH   3  23
TORSDOF 2
ENDMDL
MODEL 5
REMARK VINA RESULT:      -7.3      4.419     10.970
REMARK  Name = 
REMARK  3 active torsions:
REMARK  status: ('A' for Active; 'I' for Inactive)
REMARK    1  A    between atoms: C_1  and  C_2
REMARK    2  A    between atoms: C_11  and  C_13
REMARK    3  A    between atoms: C_15  and  C_16
REMARK                            x       y       z     vdW  Elec       q    Type
REMARK                         _______ _______ _______ _____ _____    ______ ____
ROOT
ATOM      1  C   UNL     1       0.027  11.789  20.770  0.00  0.00    +0.000 A 
ATOM      2  C   UNL     1       0.451  10.500  20.446  0.00  0.00    +0.000 A 
ATOM      3  C   UNL     1       1.363  10.310  19.411  0.00  0.00    +0.000 A 
ATOM      4  N   UNL     1       1.852  11.354  18.699  0.00  0.00    +0.000 NA
ATOM      5  C   UNL     1       1.480  12.600  19.022  0.00  0.00    +0.000 A 
ATOM      6  C   UNL     1       2.092  13.640  18.336  0.00  0.00    +0.000 A 
ATOM      7  C   UNL     1       1.837  14.976  18.646  0.00  0.00    +0.000 A 
ATOM      8  C   UNL     1       0.886  15.284  19.605  0.00  0.00    +0.000 A 
ATOM      9  C   UNL     1       0.228  14.255  20.277  0.00  0.00    +0.000 A 
ATOM     10  C   UNL     1       0.544  12.894  20.039  0.00  0.00    +0.000 A 
ENDROOT
BRANCH   1  21
ATOM     11  C   UNL     1      -2.946  11.450  19.174  0.00  0.00    +0.000 C 
ATOM     12  C   UNL     1      -2.915  12.642  20.125  0.00  0.00    +0.000 C 
ATOM     13  C   UNL     1      -4.335  13.213  20.351  0.00  0.00    +0.000 C 
ATOM     14  C   UNL     1      -4.519  13.060  21.819  0.00  0.00    +0.000 A 
ATOM     15  C   UNL     1      -5.642  13.429  22.549  0.00  0.00    +0.000 A 
ATOM     16  C   UNL     1      -5.635  13.216  23.924  0.00  0.00    +0.000 A 
ATOM     17  C   UNL     1      -4.520  12.624  24.541  0.00  0.00    +0.000 A 
ATOM     18  C   UNL     1      -3.391  12.275  23.790  0.00  0.00    +0.000 A 
ATOM     19  C   UNL     1      -3.387  12.512  22.423  0.00  0.00    +0.000 A 
ATOM     20  N   UNL     1      -2.354  12.311  21.465  0.00  0.00    +0.000 N 
ATOM     21  C   UNL     1      -1.045  11.987  21.808  0.00  0.00    +0.000 C 
ATOM     22  O   UNL     1      -0.650  11.849  22.966  0.00  0.00    +0.000 OA
ENDBRANCH   1  21
BRANCH   3  23
ATOM     23  C   UNL     1       1.845   8.961  19.037  0.00  0.00    +0.000 A 
ATOM     24  C   UNL     1       2.291   8.653  17.751  0.00  0.00    +0.000 A 
ATOM     25  C   UNL     1       2.697   7.354  17.460  0.00  0.00    +0.000 A 
ATOM     26  C   UNL     1       2.662   6.389  18.461  0.00  0.00    +0.000 A 
ATOM     27  C   UNL     1       2.224   6.770  19.716  0.00  0.00    +0.000 A 
ATOM     28  N   UNL     1       1.818   8.022  20.025  0.00  0.00    +0.000 NA
ENDBRANCH   3  23
TORSDOF 2
ENDMDL
MODEL 6
REMARK VINA RESULT:      -7.2      4.560     10.876
REMARK  Name = 
REMARK  3 active torsions:
REMARK  status: ('A' for Active; 'I' for Inactive)
REMARK    1  A    between atoms: C_1  and  C_2
REMARK    2  A    between atoms: C_11  and  C_13
REMARK    3  A    between atoms: C_15  and  C_16
REMARK                            x       y       z     vdW  Elec       q    Type
REMARK                         _______ _______ _______ _____ _____    ______ ____
ROOT
ATOM      1  C   UNL     1      -0.739  12.012  19.047  0.00  0.00    +0.000 A 
ATOM      2  C   UNL     1      -0.223  10.716  19.033  0.00  0.00    +0.000 A 
ATOM      3  C   UNL     1       1.128  10.511  18.770  0.00  0.00    +0.000 A 
ATOM      4  N   UNL     1       1.965  11.546  18.519  0.00  0.00    +0.000 NA
ATOM      5  C   UNL     1       1.491  12.799  18.563  0.00  0.00    +0.000 A 
ATOM      6  C   UNL     1       2.409  13.828  18.409  0.00  0.00    +0.000 A 
ATOM      7  C   UNL     1       2.036  15.168  18.515  0.00  0.00    +0.000 A 
ATOM      8  C   UNL     1       0.702  15.492  18.697  0.00  0.00    +0.000 A 
ATOM      9  C   UNL     1      -0.244  14.474  18.813  0.00  0.00    +0.000 A 
ATOM     10  C   UNL     1       0.132  13.108  18.799  0.00  0.00    +0.000 A 
ENDROOT
BRANCH   1  21
ATOM     11  C   UNL     1      -1.154  13.653  21.986  0.00  0.00    +0.000 C 
ATOM     12  C   UNL     1      -2.147  12.510  21.798  0.00  0.00    +0.000 C 
ATOM     13  C   UNL     1      -3.281  12.578  22.848  0.00  0.00    +0.000 C 
ATOM     14  C   UNL     1      -4.499  12.717  22.005  0.00  0.00    +0.000 A 
ATOM     15  C   UNL     1      -5.807  12.817  22.461  0.00  0.00    +0.000 A 
ATOM     16  C   UNL     1      -6.827  12.935  21.522  0.00  0.00    +0.000 A 
ATOM     17  C   UNL     1      -6.524  12.970  20.151  0.00  0.00    +0.000 A 
ATOM     18  C   UNL     1      -5.200  12.850  19.711  0.00  0.00    +0.000 A 
ATOM     19  C   UNL     1      -4.185  12.706  20.646  0.00  0.00    +0.000 A 
ATOM     20  N   UNL     1      -2.789  12.503  20.455  0.00  0.00    +0.000 N 
ATOM     21  C   UNL     1      -2.218  12.228  19.215  0.00  0.00    +0.000 C 
ATOM     22  O   UNL     1      -2.860  12.126  18.169  0.00  0.00    +0.000 OA
ENDBRANCH   1  21
BRANCH   3  23
ATOM     23  C   UNL     1       1.720   9.153  18.751  0.00  0.00    +0.000 A 
ATOM     24  C   UNL     1       1.634   8.281  19.836  0.00  0.00    +0.000 A 
ATOM     25  C   UNL     1       2.244   7.033  19.761  0.00  0.00    +0.000 A 
ATOM     26  C   UNL     1       2.919   6.673  18.600  0.00  0.00    +0.000 A 
ATOM     27  C   UNL     1       2.950   7.581  17.558  0.00  0.00    +0.000 A 
ATOM     28  N   UNL     1       2.372   8.802  17.605  0.00  0.00    +0.000 NA
ENDBRANCH   3  23
TORSDOF 2
ENDMDL
MODEL 7
REMARK VINA RESULT:      -7.0      3.298      7.004
REMARK  Name = 
REMARK  3 active torsions:
REMARK  status: ('A' for Active; 'I' for Inactive)
REMARK    1  A    between atoms: C_1  and  C_2
REMARK    2  A    between atoms: C_11  and  C_13
REMARK    3  A    between atoms: C_15  and  C_16
REMARK                            x       y       z     vdW  Elec       q    Type
REMARK                         _______ _______ _______ _____ _____    ______ ____
ROOT
ATOM      1  C   UNL     1       0.661  10.827  19.109  0.00  0.00    +0.000 A 
ATOM      2  C   UNL     1       1.277  11.817  19.874  0.00  0.00    +0.000 A 
ATOM      3  C   UNL     1       0.561  12.949  20.251  0.00  0.00    +0.000 A 
ATOM      4  N   UNL     1      -0.733  13.121  19.888  0.00  0.00    +0.000 NA
ATOM      5  C   UNL     1      -1.349  12.163  19.183  0.00  0.00    +0.000 A 
ATOM      6  C   UNL     1      -2.702  12.335  18.930  0.00  0.00    +0.000 A 
ATOM      7  C   UNL     1      -3.457  11.364  18.273  0.00  0.00    +0.000 A 
ATOM      8  C   UNL     1      -2.831  10.230  17.781  0.00  0.00    +0.000 A 
ATOM      9  C   UNL     1      -1.463  10.056  17.988  0.00  0.00    +0.000 A 
ATOM     10  C   UNL     1      -0.701  10.990  18.733  0.00  0.00    +0.000 A 
ENDROOT
BRANCH   1  21
ATOM     11  C   UNL     1      -0.255   8.137  20.960  0.00  0.00    +0.000 C 
ATOM     12  C   UNL     1       1.255   8.241  20.769  0.00  0.00    +0.000 C 
ATOM     13  C   UNL     1       1.963   6.937  21.206  0.00  0.00    +0.000 C 
ATOM     14  C   UNL     1       2.635   6.495  19.954  0.00  0.00    +0.000 A 
ATOM     15  C   UNL     1       3.422   5.360  19.801  0.00  0.00    +0.000 A 
ATOM     16  C   UNL     1       3.979   5.107  18.551  0.00  0.00    +0.000 A 
ATOM     17  C   UNL     1       3.728   5.977  17.477  0.00  0.00    +0.000 A 
ATOM     18  C   UNL     1       2.947   7.125  17.657  0.00  0.00    +0.000 A 
ATOM     19  C   UNL     1       2.413   7.392  18.910  0.00  0.00    +0.000 A 
ATOM     20  N   UNL     1       1.652   8.508  19.359  0.00  0.00    +0.000 N 
ATOM     21  C   UNL     1       1.464   9.661  18.602  0.00  0.00    +0.000 C 
ATOM     22  O   UNL     1       1.940   9.832  17.479  0.00  0.00    +0.000 OA
ENDBRANCH   1  21
BRANCH   3  23
ATOM     23  C   UNL     1       1.174  14.022  21.068  0.00  0.00    +0.000 A 
ATOM     24  C   UNL     1       0.435  15.084  21.589  0.00  0.00    +0.000 A 
ATOM     25  C   UNL     1       1.083  16.076  22.319  0.00  0.00    +0.000 A 
ATOM     26  C   UNL     1       2.455  15.984  22.525  0.00  0.00    +0.000 A 
ATOM     27  C   UNL     1       3.121  14.895  21.993  0.00  0.00    +0.000 A 
ATOM     28  N   UNL     1       2.518  13.921  21.275  0.00  0.00    +0.000 NA
ENDBRANCH   3  23
TORSDOF 2
ENDMDL
MODEL 8
REMARK VINA RESULT:      -6.9      6.838     11.646
REMARK  Name = 
REMARK  3 active torsions:
REMARK  status: ('A' for Active; 'I' for Inactive)
REMARK    1  A    between atoms: C_1  and  C_2
REMARK    2  A    between atoms: C_11  and  C_13
REMARK    3  A    between atoms: C_15  and  C_16
REMARK                            x       y       z     vdW  Elec       q    Type
REMARK                         _______ _______ _______ _____ _____    ______ ____
ROOT
ATOM      1  C   UNL     1      -0.961  13.177  20.576  0.00  0.00    +0.000 A 
ATOM      2  C   UNL     1      -0.753  14.449  20.043  0.00  0.00    +0.000 A 
ATOM      3  C   UNL     1       0.219  14.641  19.066  0.00  0.00    +0.000 A 
ATOM      4  N   UNL     1       0.983  13.616  18.617  0.00  0.00    +0.000 NA
ATOM      5  C   UNL     1       0.772  12.382  19.095  0.00  0.00    +0.000 A 
ATOM      6  C   UNL     1       1.503  11.350  18.525  0.00  0.00    +0.000 A 
ATOM      7  C   UNL     1       1.306  10.019  18.893  0.00  0.00    +0.000 A 
ATOM      8  C   UNL     1       0.419   9.718  19.914  0.00  0.00    +0.000 A 
ATOM      9  C   UNL     1      -0.296  10.744  20.529  0.00  0.00    +0.000 A 
ATOM     10  C   UNL     1      -0.175  12.090  20.103  0.00  0.00    +0.000 A 
ENDROOT
BRANCH   1  21
ATOM     11  C   UNL     1      -3.825  11.963  19.226  0.00  0.00    +0.000 C 
ATOM     12  C   UNL     1      -4.071  13.070  20.245  0.00  0.00    +0.000 C 
ATOM     13  C   UNL     1      -5.568  13.151  20.629  0.00  0.00    +0.000 C 
ATOM     14  C   UNL     1      -5.543  12.898  22.095  0.00  0.00    +0.000 A 
ATOM     15  C   UNL     1      -6.643  12.865  22.942  0.00  0.00    +0.000 A 
ATOM     16  C   UNL     1      -6.429  12.619  24.295  0.00  0.00    +0.000 A 
ATOM     17  C   UNL     1      -5.128  12.393  24.774  0.00  0.00    +0.000 A 
ATOM     18  C   UNL     1      -4.030  12.447  23.906  0.00  0.00    +0.000 A 
ATOM     19  C   UNL     1      -4.241  12.719  22.562  0.00  0.00    +0.000 A 
ATOM     20  N   UNL     1      -3.301  12.891  21.507  0.00  0.00    +0.000 N 
ATOM     21  C   UNL     1      -1.928  12.989  21.713  0.00  0.00    +0.000 C 
ATOM     22  O   UNL     1      -1.393  12.945  22.822  0.00  0.00    +0.000 OA
ENDBRANCH   1  21
BRANCH   3  23
ATOM     23  C   UNL     1       0.469  15.973  18.467  0.00  0.00    +0.000 A 
ATOM     24  C   UNL     1      -0.560  16.868  18.173  0.00  0.00    +0.000 A 
ATOM     25  C   UNL     1      -0.255  18.088  17.578  0.00  0.00    +0.000 A 
ATOM     26  C   UNL     1       1.072  18.398  17.299  0.00  0.00    +0.000 A 
ATOM     27  C   UNL     1       2.040  17.470  17.633  0.00  0.00    +0.000 A 
ATOM     28  N   UNL     1       1.773  16.274  18.205  0.00  0.00    +0.000 NA
ENDBRANCH   3  23
TORSDOF 2
ENDMDL
MODEL 9
REMARK VINA RESULT:      -6.9      6.814     10.335
REMARK  Name = 
REMARK  3 active torsions:
REMARK  status: ('A' for Active; 'I' for Inactive)
REMARK    1  A    between atoms: C_1  and  C_2
REMARK    2  A    between atoms: C_11  and  C_13
REMARK    3  A    between atoms: C_15  and  C_16
REMARK                            x       y       z     vdW  Elec       q    Type
REMARK                         _______ _______ _______ _____ _____    ______ ____
ROOT
ATOM      1  C   UNL     1      -1.065  12.249  19.998  0.00  0.00    +0.000 A 
ATOM      2  C   UNL     1      -0.309  13.266  19.417  0.00  0.00    +0.000 A 
ATOM      3  C   UNL     1       1.081  13.189  19.426  0.00  0.00    +0.000 A 
ATOM      4  N   UNL     1       1.727  12.143  19.995  0.00  0.00    +0.000 NA
ATOM      5  C   UNL     1       1.013  11.142  20.526  0.00  0.00    +0.000 A 
ATOM      6  C   UNL     1       1.719  10.044  20.997  0.00  0.00    +0.000 A 
ATOM      7  C   UNL     1       1.073   8.914  21.498  0.00  0.00    +0.000 A 
ATOM      8  C   UNL     1      -0.308   8.912  21.611  0.00  0.00    +0.000 A 
ATOM      9  C   UNL     1      -1.035  10.022  21.182  0.00  0.00    +0.000 A 
ATOM     10  C   UNL     1      -0.399  11.139  20.586  0.00  0.00    +0.000 A 
ENDROOT
BRANCH   1  21
ATOM     11  C   UNL     1      -2.385  10.133  17.699  0.00  0.00    +0.000 C 
ATOM     12  C   UNL     1      -3.054  11.504  17.699  0.00  0.00    +0.000 C 
ATOM     13  C   UNL     1      -4.359  11.486  16.867  0.00  0.00    +0.000 C 
ATOM     14  C   UNL     1      -5.391  11.864  17.870  0.00  0.00    +0.000 A 
ATOM     15  C   UNL     1      -6.753  12.000  17.636  0.00  0.00    +0.000 A 
ATOM     16  C   UNL     1      -7.573  12.369  18.698  0.00  0.00    +0.000 A 
ATOM     17  C   UNL     1      -7.023  12.577  19.975  0.00  0.00    +0.000 A 
ATOM     18  C   UNL     1      -5.644  12.452  20.186  0.00  0.00    +0.000 A 
ATOM     19  C   UNL     1      -4.824  12.110  19.121  0.00  0.00    +0.000 A 
ATOM     20  N   UNL     1      -3.406  11.987  19.062  0.00  0.00    +0.000 N 
ATOM     21  C   UNL     1      -2.560  12.386  20.093  0.00  0.00    +0.000 C 
ATOM     22  O   UNL     1      -2.950  12.890  21.148  0.00  0.00    +0.000 OA
ENDBRANCH   1  21
BRANCH   3  23
ATOM     23  C   UNL     1       1.923  14.244  18.815  0.00  0.00    +0.000 A 
ATOM     24  C   UNL     1       3.185  13.982  18.283  0.00  0.00    +0.000 A 
ATOM     25  C   UNL     1       3.937  15.028  17.756  0.00  0.00    +0.000 A 
ATOM     26  C   UNL     1       3.410  16.314  17.760  0.00  0.00    +0.000 A 
ATOM     27  C   UNL     1       2.145  16.498  18.289  0.00  0.00    +0.000 A 
ATOM     28  N   UNL     1       1.396  15.502  18.813  0.00  0.00    +0.000 NA
ENDBRANCH   3  23
TORSDOF 2
ENDMDL
