MODEL 1
REMARK VINA RESULT:      -8.4      0.000      0.000
REMARK  Name = 
REMARK  7 active torsions:
REMARK  status: ('A' for Active; 'I' for Inactive)
REMARK    1  A    between atoms: C_1  and  N_2
REMARK    2  A    between atoms: N_2  and  C_3
REMARK    3  A    between atoms: N_2  and  C_10
REMARK    4  A    between atoms: C_3  and  C_4
REMARK    5  A    between atoms: N_8  and  C_9
REMARK    6  A    between atoms: C_14  and  N_15
REMARK    7  A    between atoms: C_23  and  C_24
REMARK                            x       y       z     vdW  Elec       q    Type
REMARK                         _______ _______ _______ _____ _____    ______ ____
ROOT
ATOM      1  C   UNL     1       1.954   8.136  19.491  0.00  0.00    +0.000 A 
ATOM      2  C   UNL     1       2.432   8.624  18.263  0.00  0.00    +0.000 A 
ATOM      3  C   UNL     1       2.924   7.781  17.266  0.00  0.00    +0.000 A 
ATOM      4  C   UNL     1       3.096   6.433  17.527  0.00  0.00    +0.000 A 
ATOM      5  C   UNL     1       2.936   5.982  18.839  0.00  0.00    +0.000 A 
ATOM      6  C   UNL     1       2.236   6.785  19.758  0.00  0.00    +0.000 A 
ENDROOT
BRANCH   5   7
ATOM      7  N   UNL     1       3.859   4.984  19.363  0.00  0.00    +0.000 N 
ATOM      8  C   UNL     1       5.232   5.550  19.434  0.00  0.00    +0.000 C 
ATOM      9  C   UNL     1       5.806   5.153  18.107  0.00  0.00    +0.000 A 
ATOM     10  C   UNL     1       5.128   4.002  17.686  0.00  0.00    +0.000 A 
ATOM     11  C   UNL     1       5.292   3.448  16.431  0.00  0.00    +0.000 A 
ATOM     12  C   UNL     1       6.166   4.102  15.575  0.00  0.00    +0.000 A 
ATOM     13  F   UNL     1       6.303   3.661  14.318  0.00  0.00    +0.000 F 
ATOM     14  C   UNL     1       6.849   5.263  15.965  0.00  0.00    +0.000 A 
ATOM     15  C   UNL     1       6.684   5.816  17.252  0.00  0.00    +0.000 A 
ATOM     16  C   UNL     1       3.975   3.799  18.589  0.00  0.00    +0.000 C 
ATOM     17  O   UNL     1       3.191   2.871  18.500  0.00  0.00    +0.000 OA
BRANCH  15  18
ATOM     18  C   UNL     1       7.363   7.118  17.587  0.00  0.00    +0.000 C 
ATOM     19  F   UNL     1       8.137   7.069  18.705  0.00  0.00    +0.000 F 
ATOM     20  F   UNL     1       8.190   7.528  16.588  0.00  0.00    +0.000 F 
ATOM     21  F   UNL     1       6.477   8.129  17.782  0.00  0.00    +0.000 F 
ENDBRANCH  15  18
ENDBRANCH   5   7
BRANCH   1  23
ATOM     22  C   UNL     1       1.154   8.504  21.792  0.00  0.00    +0.000 C 
ATOM     23  N   UNL     1       1.316   8.961  20.417  0.00  0.00    +0.000 N 
BRANCH  23  24
ATOM     24  C   UNL     1       0.422  10.040  19.959  0.00  0.00    +0.000 C 
BRANCH  24  25
ATOM     25  C   UNL     1       0.778  11.417  20.432  0.00  0.00    +0.000 A 
ATOM     26  N   UNL     1       0.485  11.962  21.600  0.00  0.00    +0.000 NA
ATOM     27  N   UNL     1       1.055  13.216  21.645  0.00  0.00    +0.000 NA
ATOM     28  C   UNL     1       1.671  13.419  20.508  0.00  0.00    +0.000 A 
ATOM     29  N   UNL     1       1.533  12.317  19.721  0.00  0.00    +0.000 N 
ATOM     30  C   UNL     1       2.111  12.146  18.414  0.00  0.00    +0.000 C 
ENDBRANCH  24  25
ENDBRANCH  23  24
ENDBRANCH   1  23
TORSDOF 5
ENDMDL
MODEL 2
REMARK VINA RESULT:      -8.4      0.995      1.517
REMARK  Name = 
REMARK  7 active torsions:
REMARK  status: ('A' for Active; 'I' for Inactive)
REMARK    1  A    between atoms: C_1  and  N_2
REMARK    2  A    between atoms: N_2  and  C_3
REMARK    3  A    between atoms: N_2  and  C_10
REMARK    4  A    between atoms: C_3  and  C_4
REMARK    5  A    between atoms: N_8  and  C_9
REMARK    6  A    between atoms: C_14  and  N_15
REMARK    7  A    between atoms: C_23  and  C_24
REMARK                            x       y       z     vdW  Elec       q    Type
REMARK                         _______ _______ _______ _____ _____    ______ ____
ROOT
ATOM      1  C   UNL     1       1.769   7.564  20.045  0.00  0.00    +0.000 A 
ATOM      2  C   UNL     1       2.272   8.381  19.018  0.00  0.00    +0.000 A 
ATOM      3  C   UNL     1       2.897   7.856  17.887  0.00  0.00    +0.000 A 
ATOM      4  C   UNL     1       3.178   6.503  17.820  0.00  0.00    +0.000 A 
ATOM      5  C   UNL     1       2.984   5.725  18.963  0.00  0.00    +0.000 A 
ATOM      6  C   UNL     1       2.159   6.215  19.993  0.00  0.00    +0.000 A 
ENDROOT
BRANCH   5   7
ATOM      7  N   UNL     1       3.963   4.698  19.298  0.00  0.00    +0.000 N 
ATOM      8  C   UNL     1       5.324   5.294  19.349  0.00  0.00    +0.000 C 
ATOM      9  C   UNL     1       5.814   5.082  17.948  0.00  0.00    +0.000 A 
ATOM     10  C   UNL     1       5.136   3.970  17.432  0.00  0.00    +0.000 A 
ATOM     11  C   UNL     1       5.226   3.580  16.110  0.00  0.00    +0.000 A 
ATOM     12  C   UNL     1       6.024   4.361  15.287  0.00  0.00    +0.000 A 
ATOM     13  F   UNL     1       6.084   4.082  13.978  0.00  0.00    +0.000 F 
ATOM     14  C   UNL     1       6.706   5.487  15.773  0.00  0.00    +0.000 A 
ATOM     15  C   UNL     1       6.616   5.871  17.127  0.00  0.00    +0.000 A 
ATOM     16  C   UNL     1       4.053   3.622  18.376  0.00  0.00    +0.000 C 
ATOM     17  O   UNL     1       3.285   2.688  18.223  0.00  0.00    +0.000 OA
BRANCH  15  18
ATOM     18  C   UNL     1       7.288   7.142  17.578  0.00  0.00    +0.000 C 
ATOM     19  F   UNL     1       6.427   8.160  17.849  0.00  0.00    +0.000 F 
ATOM     20  F   UNL     1       8.006   6.957  18.718  0.00  0.00    +0.000 F 
ATOM     21  F   UNL     1       8.164   7.620  16.656  0.00  0.00    +0.000 F 
ENDBRANCH  15  18
ENDBRANCH   5   7
BRANCH   1  23
ATOM     22  C   UNL     1      -0.430   7.819  21.127  0.00  0.00    +0.000 C 
ATOM     23  N   UNL     1       1.005   8.079  21.092  0.00  0.00    +0.000 N 
BRANCH  23  24
ATOM     24  C   UNL     1       1.498   9.222  21.880  0.00  0.00    +0.000 C 
BRANCH  24  25
ATOM     25  C   UNL     1       0.476  10.269  22.207  0.00  0.00    +0.000 A 
ATOM     26  N   UNL     1      -0.241  10.368  23.314  0.00  0.00    +0.000 NA
ATOM     27  N   UNL     1      -1.008  11.509  23.228  0.00  0.00    +0.000 NA
ATOM     28  C   UNL     1      -0.758  12.077  22.076  0.00  0.00    +0.000 A 
ATOM     29  N   UNL     1       0.172  11.343  21.407  0.00  0.00    +0.000 N 
ATOM     30  C   UNL     1       0.734  11.673  20.124  0.00  0.00    +0.000 C 
ENDBRANCH  24  25
ENDBRANCH  23  24
ENDBRANCH   1  23
TORSDOF 5
ENDMDL
MODEL 3
REMARK VINA RESULT:      -8.2      0.739      1.181
REMARK  Name = 
REMARK  7 active torsions:
REMARK  status: ('A' for Active; 'I' for Inactive)
REMARK    1  A    between atoms: C_1  and  N_2
REMARK    2  A    between atoms: N_2  and  C_3
REMARK    3  A    between atoms: N_2  and  C_10
REMARK    4  A    between atoms: C_3  and  C_4
REMARK    5  A    between atoms: N_8  and  C_9
REMARK    6  A    between atoms: C_14  and  N_15
REMARK    7  A    between atoms: C_23  and  C_24
REMARK                            x       y       z     vdW  Elec       q    Type
REMARK                         _______ _______ _______ _____ _____    ______ ____
ROOT
ATOM      1  C   UNL     1       1.864   8.150  19.575  0.00  0.00    +0.000 A 
ATOM      2  C   UNL     1       2.395   8.723  18.407  0.00  0.00    +0.000 A 
ATOM      3  C   UNL     1       2.950   7.952  17.385  0.00  0.00    +0.000 A 
ATOM      4  C   UNL     1       3.133   6.592  17.570  0.00  0.00    +0.000 A 
ATOM      5  C   UNL     1       2.915   6.057  18.841  0.00  0.00    +0.000 A 
ATOM      6  C   UNL     1       2.156   6.790  19.771  0.00  0.00    +0.000 A 
ENDROOT
BRANCH   5   7
ATOM      7  N   UNL     1       3.828   5.040  19.348  0.00  0.00    +0.000 N 
ATOM      8  C   UNL     1       5.209   5.588  19.416  0.00  0.00    +0.000 C 
ATOM      9  C   UNL     1       5.769   5.198  18.080  0.00  0.00    +0.000 A 
ATOM     10  C   UNL     1       5.073   4.060  17.651  0.00  0.00    +0.000 A 
ATOM     11  C   UNL     1       5.221   3.518  16.390  0.00  0.00    +0.000 A 
ATOM     12  C   UNL     1       6.098   4.170  15.535  0.00  0.00    +0.000 A 
ATOM     13  F   UNL     1       6.221   3.741  14.272  0.00  0.00    +0.000 F 
ATOM     14  C   UNL     1       6.800   5.318  15.933  0.00  0.00    +0.000 A 
ATOM     15  C   UNL     1       6.650   5.858  17.227  0.00  0.00    +0.000 A 
ATOM     16  C   UNL     1       3.923   3.863  18.560  0.00  0.00    +0.000 C 
ATOM     17  O   UNL     1       3.125   2.946  18.466  0.00  0.00    +0.000 OA
BRANCH  15  18
ATOM     18  C   UNL     1       7.349   7.147  17.573  0.00  0.00    +0.000 C 
ATOM     19  F   UNL     1       6.509   8.193  17.795  0.00  0.00    +0.000 F 
ATOM     20  F   UNL     1       8.094   7.029  18.705  0.00  0.00    +0.000 F 
ATOM     21  F   UNL     1       8.207   7.548  16.599  0.00  0.00    +0.000 F 
ENDBRANCH  15  18
ENDBRANCH   5   7
BRANCH   1  23
ATOM     22  C   UNL     1       1.138   8.468  21.908  0.00  0.00    +0.000 C 
ATOM     23  N   UNL     1       1.167   8.907  20.518  0.00  0.00    +0.000 N 
BRANCH  23  24
ATOM     24  C   UNL     1       0.112   9.841  20.087  0.00  0.00    +0.000 C 
BRANCH  24  25
ATOM     25  C   UNL     1       0.266  11.253  20.566  0.00  0.00    +0.000 A 
ATOM     26  N   UNL     1       1.296  11.770  21.213  0.00  0.00    +0.000 NA
ATOM     27  N   UNL     1       1.053  13.113  21.405  0.00  0.00    +0.000 NA
ATOM     28  C   UNL     1      -0.116  13.389  20.887  0.00  0.00    +0.000 A 
ATOM     29  N   UNL     1      -0.642  12.259  20.342  0.00  0.00    +0.000 N 
ATOM     30  C   UNL     1      -1.896  12.174  19.641  0.00  0.00    +0.000 C 
ENDBRANCH  24  25
ENDBRANCH  23  24
ENDBRANCH   1  23
TORSDOF 5
ENDMDL
MODEL 4
REMARK VINA RESULT:      -8.1      1.200      1.637
REMARK  Name = 
REMARK  7 active torsions:
REMARK  status: ('A' for Active; 'I' for Inactive)
REMARK    1  A    between atoms: C_1  and  N_2
REMARK    2  A    between atoms: N_2  and  C_3
REMARK    3  A    between atoms: N_2  and  C_10
REMARK    4  A    between atoms: C_3  and  C_4
REMARK    5  A    between atoms: N_8  and  C_9
REMARK    6  A    between atoms: C_14  and  N_15
REMARK    7  A    between atoms: C_23  and  C_24
REMARK                            x       y       z     vdW  Elec       q    Type
REMARK                         _______ _______ _______ _____ _____    ______ ____
ROOT
ATOM      1  C   UNL     1       1.828   8.142  19.691  0.00  0.00    +0.000 A 
ATOM      2  C   UNL     1       2.334   8.714  18.512  0.00  0.00    +0.000 A 
ATOM      3  C   UNL     1       2.850   7.941  17.471  0.00  0.00    +0.000 A 
ATOM      4  C   UNL     1       3.018   6.578  17.643  0.00  0.00    +0.000 A 
ATOM      5  C   UNL     1       2.827   6.038  18.917  0.00  0.00    +0.000 A 
ATOM      6  C   UNL     1       2.105   6.777  19.872  0.00  0.00    +0.000 A 
ENDROOT
BRANCH   5   7
ATOM      7  N   UNL     1       3.739   5.006  19.393  0.00  0.00    +0.000 N 
ATOM      8  C   UNL     1       5.126   5.538  19.443  0.00  0.00    +0.000 C 
ATOM      9  C   UNL     1       5.657   5.162  18.092  0.00  0.00    +0.000 A 
ATOM     10  C   UNL     1       4.942   4.037  17.660  0.00  0.00    +0.000 A 
ATOM     11  C   UNL     1       5.062   3.512  16.389  0.00  0.00    +0.000 A 
ATOM     12  C   UNL     1       5.930   4.167  15.527  0.00  0.00    +0.000 A 
ATOM     13  F   UNL     1       6.026   3.754  14.257  0.00  0.00    +0.000 F 
ATOM     14  C   UNL     1       6.651   5.302  15.928  0.00  0.00    +0.000 A 
ATOM     15  C   UNL     1       6.530   5.825  17.232  0.00  0.00    +0.000 A 
ATOM     16  C   UNL     1       3.807   3.839  18.587  0.00  0.00    +0.000 C 
ATOM     17  O   UNL     1       2.999   2.932  18.495  0.00  0.00    +0.000 OA
BRANCH  15  18
ATOM     18  C   UNL     1       7.248   7.102  17.583  0.00  0.00    +0.000 C 
ATOM     19  F   UNL     1       8.008   7.021  18.709  0.00  0.00    +0.000 F 
ATOM     20  F   UNL     1       8.099   7.490  16.595  0.00  0.00    +0.000 F 
ATOM     21  F   UNL     1       6.394   8.141  17.774  0.00  0.00    +0.000 F 
ENDBRANCH  15  18
ENDBRANCH   5   7
BRANCH   1  23
ATOM     22  C   UNL     1       0.144   8.277  21.485  0.00  0.00    +0.000 C 
ATOM     23  N   UNL     1       1.168   8.903  20.657  0.00  0.00    +0.000 N 
BRANCH  23  24
ATOM     24  C   UNL     1       1.141  10.373  20.554  0.00  0.00    +0.000 C 
BRANCH  24  25
ATOM     25  C   UNL     1      -0.146  10.962  20.059  0.00  0.00    +0.000 A 
ATOM     26  N   UNL     1      -0.713  10.768  18.881  0.00  0.00    +0.000 NA
ATOM     27  N   UNL     1      -1.913  11.444  18.864  0.00  0.00    +0.000 NA
ATOM     28  C   UNL     1      -2.053  12.044  20.019  0.00  0.00    +0.000 A 
ATOM     29  N   UNL     1      -0.977  11.763  20.803  0.00  0.00    +0.000 N 
ATOM     30  C   UNL     1      -0.791  12.208  22.159  0.00  0.00    +0.000 C 
ENDBRANCH  24  25
ENDBRANCH  23  24
ENDBRANCH   1  23
TORSDOF 5
ENDMDL
MODEL 5
REMARK VINA RESULT:      -8.1      3.983      8.173
REMARK  Name = 
REMARK  7 active torsions:
REMARK  status: ('A' for Active; 'I' for Inactive)
REMARK    1  A    between atoms: C_1  and  N_2
REMARK    2  A    between atoms: N_2  and  C_3
REMARK    3  A    between atoms: N_2  and  C_10
REMARK    4  A    between atoms: C_3  and  C_4
REMARK    5  A    between atoms: N_8  and  C_9
REMARK    6  A    between atoms: C_14  and  N_15
REMARK    7  A    between atoms: C_23  and  C_24
REMARK                            x       y       z     vdW  Elec       q    Type
REMARK                         _______ _______ _______ _____ _____    ______ ____
ROOT
ATOM      1  C   UNL     1       2.561   5.813  19.095  0.00  0.00    +0.000 A 
ATOM      2  C   UNL     1       2.432   6.520  17.888  0.00  0.00    +0.000 A 
ATOM      3  C   UNL     1       2.237   7.901  17.851  0.00  0.00    +0.000 A 
ATOM      4  C   UNL     1       2.009   8.596  19.025  0.00  0.00    +0.000 A 
ATOM      5  C   UNL     1       1.808   7.871  20.201  0.00  0.00    +0.000 A 
ATOM      6  C   UNL     1       2.225   6.529  20.257  0.00  0.00    +0.000 A 
ENDROOT
BRANCH   5   7
ATOM      7  N   UNL     1       0.783   8.311  21.139  0.00  0.00    +0.000 N 
ATOM      8  C   UNL     1      -0.474   8.621  20.409  0.00  0.00    +0.000 C 
ATOM      9  C   UNL     1      -0.324  10.087  20.131  0.00  0.00    +0.000 A 
ATOM     10  C   UNL     1       0.514  10.616  21.121  0.00  0.00    +0.000 A 
ATOM     11  C   UNL     1       0.994  11.911  21.087  0.00  0.00    +0.000 A 
ATOM     12  C   UNL     1       0.617  12.684  19.998  0.00  0.00    +0.000 A 
ATOM     13  F   UNL     1       1.118  13.919  19.868  0.00  0.00    +0.000 F 
ATOM     14  C   UNL     1      -0.211  12.176  18.986  0.00  0.00    +0.000 A 
ATOM     15  C   UNL     1      -0.705  10.856  19.034  0.00  0.00    +0.000 A 
ATOM     16  C   UNL     1       1.097   9.486  21.874  0.00  0.00    +0.000 C 
ATOM     17  O   UNL     1       1.861   9.610  22.815  0.00  0.00    +0.000 OA
BRANCH  15  18
ATOM     18  C   UNL     1      -1.510  10.328  17.875  0.00  0.00    +0.000 C 
ATOM     19  F   UNL     1      -0.855   9.407  17.117  0.00  0.00    +0.000 F 
ATOM     20  F   UNL     1      -2.651   9.716  18.290  0.00  0.00    +0.000 F 
ATOM     21  F   UNL     1      -1.899  11.313  17.024  0.00  0.00    +0.000 F 
ENDBRANCH  15  18
ENDBRANCH   5   7
BRANCH   1  23
ATOM     22  C   UNL     1       2.812   3.725  20.380  0.00  0.00    +0.000 C 
ATOM     23  N   UNL     1       2.916   4.464  19.127  0.00  0.00    +0.000 N 
BRANCH  23  24
ATOM     24  C   UNL     1       3.800   3.903  18.090  0.00  0.00    +0.000 C 
BRANCH  24  25
ATOM     25  C   UNL     1       5.242   4.301  18.188  0.00  0.00    +0.000 A 
ATOM     26  N   UNL     1       5.918   4.595  19.286  0.00  0.00    +0.000 NA
ATOM     27  N   UNL     1       7.226   4.843  18.932  0.00  0.00    +0.000 NA
ATOM     28  C   UNL     1       7.324   4.710  17.633  0.00  0.00    +0.000 A 
ATOM     29  N   UNL     1       6.111   4.362  17.126  0.00  0.00    +0.000 N 
ATOM     30  C   UNL     1       5.832   4.083  15.742  0.00  0.00    +0.000 C 
ENDBRANCH  24  25
ENDBRANCH  23  24
ENDBRANCH   1  23
TORSDOF 5
ENDMDL
MODEL 6
REMARK VINA RESULT:      -8.0      4.168      8.251
REMARK  Name = 
REMARK  7 active torsions:
REMARK  status: ('A' for Active; 'I' for Inactive)
REMARK    1  A    between atoms: C_1  and  N_2
REMARK    2  A    between atoms: N_2  and  C_3
REMARK    3  A    between atoms: N_2  and  C_10
REMARK    4  A    between atoms: C_3  and  C_4
REMARK    5  A    between atoms: N_8  and  C_9
REMARK    6  A    between atoms: C_14  and  N_15
REMARK    7  A    between atoms: C_23  and  C_24
REMARK                            x       y       z     vdW  Elec       q    Type
REMARK                         _______ _______ _______ _____ _____    ______ ____
ROOT
ATOM      1  C   UNL     1       2.413   6.797  19.110  0.00  0.00    +0.000 A 
ATOM      2  C   UNL     1       2.382   7.411  17.846  0.00  0.00    +0.000 A 
ATOM      3  C   UNL     1       2.099   8.767  17.684  0.00  0.00    +0.000 A 
ATOM      4  C   UNL     1       1.685   9.520  18.769  0.00  0.00    +0.000 A 
ATOM      5  C   UNL     1       1.396   8.861  19.965  0.00  0.00    +0.000 A 
ATOM      6  C   UNL     1       1.894   7.561  20.169  0.00  0.00    +0.000 A 
ENDROOT
BRANCH   5   7
ATOM      7  N   UNL     1       0.239   9.283  20.745  0.00  0.00    +0.000 N 
ATOM      8  C   UNL     1      -0.989   9.207  19.911  0.00  0.00    +0.000 C 
ATOM      9  C   UNL     1      -1.068  10.592  19.340  0.00  0.00    +0.000 A 
ATOM     10  C   UNL     1      -0.415  11.450  20.234  0.00  0.00    +0.000 A 
ATOM     11  C   UNL     1      -0.160  12.778  19.953  0.00  0.00    +0.000 A 
ATOM     12  C   UNL     1      -0.574  13.239  18.711  0.00  0.00    +0.000 A 
ATOM     13  F   UNL     1      -0.281  14.494  18.348  0.00  0.00    +0.000 F 
ATOM     14  C   UNL     1      -1.220  12.399  17.791  0.00  0.00    +0.000 A 
ATOM     15  C   UNL     1      -1.485  11.047  18.091  0.00  0.00    +0.000 A 
ATOM     16  C   UNL     1       0.289  10.616  21.231  0.00  0.00    +0.000 C 
ATOM     17  O   UNL     1       0.942  11.062  22.159  0.00  0.00    +0.000 OA
BRANCH  15  18
ATOM     18  C   UNL     1      -2.092  10.163  17.034  0.00  0.00    +0.000 C 
ATOM     19  F   UNL     1      -3.223   9.519  17.429  0.00  0.00    +0.000 F 
ATOM     20  F   UNL     1      -2.442  10.869  15.925  0.00  0.00    +0.000 F 
ATOM     21  F   UNL     1      -1.234   9.199  16.610  0.00  0.00    +0.000 F 
ENDBRANCH  15  18
ENDBRANCH   5   7
BRANCH   1  23
ATOM     22  C   UNL     1       2.642   4.822  20.565  0.00  0.00    +0.000 C 
ATOM     23  N   UNL     1       2.853   5.484  19.283  0.00  0.00    +0.000 N 
BRANCH  23  24
ATOM     24  C   UNL     1       3.898   4.929  18.405  0.00  0.00    +0.000 C 
BRANCH  24  25
ATOM     25  C   UNL     1       5.307   5.278  18.778  0.00  0.00    +0.000 A 
ATOM     26  N   UNL     1       5.989   4.842  19.823  0.00  0.00    +0.000 NA
ATOM     27  N   UNL     1       7.264   5.360  19.751  0.00  0.00    +0.000 NA
ATOM     28  C   UNL     1       7.335   6.108  18.679  0.00  0.00    +0.000 A 
ATOM     29  N   UNL     1       6.138   6.079  18.033  0.00  0.00    +0.000 N 
ATOM     30  C   UNL     1       5.842   6.743  16.791  0.00  0.00    +0.000 C 
ENDBRANCH  24  25
ENDBRANCH  23  24
ENDBRANCH   1  23
TORSDOF 5
ENDMDL
MODEL 7
REMARK VINA RESULT:      -7.9      1.870      2.628
REMARK  Name = 
REMARK  7 active torsions:
REMARK  status: ('A' for Active; 'I' for Inactive)
REMARK    1  A    between atoms: C_1  and  N_2
REMARK    2  A    between atoms: N_2  and  C_3
REMARK    3  A    between atoms: N_2  and  C_10
REMARK    4  A    between atoms: C_3  and  C_4
REMARK    5  A    between atoms: N_8  and  C_9
REMARK    6  A    between atoms: C_14  and  N_15
REMARK    7  A    between atoms: C_23  and  C_24
REMARK                            x       y       z     vdW  Elec       q    Type
REMARK                         _______ _______ _______ _____ _____    ______ ____
ROOT
ATOM      1  C   UNL     1       1.172   9.297  19.776  0.00  0.00    +0.000 A 
ATOM      2  C   UNL     1       1.624   9.607  18.482  0.00  0.00    +0.000 A 
ATOM      3  C   UNL     1       2.156   8.642  17.627  0.00  0.00    +0.000 A 
ATOM      4  C   UNL     1       2.395   7.362  18.097  0.00  0.00    +0.000 A 
ATOM      5  C   UNL     1       2.260   7.118  19.465  0.00  0.00    +0.000 A 
ATOM      6  C   UNL     1       1.522   8.022  20.251  0.00  0.00    +0.000 A 
ENDROOT
BRANCH   5   7
ATOM      7  N   UNL     1       3.232   6.262  20.132  0.00  0.00    +0.000 N 
ATOM      8  C   UNL     1       4.413   6.055  19.253  0.00  0.00    +0.000 C 
ATOM      9  C   UNL     1       4.045   4.798  18.522  0.00  0.00    +0.000 A 
ATOM     10  C   UNL     1       3.163   4.081  19.342  0.00  0.00    +0.000 A 
ATOM     11  C   UNL     1       2.500   2.945  18.921  0.00  0.00    +0.000 A 
ATOM     12  C   UNL     1       2.735   2.539  17.616  0.00  0.00    +0.000 A 
ATOM     13  F   UNL     1       2.057   1.493  17.124  0.00  0.00    +0.000 F 
ATOM     14  C   UNL     1       3.603   3.243  16.768  0.00  0.00    +0.000 A 
ATOM     15  C   UNL     1       4.284   4.397  17.210  0.00  0.00    +0.000 A 
ATOM     16  C   UNL     1       2.769   4.961  20.462  0.00  0.00    +0.000 C 
ATOM     17  O   UNL     1       2.018   4.629  21.363  0.00  0.00    +0.000 OA
BRANCH  15  18
ATOM     18  C   UNL     1       5.128   5.173  16.234  0.00  0.00    +0.000 C 
ATOM     19  F   UNL     1       4.708   6.451  16.028  0.00  0.00    +0.000 F 
ATOM     20  F   UNL     1       6.419   5.275  16.652  0.00  0.00    +0.000 F 
ATOM     21  F   UNL     1       5.175   4.586  15.009  0.00  0.00    +0.000 F 
ENDBRANCH  15  18
ENDBRANCH   5   7
BRANCH   1  23
ATOM     22  C   UNL     1      -0.253   9.769  21.730  0.00  0.00    +0.000 C 
ATOM     23  N   UNL     1       0.496  10.227  20.566  0.00  0.00    +0.000 N 
BRANCH  23  24
ATOM     24  C   UNL     1       0.140  11.548  20.017  0.00  0.00    +0.000 C 
BRANCH  24  25
ATOM     25  C   UNL     1       0.889  12.710  20.597  0.00  0.00    +0.000 A 
ATOM     26  N   UNL     1       0.730  13.246  21.795  0.00  0.00    +0.000 NA
ATOM     27  N   UNL     1       1.663  14.250  21.943  0.00  0.00    +0.000 NA
ATOM     28  C   UNL     1       2.360  14.318  20.838  0.00  0.00    +0.000 A 
ATOM     29  N   UNL     1       1.919  13.368  19.970  0.00  0.00    +0.000 N 
ATOM     30  C   UNL     1       2.470  13.104  18.667  0.00  0.00    +0.000 C 
ENDBRANCH  24  25
ENDBRANCH  23  24
ENDBRANCH   1  23
TORSDOF 5
ENDMDL
MODEL 8
REMARK VINA RESULT:      -7.9      1.153      1.573
REMARK  Name = 
REMARK  7 active torsions:
REMARK  status: ('A' for Active; 'I' for Inactive)
REMARK    1  A    between atoms: C_1  and  N_2
REMARK    2  A    between atoms: N_2  and  C_3
REMARK    3  A    between atoms: N_2  and  C_10
REMARK    4  A    between atoms: C_3  and  C_4
REMARK    5  A    between atoms: N_8  and  C_9
REMARK    6  A    between atoms: C_14  and  N_15
REMARK    7  A    between atoms: C_23  and  C_24
REMARK                            x       y       z     vdW  Elec       q    Type
REMARK                         _______ _______ _______ _____ _____    ______ ____
ROOT
ATOM      1  C   UNL     1       1.803   8.299  19.581  0.00  0.00    +0.000 A 
ATOM      2  C   UNL     1       2.338   8.815  18.388  0.00  0.00    +0.000 A 
ATOM      3  C   UNL     1       2.855   7.993  17.386  0.00  0.00    +0.000 A 
ATOM      4  C   UNL     1       2.994   6.635  17.613  0.00  0.00    +0.000 A 
ATOM      5  C   UNL     1       2.775   6.149  18.903  0.00  0.00    +0.000 A 
ATOM      6  C   UNL     1       2.052   6.937  19.818  0.00  0.00    +0.000 A 
ENDROOT
BRANCH   5   7
ATOM      7  N   UNL     1       3.660   5.119  19.433  0.00  0.00    +0.000 N 
ATOM      8  C   UNL     1       5.057   5.625  19.477  0.00  0.00    +0.000 C 
ATOM      9  C   UNL     1       5.595   5.182  18.150  0.00  0.00    +0.000 A 
ATOM     10  C   UNL     1       4.862   4.055  17.756  0.00  0.00    +0.000 A 
ATOM     11  C   UNL     1       4.985   3.475  16.509  0.00  0.00    +0.000 A 
ATOM     12  C   UNL     1       5.876   4.075  15.631  0.00  0.00    +0.000 A 
ATOM     13  F   UNL     1       5.977   3.609  14.381  0.00  0.00    +0.000 F 
ATOM     14  C   UNL     1       6.615   5.212  15.994  0.00  0.00    +0.000 A 
ATOM     15  C   UNL     1       6.490   5.791  17.274  0.00  0.00    +0.000 A 
ATOM     16  C   UNL     1       3.713   3.918  18.677  0.00  0.00    +0.000 C 
ATOM     17  O   UNL     1       2.887   3.024  18.613  0.00  0.00    +0.000 OA
BRANCH  15  18
ATOM     18  C   UNL     1       7.231   7.067  17.580  0.00  0.00    +0.000 C 
ATOM     19  F   UNL     1       8.090   7.460  16.600  0.00  0.00    +0.000 F 
ATOM     20  F   UNL     1       6.381   8.113  17.762  0.00  0.00    +0.000 F 
ATOM     21  F   UNL     1       7.967   6.978  18.718  0.00  0.00    +0.000 F 
ENDBRANCH  15  18
ENDBRANCH   5   7
BRANCH   1  23
ATOM     22  C   UNL     1       0.151   8.517  21.396  0.00  0.00    +0.000 C 
ATOM     23  N   UNL     1       1.144   9.108  20.506  0.00  0.00    +0.000 N 
BRANCH  23  24
ATOM     24  C   UNL     1       1.078  10.567  20.305  0.00  0.00    +0.000 C 
BRANCH  24  25
ATOM     25  C   UNL     1      -0.301  11.150  20.254  0.00  0.00    +0.000 A 
ATOM     26  N   UNL     1      -0.879  11.917  21.162  0.00  0.00    +0.000 NA
ATOM     27  N   UNL     1      -2.121  12.283  20.690  0.00  0.00    +0.000 NA
ATOM     28  C   UNL     1      -2.285  11.727  19.516  0.00  0.00    +0.000 A 
ATOM     29  N   UNL     1      -1.169  11.017  19.197  0.00  0.00    +0.000 N 
ATOM     30  C   UNL     1      -0.955  10.303  17.966  0.00  0.00    +0.000 C 
ENDBRANCH  24  25
ENDBRANCH  23  24
ENDBRANCH   1  23
TORSDOF 5
ENDMDL
MODEL 9
REMARK VINA RESULT:      -7.9      4.341      8.002
REMARK  Name = 
REMARK  7 active torsions:
REMARK  status: ('A' for Active; 'I' for Inactive)
REMARK    1  A    between atoms: C_1  and  N_2
REMARK    2  A    between atoms: N_2  and  C_3
REMARK    3  A    between atoms: N_2  and  C_10
REMARK    4  A    between atoms: C_3  and  C_4
REMARK    5  A    between atoms: N_8  and  C_9
REMARK    6  A    between atoms: C_14  and  N_15
REMARK    7  A    between atoms: C_23  and  C_24
REMARK                            x       y       z     vdW  Elec       q    Type
REMARK                         _______ _______ _______ _____ _____    ______ ____
ROOT
ATOM      1  C   UNL     1       2.626   4.271  18.776  0.00  0.00    +0.000 A 
ATOM      2  C   UNL     1       2.329   3.935  20.107  0.00  0.00    +0.000 A 
ATOM      3  C   UNL     1       1.680   4.817  20.971  0.00  0.00    +0.000 A 
ATOM      4  C   UNL     1       1.446   6.122  20.575  0.00  0.00    +0.000 A 
ATOM      5  C   UNL     1       2.021   6.571  19.384  0.00  0.00    +0.000 A 
ATOM      6  C   UNL     1       2.467   5.627  18.442  0.00  0.00    +0.000 A 
ENDROOT
BRANCH   5   7
ATOM      7  N   UNL     1       2.585   7.914  19.331  0.00  0.00    +0.000 N 
ATOM      8  C   UNL     1       2.190   8.678  20.543  0.00  0.00    +0.000 C 
ATOM      9  C   UNL     1       0.932   9.359  20.090  0.00  0.00    +0.000 A 
ATOM     10  C   UNL     1       1.010   9.497  18.698  0.00  0.00    +0.000 A 
ATOM     11  C   UNL     1      -0.045   9.944  17.927  0.00  0.00    +0.000 A 
ATOM     12  C   UNL     1      -1.221  10.244  18.599  0.00  0.00    +0.000 A 
ATOM     13  F   UNL     1      -2.303  10.602  17.896  0.00  0.00    +0.000 F 
ATOM     14  C   UNL     1      -1.331  10.105  19.990  0.00  0.00    +0.000 A 
ATOM     15  C   UNL     1      -0.245   9.658  20.772  0.00  0.00    +0.000 A 
ATOM     16  C   UNL     1       2.165   8.704  18.228  0.00  0.00    +0.000 C 
ATOM     17  O   UNL     1       2.514   8.627  17.063  0.00  0.00    +0.000 OA
BRANCH  15  18
ATOM     18  C   UNL     1      -0.444   9.431  22.248  0.00  0.00    +0.000 C 
ATOM     19  F   UNL     1      -0.946   8.206  22.559  0.00  0.00    +0.000 F 
ATOM     20  F   UNL     1       0.725   9.533  22.936  0.00  0.00    +0.000 F 
ATOM     21  F   UNL     1      -1.287  10.340  22.802  0.00  0.00    +0.000 F 
ENDBRANCH  15  18
ENDBRANCH   5   7
BRANCH   1  23
ATOM     22  C   UNL     1       3.095   1.917  18.216  0.00  0.00    +0.000 C 
ATOM     23  N   UNL     1       3.127   3.334  17.871  0.00  0.00    +0.000 N 
BRANCH  23  24
ATOM     24  C   UNL     1       4.077   3.748  16.823  0.00  0.00    +0.000 C 
BRANCH  24  25
ATOM     25  C   UNL     1       5.446   4.124  17.304  0.00  0.00    +0.000 A 
ATOM     26  N   UNL     1       5.849   4.239  18.558  0.00  0.00    +0.000 NA
ATOM     27  N   UNL     1       7.194   4.539  18.552  0.00  0.00    +0.000 NA
ATOM     28  C   UNL     1       7.583   4.614  17.305  0.00  0.00    +0.000 A 
ATOM     29  N   UNL     1       6.527   4.352  16.489  0.00  0.00    +0.000 N 
ATOM     30  C   UNL     1       6.574   4.298  15.051  0.00  0.00    +0.000 C 
ENDBRANCH  24  25
ENDBRANCH  23  24
ENDBRANCH   1  23
TORSDOF 5
ENDMDL
