MODEL 1
REMARK VINA RESULT:      -9.0      0.000      0.000
REMARK  Name = 
REMARK  7 active torsions:
REMARK  status: ('A' for Active; 'I' for Inactive)
REMARK    1  A    between atoms: C_1  and  N_2
REMARK    2  A    between atoms: C_4  and  C_5
REMARK    3  A    between atoms: N_7  and  C_8
REMARK    4  A    between atoms: C_11  and  S_12
REMARK    5  A    between atoms: S_12  and  N_15
REMARK    6  A    between atoms: N_15  and  C_16
REMARK    7  A    between atoms: C_16  and  C_17
REMARK                            x       y       z     vdW  Elec       q    Type
REMARK                         _______ _______ _______ _____ _____    ______ ____
ROOT
ATOM      1  C   UNL     1       1.456   9.890  18.459  0.00  0.00    +0.000 C 
ATOM      2  O   UNL     1       2.158  10.225  17.513  0.00  0.00    +0.000 OA
ATOM      3  N   UNL     1       1.479   8.640  19.081  0.00  0.00    +0.000 N 
ATOM      4  H   UNL     1       0.634   8.372  19.568  0.00  0.00    +0.000 HD
ENDROOT
BRANCH   1   8
ATOM      5  C   UNL     1       0.223  13.397  21.531  0.00  0.00    +0.000 C 
ATOM      6  N   UNL     1      -0.170  12.581  20.398  0.00  0.00    +0.000 N 
ATOM      7  N   UNL     1       0.778  11.727  19.873  0.00  0.00    +0.000 NA
ATOM      8  C   UNL     1       0.409  10.887  18.947  0.00  0.00    +0.000 A 
ATOM      9  C   UNL     1      -0.979  10.811  18.414  0.00  0.00    +0.000 A 
ATOM     10  C   UNL     1      -1.406   9.887  17.446  0.00  0.00    +0.000 A 
ATOM     11  C   UNL     1      -2.751   9.817  17.066  0.00  0.00    +0.000 A 
ATOM     12  C   UNL     1      -3.677  10.701  17.609  0.00  0.00    +0.000 A 
ATOM     13  C   UNL     1      -3.257  11.648  18.539  0.00  0.00    +0.000 A 
ATOM     14  C   UNL     1      -1.914  11.689  18.949  0.00  0.00    +0.000 A 
ATOM     15  C   UNL     1      -1.502  12.639  19.992  0.00  0.00    +0.000 A 
ATOM     16  O   UNL     1      -2.331  13.411  20.470  0.00  0.00    +0.000 OA
ENDBRANCH   1   8
BRANCH   3  17
ATOM     17  C   UNL     1       2.443   7.652  18.741  0.00  0.00    +0.000 A 
ATOM     18  C   UNL     1       3.235   7.791  17.591  0.00  0.00    +0.000 A 
ATOM     19  C   UNL     1       4.047   6.754  17.138  0.00  0.00    +0.000 A 
ATOM     20  C   UNL     1       4.108   5.566  17.855  0.00  0.00    +0.000 A 
ATOM     21  C   UNL     1       3.409   5.440  19.064  0.00  0.00    +0.000 A 
ATOM     22  C   UNL     1       2.589   6.496  19.517  0.00  0.00    +0.000 A 
BRANCH  20  23
ATOM     23  S   UNL     1       4.919   4.170  17.114  0.00  0.00    +0.000 S 
ATOM     24  O   UNL     1       4.048   3.029  17.275  0.00  0.00    +0.000 OA
ATOM     25  O   UNL     1       5.436   4.558  15.818  0.00  0.00    +0.000 OA
BRANCH  23  26
ATOM     26  N   UNL     1       6.235   3.892  18.112  0.00  0.00    +0.000 NA
ATOM     27  H   UNL     1       6.374   2.888  18.261  0.00  0.00    +0.000 HD
BRANCH  26  28
ATOM     28  C   UNL     1       7.459   4.707  17.877  0.00  0.00    +0.000 C 
BRANCH  28  29
ATOM     29  C   UNL     1       7.757   5.709  19.000  0.00  0.00    +0.000 C 
ATOM     30  F   UNL     1       6.675   5.923  19.784  0.00  0.00    +0.000 F 
ATOM     31  F   UNL     1       8.748   5.257  19.802  0.00  0.00    +0.000 F 
ATOM     32  F   UNL     1       8.146   6.903  18.501  0.00  0.00    +0.000 F 
ENDBRANCH  28  29
ENDBRANCH  26  28
ENDBRANCH  23  26
ENDBRANCH  20  23
ENDBRANCH   3  17
TORSDOF 6
ENDMDL
MODEL 2
REMARK VINA RESULT:      -8.9      2.618      3.108
REMARK  Name = 
REMARK  7 active torsions:
REMARK  status: ('A' for Active; 'I' for Inactive)
REMARK    1  A    between atoms: C_1  and  N_2
REMARK    2  A    between atoms: C_4  and  C_5
REMARK    3  A    between atoms: N_7  and  C_8
REMARK    4  A    between atoms: C_11  and  S_12
REMARK    5  A    between atoms: S_12  and  N_15
REMARK    6  A    between atoms: N_15  and  C_16
REMARK    7  A    between atoms: C_16  and  C_17
REMARK                            x       y       z     vdW  Elec       q    Type
REMARK                         _______ _______ _______ _____ _____    ______ ____
ROOT
ATOM      1  C   UNL     1       1.196   9.914  18.826  0.00  0.00    +0.000 C 
ATOM      2  O   UNL     1       2.001  10.237  17.962  0.00  0.00    +0.000 OA
ATOM      3  N   UNL     1       1.145   8.671  19.461  0.00  0.00    +0.000 N 
ATOM      4  H   UNL     1       0.249   8.410  19.852  0.00  0.00    +0.000 HD
ENDROOT
BRANCH   1   8
ATOM      5  C   UNL     1      -0.387  13.424  21.730  0.00  0.00    +0.000 C 
ATOM      6  N   UNL     1      -0.640  12.614  20.554  0.00  0.00    +0.000 N 
ATOM      7  N   UNL     1       0.360  11.753  20.150  0.00  0.00    +0.000 NA
ATOM      8  C   UNL     1       0.103  10.919  19.182  0.00  0.00    +0.000 A 
ATOM      9  C   UNL     1      -1.207  10.855  18.478  0.00  0.00    +0.000 A 
ATOM     10  C   UNL     1      -1.516   9.937  17.461  0.00  0.00    +0.000 A 
ATOM     11  C   UNL     1      -2.803   9.878  16.915  0.00  0.00    +0.000 A 
ATOM     12  C   UNL     1      -3.783  10.768  17.339  0.00  0.00    +0.000 A 
ATOM     13  C   UNL     1      -3.476  11.711  18.318  0.00  0.00    +0.000 A 
ATOM     14  C   UNL     1      -2.195  11.739  18.894  0.00  0.00    +0.000 A 
ATOM     15  C   UNL     1      -1.910  12.684  19.984  0.00  0.00    +0.000 A 
ATOM     16  O   UNL     1      -2.786  13.462  20.356  0.00  0.00    +0.000 OA
ENDBRANCH   1   8
BRANCH   3  17
ATOM     17  C   UNL     1       2.138   7.677  19.242  0.00  0.00    +0.000 A 
ATOM     18  C   UNL     1       2.803   7.589  18.010  0.00  0.00    +0.000 A 
ATOM     19  C   UNL     1       3.638   6.515  17.710  0.00  0.00    +0.000 A 
ATOM     20  C   UNL     1       3.851   5.525  18.660  0.00  0.00    +0.000 A 
ATOM     21  C   UNL     1       3.283   5.644  19.937  0.00  0.00    +0.000 A 
ATOM     22  C   UNL     1       2.439   6.736  20.233  0.00  0.00    +0.000 A 
BRANCH  20  23
ATOM     23  S   UNL     1       4.681   4.036  18.160  0.00  0.00    +0.000 S 
ATOM     24  O   UNL     1       5.661   4.400  17.165  0.00  0.00    +0.000 OA
ATOM     25  O   UNL     1       5.040   3.278  19.342  0.00  0.00    +0.000 OA
BRANCH  23  26
ATOM     26  N   UNL     1       3.500   3.167  17.352  0.00  0.00    +0.000 NA
ATOM     27  H   UNL     1       3.852   2.820  16.455  0.00  0.00    +0.000 HD
BRANCH  26  28
ATOM     28  C   UNL     1       2.670   2.225  18.153  0.00  0.00    +0.000 C 
BRANCH  28  29
ATOM     29  C   UNL     1       1.335   2.821  18.618  0.00  0.00    +0.000 C 
ATOM     30  F   UNL     1       0.312   1.950  18.458  0.00  0.00    +0.000 F 
ATOM     31  F   UNL     1       1.381   3.145  19.931  0.00  0.00    +0.000 F 
ATOM     32  F   UNL     1       1.032   3.943  17.929  0.00  0.00    +0.000 F 
ENDBRANCH  28  29
ENDBRANCH  26  28
ENDBRANCH  23  26
ENDBRANCH  20  23
ENDBRANCH   3  17
TORSDOF 6
ENDMDL
MODEL 3
REMARK VINA RESULT:      -8.8      1.771      2.520
REMARK  Name = 
REMARK  7 active torsions:
REMARK  status: ('A' for Active; 'I' for Inactive)
REMARK    1  A    between atoms: C_1  and  N_2
REMARK    2  A    between atoms: C_4  and  C_5
REMARK    3  A    between atoms: N_7  and  C_8
REMARK    4  A    between atoms: C_11  and  S_12
REMARK    5  A    between atoms: S_12  and  N_15
REMARK    6  A    between atoms: N_15  and  C_16
REMARK    7  A    between atoms: C_16  and  C_17
REMARK                            x       y       z     vdW  Elec       q    Type
REMARK                         _______ _______ _______ _____ _____    ______ ____
ROOT
ATOM      1  C   UNL     1       1.112   9.452  18.474  0.00  0.00    +0.000 C 
ATOM      2  O   UNL     1       0.530   9.197  17.427  0.00  0.00    +0.000 OA
ATOM      3  N   UNL     1       2.122   8.677  19.048  0.00  0.00    +0.000 N 
ATOM      4  H   UNL     1       2.246   8.780  20.047  0.00  0.00    +0.000 HD
ENDROOT
BRANCH   1   8
ATOM      5  C   UNL     1       0.855  14.251  18.887  0.00  0.00    +0.000 C 
ATOM      6  N   UNL     1       0.494  12.961  19.447  0.00  0.00    +0.000 N 
ATOM      7  N   UNL     1       0.829  11.838  18.719  0.00  0.00    +0.000 NA
ATOM      8  C   UNL     1       0.639  10.670  19.264  0.00  0.00    +0.000 A 
ATOM      9  C   UNL     1       0.065  10.481  20.625  0.00  0.00    +0.000 A 
ATOM     10  C   UNL     1      -0.110   9.233  21.245  0.00  0.00    +0.000 A 
ATOM     11  C   UNL     1      -0.568   9.146  22.564  0.00  0.00    +0.000 A 
ATOM     12  C   UNL     1      -0.906  10.299  23.264  0.00  0.00    +0.000 A 
ATOM     13  C   UNL     1      -0.776  11.540  22.645  0.00  0.00    +0.000 A 
ATOM     14  C   UNL     1      -0.276  11.626  21.334  0.00  0.00    +0.000 A 
ATOM     15  C   UNL     1      -0.066  12.947  20.723  0.00  0.00    +0.000 A 
ATOM     16  O   UNL     1      -0.362  13.960  21.353  0.00  0.00    +0.000 OA
ENDBRANCH   1   8
BRANCH   3  17
ATOM     17  C   UNL     1       2.673   7.550  18.379  0.00  0.00    +0.000 A 
ATOM     18  C   UNL     1       2.201   6.257  18.650  0.00  0.00    +0.000 A 
ATOM     19  C   UNL     1       2.848   5.128  18.152  0.00  0.00    +0.000 A 
ATOM     20  C   UNL     1       3.963   5.279  17.338  0.00  0.00    +0.000 A 
ATOM     21  C   UNL     1       4.391   6.561  16.966  0.00  0.00    +0.000 A 
ATOM     22  C   UNL     1       3.730   7.700  17.474  0.00  0.00    +0.000 A 
BRANCH  20  23
ATOM     23  S   UNL     1       4.931   3.840  16.952  0.00  0.00    +0.000 S 
ATOM     24  O   UNL     1       4.105   2.683  17.201  0.00  0.00    +0.000 OA
ATOM     25  O   UNL     1       5.593   4.046  15.679  0.00  0.00    +0.000 OA
BRANCH  23  26
ATOM     26  N   UNL     1       6.118   3.825  18.133  0.00  0.00    +0.000 NA
ATOM     27  H   UNL     1       6.247   2.880  18.508  0.00  0.00    +0.000 HD
BRANCH  26  28
ATOM     28  C   UNL     1       7.354   4.614  17.876  0.00  0.00    +0.000 C 
BRANCH  28  29
ATOM     29  C   UNL     1       7.561   5.774  18.858  0.00  0.00    +0.000 C 
ATOM     30  F   UNL     1       7.740   6.952  18.216  0.00  0.00    +0.000 F 
ATOM     31  F   UNL     1       6.485   5.921  19.667  0.00  0.00    +0.000 F 
ATOM     32  F   UNL     1       8.639   5.566  19.644  0.00  0.00    +0.000 F 
ENDBRANCH  28  29
ENDBRANCH  26  28
ENDBRANCH  23  26
ENDBRANCH  20  23
ENDBRANCH   3  17
TORSDOF 6
ENDMDL
MODEL 4
REMARK VINA RESULT:      -8.7      2.067      2.526
REMARK  Name = 
REMARK  7 active torsions:
REMARK  status: ('A' for Active; 'I' for Inactive)
REMARK    1  A    between atoms: C_1  and  N_2
REMARK    2  A    between atoms: C_4  and  C_5
REMARK    3  A    between atoms: N_7  and  C_8
REMARK    4  A    between atoms: C_11  and  S_12
REMARK    5  A    between atoms: S_12  and  N_15
REMARK    6  A    between atoms: N_15  and  C_16
REMARK    7  A    between atoms: C_16  and  C_17
REMARK                            x       y       z     vdW  Elec       q    Type
REMARK                         _______ _______ _______ _____ _____    ______ ____
ROOT
ATOM      1  C   UNL     1       1.348   9.927  18.654  0.00  0.00    +0.000 C 
ATOM      2  O   UNL     1       2.160  10.328  17.831  0.00  0.00    +0.000 OA
ATOM      3  N   UNL     1       1.271   8.621  19.145  0.00  0.00    +0.000 N 
ATOM      4  H   UNL     1       0.370   8.336  19.506  0.00  0.00    +0.000 HD
ENDROOT
BRANCH   1   8
ATOM      5  C   UNL     1      -0.054  13.322  21.780  0.00  0.00    +0.000 C 
ATOM      6  N   UNL     1      -0.384  12.547  20.598  0.00  0.00    +0.000 N 
ATOM      7  N   UNL     1       0.592  11.712  20.095  0.00  0.00    +0.000 NA
ATOM      8  C   UNL     1       0.274  10.906  19.121  0.00  0.00    +0.000 A 
ATOM      9  C   UNL     1      -1.083  10.849  18.511  0.00  0.00    +0.000 A 
ATOM     10  C   UNL     1      -1.457   9.961  17.490  0.00  0.00    +0.000 A 
ATOM     11  C   UNL     1      -2.779   9.905  17.037  0.00  0.00    +0.000 A 
ATOM     12  C   UNL     1      -3.734  10.769  17.560  0.00  0.00    +0.000 A 
ATOM     13  C   UNL     1      -3.366  11.683  18.545  0.00  0.00    +0.000 A 
ATOM     14  C   UNL     1      -2.047  11.708  19.027  0.00  0.00    +0.000 A 
ATOM     15  C   UNL     1      -1.692  12.621  20.124  0.00  0.00    +0.000 A 
ATOM     16  O   UNL     1      -2.547  13.375  20.584  0.00  0.00    +0.000 OA
ENDBRANCH   1   8
BRANCH   3  17
ATOM     17  C   UNL     1       2.245   7.639  18.816  0.00  0.00    +0.000 A 
ATOM     18  C   UNL     1       2.484   6.554  19.673  0.00  0.00    +0.000 A 
ATOM     19  C   UNL     1       3.556   5.688  19.468  0.00  0.00    +0.000 A 
ATOM     20  C   UNL     1       4.388   5.873  18.372  0.00  0.00    +0.000 A 
ATOM     21  C   UNL     1       4.108   6.885  17.442  0.00  0.00    +0.000 A 
ATOM     22  C   UNL     1       3.020   7.758  17.657  0.00  0.00    +0.000 A 
BRANCH  20  23
ATOM     23  S   UNL     1       5.899   4.943  18.287  0.00  0.00    +0.000 S 
ATOM     24  O   UNL     1       6.968   5.877  18.028  0.00  0.00    +0.000 OA
ATOM     25  O   UNL     1       5.946   4.019  19.403  0.00  0.00    +0.000 OA
BRANCH  23  26
ATOM     26  N   UNL     1       5.732   4.030  16.893  0.00  0.00    +0.000 NA
ATOM     27  H   UNL     1       4.760   4.033  16.569  0.00  0.00    +0.000 HD
BRANCH  26  28
ATOM     28  C   UNL     1       6.783   4.173  15.848  0.00  0.00    +0.000 C 
BRANCH  28  29
ATOM     29  C   UNL     1       6.269   4.774  14.534  0.00  0.00    +0.000 C 
ATOM     30  F   UNL     1       5.509   5.874  14.747  0.00  0.00    +0.000 F 
ATOM     31  F   UNL     1       7.297   5.148  13.738  0.00  0.00    +0.000 F 
ATOM     32  F   UNL     1       5.520   3.884  13.847  0.00  0.00    +0.000 F 
ENDBRANCH  28  29
ENDBRANCH  26  28
ENDBRANCH  23  26
ENDBRANCH  20  23
ENDBRANCH   3  17
TORSDOF 6
ENDMDL
MODEL 5
REMARK VINA RESULT:      -8.7      3.885      8.737
REMARK  Name = 
REMARK  7 active torsions:
REMARK  status: ('A' for Active; 'I' for Inactive)
REMARK    1  A    between atoms: C_1  and  N_2
REMARK    2  A    between atoms: C_4  and  C_5
REMARK    3  A    between atoms: N_7  and  C_8
REMARK    4  A    between atoms: C_11  and  S_12
REMARK    5  A    between atoms: S_12  and  N_15
REMARK    6  A    between atoms: N_15  and  C_16
REMARK    7  A    between atoms: C_16  and  C_17
REMARK                            x       y       z     vdW  Elec       q    Type
REMARK                         _______ _______ _______ _____ _____    ______ ____
ROOT
ATOM      1  C   UNL     1       2.533   7.507  18.584  0.00  0.00    +0.000 C 
ATOM      2  O   UNL     1       2.355   7.444  19.794  0.00  0.00    +0.000 OA
ATOM      3  N   UNL     1       1.996   8.480  17.738  0.00  0.00    +0.000 N 
ATOM      4  H   UNL     1       1.903   8.218  16.765  0.00  0.00    +0.000 HD
ENDROOT
BRANCH   1   8
ATOM      5  C   UNL     1       6.124   6.179  15.651  0.00  0.00    +0.000 C 
ATOM      6  N   UNL     1       5.067   5.752  16.549  0.00  0.00    +0.000 N 
ATOM      7  N   UNL     1       4.375   6.735  17.226  0.00  0.00    +0.000 NA
ATOM      8  C   UNL     1       3.334   6.385  17.929  0.00  0.00    +0.000 A 
ATOM      9  C   UNL     1       2.863   4.979  18.055  0.00  0.00    +0.000 A 
ATOM     10  C   UNL     1       1.722   4.587  18.774  0.00  0.00    +0.000 A 
ATOM     11  C   UNL     1       1.290   3.256  18.765  0.00  0.00    +0.000 A 
ATOM     12  C   UNL     1       2.019   2.290  18.080  0.00  0.00    +0.000 A 
ATOM     13  C   UNL     1       3.175   2.660  17.397  0.00  0.00    +0.000 A 
ATOM     14  C   UNL     1       3.583   4.004  17.374  0.00  0.00    +0.000 A 
ATOM     15  C   UNL     1       4.758   4.393  16.581  0.00  0.00    +0.000 A 
ATOM     16  O   UNL     1       5.391   3.532  15.974  0.00  0.00    +0.000 OA
ENDBRANCH   1   8
BRANCH   3  17
ATOM     17  C   UNL     1       1.274   9.596  18.242  0.00  0.00    +0.000 A 
ATOM     18  C   UNL     1       1.940  10.780  18.592  0.00  0.00    +0.000 A 
ATOM     19  C   UNL     1       1.285  11.813  19.259  0.00  0.00    +0.000 A 
ATOM     20  C   UNL     1      -0.065  11.690  19.556  0.00  0.00    +0.000 A 
ATOM     21  C   UNL     1      -0.779  10.563  19.123  0.00  0.00    +0.000 A 
ATOM     22  C   UNL     1      -0.109   9.522  18.446  0.00  0.00    +0.000 A 
BRANCH  20  23
ATOM     23  S   UNL     1      -0.805  12.881  20.647  0.00  0.00    +0.000 S 
ATOM     24  O   UNL     1      -0.130  14.139  20.436  0.00  0.00    +0.000 OA
ATOM     25  O   UNL     1      -2.247  12.765  20.564  0.00  0.00    +0.000 OA
BRANCH  23  26
ATOM     26  N   UNL     1      -0.352  12.363  22.174  0.00  0.00    +0.000 NA
ATOM     27  H   UNL     1      -0.228  13.159  22.807  0.00  0.00    +0.000 HD
BRANCH  26  28
ATOM     28  C   UNL     1      -1.050  11.172  22.732  0.00  0.00    +0.000 C 
BRANCH  28  29
ATOM     29  C   UNL     1      -0.191   9.901  22.738  0.00  0.00    +0.000 C 
ATOM     30  F   UNL     1       0.086   9.486  23.996  0.00  0.00    +0.000 F 
ATOM     31  F   UNL     1      -0.829   8.883  22.114  0.00  0.00    +0.000 F 
ATOM     32  F   UNL     1       0.984  10.099  22.102  0.00  0.00    +0.000 F 
ENDBRANCH  28  29
ENDBRANCH  26  28
ENDBRANCH  23  26
ENDBRANCH  20  23
ENDBRANCH   3  17
TORSDOF 6
ENDMDL
MODEL 6
REMARK VINA RESULT:      -8.6      1.992      2.269
REMARK  Name = 
REMARK  7 active torsions:
REMARK  status: ('A' for Active; 'I' for Inactive)
REMARK    1  A    between atoms: C_1  and  N_2
REMARK    2  A    between atoms: C_4  and  C_5
REMARK    3  A    between atoms: N_7  and  C_8
REMARK    4  A    between atoms: C_11  and  S_12
REMARK    5  A    between atoms: S_12  and  N_15
REMARK    6  A    between atoms: N_15  and  C_16
REMARK    7  A    between atoms: C_16  and  C_17
REMARK                            x       y       z     vdW  Elec       q    Type
REMARK                         _______ _______ _______ _____ _____    ______ ____
ROOT
ATOM      1  C   UNL     1       1.114   9.962  18.878  0.00  0.00    +0.000 C 
ATOM      2  O   UNL     1       1.968  10.376  18.103  0.00  0.00    +0.000 OA
ATOM      3  N   UNL     1       1.061   8.671  19.408  0.00  0.00    +0.000 N 
ATOM      4  H   UNL     1       0.149   8.354  19.711  0.00  0.00    +0.000 HD
ENDROOT
BRANCH   1   8
ATOM      5  C   UNL     1      -0.753  13.250  21.872  0.00  0.00    +0.000 C 
ATOM      6  N   UNL     1      -0.915  12.493  20.644  0.00  0.00    +0.000 N 
ATOM      7  N   UNL     1       0.139  11.695  20.248  0.00  0.00    +0.000 NA
ATOM      8  C   UNL     1      -0.036  10.903  19.228  0.00  0.00    +0.000 A 
ATOM      9  C   UNL     1      -1.306  10.825  18.456  0.00  0.00    +0.000 A 
ATOM     10  C   UNL     1      -1.527   9.951  17.380  0.00  0.00    +0.000 A 
ATOM     11  C   UNL     1      -2.782   9.871  16.767  0.00  0.00    +0.000 A 
ATOM     12  C   UNL     1      -3.818  10.698  17.186  0.00  0.00    +0.000 A 
ATOM     13  C   UNL     1      -3.599  11.599  18.225  0.00  0.00    +0.000 A 
ATOM     14  C   UNL     1      -2.349  11.647  18.866  0.00  0.00    +0.000 A 
ATOM     15  C   UNL     1      -2.157  12.544  20.015  0.00  0.00    +0.000 A 
ATOM     16  O   UNL     1      -3.082  13.266  20.382  0.00  0.00    +0.000 OA
ENDBRANCH   1   8
BRANCH   3  17
ATOM     17  C   UNL     1       2.101   7.727  19.188  0.00  0.00    +0.000 A 
ATOM     18  C   UNL     1       2.854   7.756  18.005  0.00  0.00    +0.000 A 
ATOM     19  C   UNL     1       3.745   6.734  17.685  0.00  0.00    +0.000 A 
ATOM     20  C   UNL     1       3.925   5.679  18.570  0.00  0.00    +0.000 A 
ATOM     21  C   UNL     1       3.264   5.680  19.807  0.00  0.00    +0.000 A 
ATOM     22  C   UNL     1       2.364   6.720  20.123  0.00  0.00    +0.000 A 
BRANCH  20  23
ATOM     23  S   UNL     1       4.840   4.259  18.020  0.00  0.00    +0.000 S 
ATOM     24  O   UNL     1       5.407   3.631  19.189  0.00  0.00    +0.000 OA
ATOM     25  O   UNL     1       4.034   3.517  17.071  0.00  0.00    +0.000 OA
BRANCH  23  26
ATOM     26  N   UNL     1       6.129   4.913  17.174  0.00  0.00    +0.000 NA
ATOM     27  H   UNL     1       6.871   5.213  17.814  0.00  0.00    +0.000 HD
BRANCH  26  28
ATOM     28  C   UNL     1       6.562   4.214  15.933  0.00  0.00    +0.000 C 
BRANCH  28  29
ATOM     29  C   UNL     1       6.056   4.875  14.644  0.00  0.00    +0.000 C 
ATOM     30  F   UNL     1       7.072   5.182  13.803  0.00  0.00    +0.000 F 
ATOM     31  F   UNL     1       5.219   4.049  13.973  0.00  0.00    +0.000 F 
ATOM     32  F   UNL     1       5.383   6.015  14.909  0.00  0.00    +0.000 F 
ENDBRANCH  28  29
ENDBRANCH  26  28
ENDBRANCH  23  26
ENDBRANCH  20  23
ENDBRANCH   3  17
TORSDOF 6
ENDMDL
MODEL 7
REMARK VINA RESULT:      -8.6      4.297      9.316
REMARK  Name = 
REMARK  7 active torsions:
REMARK  status: ('A' for Active; 'I' for Inactive)
REMARK    1  A    between atoms: C_1  and  N_2
REMARK    2  A    between atoms: C_4  and  C_5
REMARK    3  A    between atoms: N_7  and  C_8
REMARK    4  A    between atoms: C_11  and  S_12
REMARK    5  A    between atoms: S_12  and  N_15
REMARK    6  A    between atoms: N_15  and  C_16
REMARK    7  A    between atoms: C_16  and  C_17
REMARK                            x       y       z     vdW  Elec       q    Type
REMARK                         _______ _______ _______ _____ _____    ______ ____
ROOT
ATOM      1  C   UNL     1       2.293   7.198  18.777  0.00  0.00    +0.000 C 
ATOM      2  O   UNL     1       1.993   7.520  17.634  0.00  0.00    +0.000 OA
ATOM      3  N   UNL     1       2.048   7.958  19.922  0.00  0.00    +0.000 N 
ATOM      4  H   UNL     1       2.652   7.775  20.713  0.00  0.00    +0.000 HD
ENDROOT
BRANCH   1   8
ATOM      5  C   UNL     1       2.707   2.907  20.939  0.00  0.00    +0.000 C 
ATOM      6  N   UNL     1       3.259   3.840  19.974  0.00  0.00    +0.000 N 
ATOM      7  N   UNL     1       2.536   4.986  19.716  0.00  0.00    +0.000 NA
ATOM      8  C   UNL     1       3.077   5.900  18.961  0.00  0.00    +0.000 A 
ATOM      9  C   UNL     1       4.426   5.767  18.347  0.00  0.00    +0.000 A 
ATOM     10  C   UNL     1       5.042   6.756  17.564  0.00  0.00    +0.000 A 
ATOM     11  C   UNL     1       6.353   6.593  17.103  0.00  0.00    +0.000 A 
ATOM     12  C   UNL     1       7.048   5.420  17.373  0.00  0.00    +0.000 A 
ATOM     13  C   UNL     1       6.432   4.414  18.115  0.00  0.00    +0.000 A 
ATOM     14  C   UNL     1       5.131   4.598  18.611  0.00  0.00    +0.000 A 
ATOM     15  C   UNL     1       4.525   3.563  19.462  0.00  0.00    +0.000 A 
ATOM     16  O   UNL     1       5.151   2.533  19.700  0.00  0.00    +0.000 OA
ENDBRANCH   1   8
BRANCH   3  17
ATOM     17  C   UNL     1       1.287   9.158  19.876  0.00  0.00    +0.000 A 
ATOM     18  C   UNL     1       0.142   9.310  20.672  0.00  0.00    +0.000 A 
ATOM     19  C   UNL     1      -0.720  10.392  20.507  0.00  0.00    +0.000 A 
ATOM     20  C   UNL     1      -0.426  11.365  19.562  0.00  0.00    +0.000 A 
ATOM     21  C   UNL     1       0.766  11.293  18.827  0.00  0.00    +0.000 A 
ATOM     22  C   UNL     1       1.635  10.194  19.001  0.00  0.00    +0.000 A 
BRANCH  20  23
ATOM     23  S   UNL     1      -1.670  12.572  19.173  0.00  0.00    +0.000 S 
ATOM     24  O   UNL     1      -2.841  12.255  19.956  0.00  0.00    +0.000 OA
ATOM     25  O   UNL     1      -1.071  13.891  19.197  0.00  0.00    +0.000 OA
BRANCH  23  26
ATOM     26  N   UNL     1      -2.073  12.238  17.582  0.00  0.00    +0.000 NA
ATOM     27  H   UNL     1      -1.233  12.048  17.025  0.00  0.00    +0.000 HD
BRANCH  26  28
ATOM     28  C   UNL     1      -3.247  11.355  17.340  0.00  0.00    +0.000 C 
BRANCH  28  29
ATOM     29  C   UNL     1      -2.870   9.903  17.018  0.00  0.00    +0.000 C 
ATOM     30  F   UNL     1      -1.531   9.709  17.061  0.00  0.00    +0.000 F 
ATOM     31  F   UNL     1      -3.425   9.050  17.909  0.00  0.00    +0.000 F 
ATOM     32  F   UNL     1      -3.297   9.547  15.787  0.00  0.00    +0.000 F 
ENDBRANCH  28  29
ENDBRANCH  26  28
ENDBRANCH  23  26
ENDBRANCH  20  23
ENDBRANCH   3  17
TORSDOF 6
ENDMDL
MODEL 8
REMARK VINA RESULT:      -8.5      2.870      3.370
REMARK  Name = 
REMARK  7 active torsions:
REMARK  status: ('A' for Active; 'I' for Inactive)
REMARK    1  A    between atoms: C_1  and  N_2
REMARK    2  A    between atoms: C_4  and  C_5
REMARK    3  A    between atoms: N_7  and  C_8
REMARK    4  A    between atoms: C_11  and  S_12
REMARK    5  A    between atoms: S_12  and  N_15
REMARK    6  A    between atoms: N_15  and  C_16
REMARK    7  A    between atoms: C_16  and  C_17
REMARK                            x       y       z     vdW  Elec       q    Type
REMARK                         _______ _______ _______ _____ _____    ______ ____
ROOT
ATOM      1  C   UNL     1       0.720   9.283  20.225  0.00  0.00    +0.000 C 
ATOM      2  O   UNL     1       0.946   8.755  21.307  0.00  0.00    +0.000 OA
ATOM      3  N   UNL     1       1.366   8.977  19.025  0.00  0.00    +0.000 N 
ATOM      4  H   UNL     1       1.365   9.706  18.324  0.00  0.00    +0.000 HD
ENDROOT
BRANCH   1   8
ATOM      5  C   UNL     1      -1.476  12.898  22.542  0.00  0.00    +0.000 C 
ATOM      6  N   UNL     1      -1.318  12.172  21.295  0.00  0.00    +0.000 N 
ATOM      7  N   UNL     1      -0.355  11.184  21.256  0.00  0.00    +0.000 NA
ATOM      8  C   UNL     1      -0.289  10.428  20.196  0.00  0.00    +0.000 A 
ATOM      9  C   UNL     1      -1.186  10.584  19.018  0.00  0.00    +0.000 A 
ATOM     10  C   UNL     1      -1.157   9.755  17.885  0.00  0.00    +0.000 A 
ATOM     11  C   UNL     1      -2.098   9.908  16.861  0.00  0.00    +0.000 A 
ATOM     12  C   UNL     1      -3.047  10.921  16.930  0.00  0.00    +0.000 A 
ATOM     13  C   UNL     1      -3.060  11.775  18.030  0.00  0.00    +0.000 A 
ATOM     14  C   UNL     1      -2.140  11.593  19.076  0.00  0.00    +0.000 A 
ATOM     15  C   UNL     1      -2.217  12.450  20.268  0.00  0.00    +0.000 A 
ATOM     16  O   UNL     1      -3.065  13.338  20.322  0.00  0.00    +0.000 OA
ENDBRANCH   1   8
BRANCH   3  17
ATOM     17  C   UNL     1       2.288   7.899  18.924  0.00  0.00    +0.000 A 
ATOM     18  C   UNL     1       3.127   7.778  17.806  0.00  0.00    +0.000 A 
ATOM     19  C   UNL     1       3.898   6.637  17.597  0.00  0.00    +0.000 A 
ATOM     20  C   UNL     1       3.870   5.609  18.529  0.00  0.00    +0.000 A 
ATOM     21  C   UNL     1       3.122   5.750  19.707  0.00  0.00    +0.000 A 
ATOM     22  C   UNL     1       2.344   6.910  19.913  0.00  0.00    +0.000 A 
BRANCH  20  23
ATOM     23  S   UNL     1       4.631   4.060  18.107  0.00  0.00    +0.000 S 
ATOM     24  O   UNL     1       5.561   4.314  17.033  0.00  0.00    +0.000 OA
ATOM     25  O   UNL     1       5.036   3.387  19.324  0.00  0.00    +0.000 OA
BRANCH  23  26
ATOM     26  N   UNL     1       3.382   3.167  17.437  0.00  0.00    +0.000 NA
ATOM     27  H   UNL     1       3.660   2.773  16.533  0.00  0.00    +0.000 HD
BRANCH  26  28
ATOM     28  C   UNL     1       2.612   2.274  18.345  0.00  0.00    +0.000 C 
BRANCH  28  29
ATOM     29  C   UNL     1       1.221   2.812  18.705  0.00  0.00    +0.000 C 
ATOM     30  F   UNL     1       1.140   3.165  20.009  0.00  0.00    +0.000 F 
ATOM     31  F   UNL     1       0.924   3.912  17.975  0.00  0.00    +0.000 F 
ATOM     32  F   UNL     1       0.262   1.891  18.468  0.00  0.00    +0.000 F 
ENDBRANCH  28  29
ENDBRANCH  26  28
ENDBRANCH  23  26
ENDBRANCH  20  23
ENDBRANCH   3  17
TORSDOF 6
ENDMDL
MODEL 9
REMARK VINA RESULT:      -8.5      3.154      4.256
REMARK  Name = 
REMARK  7 active torsions:
REMARK  status: ('A' for Active; 'I' for Inactive)
REMARK    1  A    between atoms: C_1  and  N_2
REMARK    2  A    between atoms: C_4  and  C_5
REMARK    3  A    between atoms: N_7  and  C_8
REMARK    4  A    between atoms: C_11  and  S_12
REMARK    5  A    between atoms: S_12  and  N_15
REMARK    6  A    between atoms: N_15  and  C_16
REMARK    7  A    between atoms: C_16  and  C_17
REMARK                            x       y       z     vdW  Elec       q    Type
REMARK                         _______ _______ _______ _____ _____    ______ ____
ROOT
ATOM      1  C   UNL     1       0.562  10.087  18.771  0.00  0.00    +0.000 C 
ATOM      2  O   UNL     1       0.084   9.628  17.742  0.00  0.00    +0.000 OA
ATOM      3  N   UNL     1       1.441   9.415  19.624  0.00  0.00    +0.000 N 
ATOM      4  H   UNL     1       1.460   9.736  20.583  0.00  0.00    +0.000 HD
ENDROOT
BRANCH   1   8
ATOM      5  C   UNL     1      -2.969  12.906  20.457  0.00  0.00    +0.000 C 
ATOM      6  N   UNL     1      -1.582  12.814  20.039  0.00  0.00    +0.000 N 
ATOM      7  N   UNL     1      -1.100  11.562  19.717  0.00  0.00    +0.000 NA
ATOM      8  C   UNL     1       0.097  11.473  19.209  0.00  0.00    +0.000 A 
ATOM      9  C   UNL     1       0.978  12.649  18.972  0.00  0.00    +0.000 A 
ATOM     10  C   UNL     1       2.253  12.579  18.388  0.00  0.00    +0.000 A 
ATOM     11  C   UNL     1       2.980  13.742  18.111  0.00  0.00    +0.000 A 
ATOM     12  C   UNL     1       2.467  14.986  18.459  0.00  0.00    +0.000 A 
ATOM     13  C   UNL     1       1.221  15.066  19.076  0.00  0.00    +0.000 A 
ATOM     14  C   UNL     1       0.475  13.899  19.315  0.00  0.00    +0.000 A 
ATOM     15  C   UNL     1      -0.874  14.004  19.890  0.00  0.00    +0.000 A 
ATOM     16  O   UNL     1      -1.321  15.110  20.188  0.00  0.00    +0.000 OA
ENDBRANCH   1   8
BRANCH   3  17
ATOM     17  C   UNL     1       1.977   8.140  19.295  0.00  0.00    +0.000 A 
ATOM     18  C   UNL     1       1.891   7.072  20.201  0.00  0.00    +0.000 A 
ATOM     19  C   UNL     1       2.569   5.875  19.981  0.00  0.00    +0.000 A 
ATOM     20  C   UNL     1       3.318   5.714  18.824  0.00  0.00    +0.000 A 
ATOM     21  C   UNL     1       3.335   6.725  17.852  0.00  0.00    +0.000 A 
ATOM     22  C   UNL     1       2.644   7.935  18.082  0.00  0.00    +0.000 A 
BRANCH  20  23
ATOM     23  S   UNL     1       4.393   4.305  18.699  0.00  0.00    +0.000 S 
ATOM     24  O   UNL     1       4.406   3.891  17.317  0.00  0.00    +0.000 OA
ATOM     25  O   UNL     1       5.617   4.581  19.424  0.00  0.00    +0.000 OA
BRANCH  23  26
ATOM     26  N   UNL     1       3.581   3.103  19.536  0.00  0.00    +0.000 NA
ATOM     27  H   UNL     1       3.243   3.452  20.439  0.00  0.00    +0.000 HD
BRANCH  26  28
ATOM     28  C   UNL     1       2.647   2.238  18.763  0.00  0.00    +0.000 C 
BRANCH  28  29
ATOM     29  C   UNL     1       1.185   2.698  18.828  0.00  0.00    +0.000 C 
ATOM     30  F   UNL     1       0.854   3.154  20.059  0.00  0.00    +0.000 F 
ATOM     31  F   UNL     1       0.955   3.705  17.955  0.00  0.00    +0.000 F 
ATOM     32  F   UNL     1       0.340   1.689  18.522  0.00  0.00    +0.000 F 
ENDBRANCH  28  29
ENDBRANCH  26  28
ENDBRANCH  23  26
ENDBRANCH  20  23
ENDBRANCH   3  17
TORSDOF 6
ENDMDL
