MODEL 1
REMARK VINA RESULT:     -10.8      0.000      0.000
REMARK  Name = 
REMARK  4 active torsions:
REMARK  status: ('A' for Active; 'I' for Inactive)
REMARK    1  A    between atoms: C_4  and  C_5
REMARK    2  A    between atoms: C_7  and  C_8
REMARK    3  A    between atoms: C_12  and  C_13
REMARK    4  A    between atoms: N_20  and  C_21
REMARK                            x       y       z     vdW  Elec       q    Type
REMARK                         _______ _______ _______ _____ _____    ______ ____
ROOT
ATOM      1  O   UNL     1       1.344   4.383  17.551  0.00  0.00    +0.000 OA
ATOM      2  C   UNL     1       2.377   4.440  18.198  0.00  0.00    +0.000 C 
ATOM      3  C   UNL     1       3.229   3.224  18.483  0.00  0.00    +0.000 C 
ATOM      4  C   UNL     1       4.540   3.814  18.981  0.00  0.00    +0.000 C 
ATOM      5  C   UNL     1       4.104   5.114  19.635  0.00  0.00    +0.000 C 
ATOM      6  N   UNL     1       2.935   5.524  18.892  0.00  0.00    +0.000 N 
ENDROOT
BRANCH   6   7
ATOM      7  C   UNL     1       2.400   6.837  18.971  0.00  0.00    +0.000 A 
ATOM      8  C   UNL     1       2.365   7.687  17.849  0.00  0.00    +0.000 A 
ATOM      9  C   UNL     1       1.836   8.982  17.926  0.00  0.00    +0.000 A 
ATOM     10  C   UNL     1       1.326   9.418  19.135  0.00  0.00    +0.000 A 
ATOM     11  C   UNL     1       1.352   8.593  20.254  0.00  0.00    +0.000 A 
ATOM     12  C   UNL     1       1.896   7.317  20.191  0.00  0.00    +0.000 A 
ATOM     13  C   UNL     1       0.784   9.276  21.454  0.00  0.00    +0.000 C 
ATOM     14  C   UNL     1       0.135  10.526  20.843  0.00  0.00    +0.000 C 
ATOM     15  C   UNL     1       0.767  10.763  19.463  0.00  0.00    +0.000 C 
ENDBRANCH   6   7
BRANCH   4  16
ATOM     16  C   UNL     1       5.475   4.082  17.859  0.00  0.00    +0.000 A 
ATOM     17  N   UNL     1       5.267   4.007  16.567  0.00  0.00    +0.000 NA
ATOM     18  C   UNL     1       6.480   4.390  16.043  0.00  0.00    +0.000 A 
ATOM     19  N   UNL     1       7.403   4.686  16.974  0.00  0.00    +0.000 NA
ATOM     20  O   UNL     1       6.735   4.485  18.181  0.00  0.00    +0.000 OA
BRANCH  18  21
ATOM     21  C   UNL     1       6.708   4.432  14.604  0.00  0.00    +0.000 A 
ATOM     22  C   UNL     1       7.726   5.223  14.055  0.00  0.00    +0.000 A 
ATOM     23  C   UNL     1       7.944   5.236  12.676  0.00  0.00    +0.000 A 
ATOM     24  C   UNL     1       7.148   4.459  11.833  0.00  0.00    +0.000 A 
ATOM     25  C   UNL     1       6.119   3.669  12.357  0.00  0.00    +0.000 A 
ATOM     26  C   UNL     1       5.908   3.662  13.744  0.00  0.00    +0.000 A 
BRANCH  25  27
ATOM     27  C   UNL     1       5.283   2.795  11.458  0.00  0.00    +0.000 C 
ATOM     28  F   UNL     1       5.506   1.464  11.646  0.00  0.00    +0.000 F 
ATOM     29  F   UNL     1       3.943   2.972  11.635  0.00  0.00    +0.000 F 
ENDBRANCH  25  27
ENDBRANCH  18  21
ENDBRANCH   4  16
TORSDOF 4
ENDMDL
MODEL 2
REMARK VINA RESULT:     -10.3      0.528      1.303
REMARK  Name = 
REMARK  4 active torsions:
REMARK  status: ('A' for Active; 'I' for Inactive)
REMARK    1  A    between atoms: C_4  and  C_5
REMARK    2  A    between atoms: C_7  and  C_8
REMARK    3  A    between atoms: C_12  and  C_13
REMARK    4  A    between atoms: N_20  and  C_21
REMARK                            x       y       z     vdW  Elec       q    Type
REMARK                         _______ _______ _______ _____ _____    ______ ____
ROOT
ATOM      1  O   UNL     1       1.129   4.291  17.605  0.00  0.00    +0.000 OA
ATOM      2  C   UNL     1       2.180   4.236  18.222  0.00  0.00    +0.000 C 
ATOM      3  C   UNL     1       3.024   2.983  18.283  0.00  0.00    +0.000 C 
ATOM      4  C   UNL     1       4.357   3.475  18.829  0.00  0.00    +0.000 C 
ATOM      5  C   UNL     1       3.957   4.658  19.695  0.00  0.00    +0.000 C 
ATOM      6  N   UNL     1       2.772   5.191  19.062  0.00  0.00    +0.000 N 
ENDROOT
BRANCH   6   7
ATOM      7  C   UNL     1       2.257   6.478  19.366  0.00  0.00    +0.000 A 
ATOM      8  C   UNL     1       1.713   6.774  20.631  0.00  0.00    +0.000 A 
ATOM      9  C   UNL     1       1.206   8.044  20.933  0.00  0.00    +0.000 A 
ATOM     10  C   UNL     1       1.261   9.027  19.962  0.00  0.00    +0.000 A 
ATOM     11  C   UNL     1       1.794   8.753  18.707  0.00  0.00    +0.000 A 
ATOM     12  C   UNL     1       2.277   7.491  18.393  0.00  0.00    +0.000 A 
ATOM     13  C   UNL     1       1.722   9.944  17.807  0.00  0.00    +0.000 C 
ATOM     14  C   UNL     1       1.342  11.068  18.782  0.00  0.00    +0.000 C 
ATOM     15  C   UNL     1       0.739  10.423  20.039  0.00  0.00    +0.000 C 
ENDBRANCH   6   7
BRANCH   4  16
ATOM     16  C   UNL     1       5.263   3.912  17.736  0.00  0.00    +0.000 A 
ATOM     17  N   UNL     1       5.160   3.720  16.444  0.00  0.00    +0.000 NA
ATOM     18  C   UNL     1       6.269   4.368  15.953  0.00  0.00    +0.000 A 
ATOM     19  N   UNL     1       7.032   4.934  16.904  0.00  0.00    +0.000 NA
ATOM     20  O   UNL     1       6.362   4.634  18.089  0.00  0.00    +0.000 OA
BRANCH  18  21
ATOM     21  C   UNL     1       6.567   4.392  14.526  0.00  0.00    +0.000 A 
ATOM     22  C   UNL     1       7.600   5.189  14.015  0.00  0.00    +0.000 A 
ATOM     23  C   UNL     1       7.885   5.184  12.649  0.00  0.00    +0.000 A 
ATOM     24  C   UNL     1       7.142   4.384  11.780  0.00  0.00    +0.000 A 
ATOM     25  C   UNL     1       6.099   3.588  12.265  0.00  0.00    +0.000 A 
ATOM     26  C   UNL     1       5.821   3.598  13.640  0.00  0.00    +0.000 A 
BRANCH  25  27
ATOM     27  C   UNL     1       5.320   2.688  11.340  0.00  0.00    +0.000 C 
ATOM     28  F   UNL     1       5.594   1.366  11.521  0.00  0.00    +0.000 F 
ATOM     29  F   UNL     1       3.970   2.808  11.490  0.00  0.00    +0.000 F 
ENDBRANCH  25  27
ENDBRANCH  18  21
ENDBRANCH   4  16
TORSDOF 4
ENDMDL
MODEL 3
REMARK VINA RESULT:      -9.2      1.658      2.109
REMARK  Name = 
REMARK  4 active torsions:
REMARK  status: ('A' for Active; 'I' for Inactive)
REMARK    1  A    between atoms: C_4  and  C_5
REMARK    2  A    between atoms: C_7  and  C_8
REMARK    3  A    between atoms: C_12  and  C_13
REMARK    4  A    between atoms: N_20  and  C_21
REMARK                            x       y       z     vdW  Elec       q    Type
REMARK                         _______ _______ _______ _____ _____    ______ ____
ROOT
ATOM      1  O   UNL     1       1.330   4.319  17.967  0.00  0.00    +0.000 OA
ATOM      2  C   UNL     1       2.391   4.464  18.553  0.00  0.00    +0.000 C 
ATOM      3  C   UNL     1       3.278   3.299  18.931  0.00  0.00    +0.000 C 
ATOM      4  C   UNL     1       4.600   3.961  19.294  0.00  0.00    +0.000 C 
ATOM      5  C   UNL     1       4.170   5.321  19.818  0.00  0.00    +0.000 C 
ATOM      6  N   UNL     1       2.960   5.627  19.091  0.00  0.00    +0.000 N 
ENDROOT
BRANCH   6   7
ATOM      7  C   UNL     1       2.405   6.933  19.048  0.00  0.00    +0.000 A 
ATOM      8  C   UNL     1       2.436   7.709  17.873  0.00  0.00    +0.000 A 
ATOM      9  C   UNL     1       1.887   8.996  17.828  0.00  0.00    +0.000 A 
ATOM     10  C   UNL     1       1.289   9.500  18.968  0.00  0.00    +0.000 A 
ATOM     11  C   UNL     1       1.249   8.749  20.138  0.00  0.00    +0.000 A 
ATOM     12  C   UNL     1       1.811   7.482  20.196  0.00  0.00    +0.000 A 
ATOM     13  C   UNL     1       0.590   9.499  21.250  0.00  0.00    +0.000 C 
ATOM     14  C   UNL     1      -0.031  10.695  20.515  0.00  0.00    +0.000 C 
ATOM     15  C   UNL     1       0.692  10.854  19.169  0.00  0.00    +0.000 C 
ENDBRANCH   6   7
BRANCH   4  16
ATOM     16  C   UNL     1       5.476   4.112  18.104  0.00  0.00    +0.000 A 
ATOM     17  N   UNL     1       5.180   3.995  16.834  0.00  0.00    +0.000 NA
ATOM     18  C   UNL     1       6.379   4.267  16.217  0.00  0.00    +0.000 A 
ATOM     19  N   UNL     1       7.379   4.538  17.074  0.00  0.00    +0.000 NA
ATOM     20  O   UNL     1       6.779   4.438  18.328  0.00  0.00    +0.000 OA
BRANCH  18  21
ATOM     21  C   UNL     1       6.515   4.231  14.766  0.00  0.00    +0.000 A 
ATOM     22  C   UNL     1       5.690   3.414  13.982  0.00  0.00    +0.000 A 
ATOM     23  C   UNL     1       5.820   3.406  12.592  0.00  0.00    +0.000 A 
ATOM     24  C   UNL     1       6.774   4.215  11.972  0.00  0.00    +0.000 A 
ATOM     25  C   UNL     1       7.616   5.032  12.735  0.00  0.00    +0.000 A 
ATOM     26  C   UNL     1       7.477   5.033  14.132  0.00  0.00    +0.000 A 
BRANCH  25  27
ATOM     27  C   UNL     1       8.619   5.941  12.072  0.00  0.00    +0.000 C 
ATOM     28  F   UNL     1       8.041   6.960  11.376  0.00  0.00    +0.000 F 
ATOM     29  F   UNL     1       9.468   6.535  12.957  0.00  0.00    +0.000 F 
ENDBRANCH  25  27
ENDBRANCH  18  21
ENDBRANCH   4  16
TORSDOF 4
ENDMDL
MODEL 4
REMARK VINA RESULT:      -8.8      2.856      4.375
REMARK  Name = 
REMARK  4 active torsions:
REMARK  status: ('A' for Active; 'I' for Inactive)
REMARK    1  A    between atoms: C_4  and  C_5
REMARK    2  A    between atoms: C_7  and  C_8
REMARK    3  A    between atoms: C_12  and  C_13
REMARK    4  A    between atoms: N_20  and  C_21
REMARK                            x       y       z     vdW  Elec       q    Type
REMARK                         _______ _______ _______ _____ _____    ______ ____
ROOT
ATOM      1  O   UNL     1       6.826   5.162  19.458  0.00  0.00    +0.000 OA
ATOM      2  C   UNL     1       6.374   5.792  18.517  0.00  0.00    +0.000 C 
ATOM      3  C   UNL     1       7.217   6.733  17.686  0.00  0.00    +0.000 C 
ATOM      4  C   UNL     1       6.356   6.995  16.458  0.00  0.00    +0.000 C 
ATOM      5  C   UNL     1       4.942   6.860  16.996  0.00  0.00    +0.000 C 
ATOM      6  N   UNL     1       5.048   5.899  18.070  0.00  0.00    +0.000 N 
ENDROOT
BRANCH   6   7
ATOM      7  C   UNL     1       3.916   5.254  18.633  0.00  0.00    +0.000 A 
ATOM      8  C   UNL     1       3.151   5.863  19.647  0.00  0.00    +0.000 A 
ATOM      9  C   UNL     1       2.032   5.229  20.202  0.00  0.00    +0.000 A 
ATOM     10  C   UNL     1       1.672   3.982  19.724  0.00  0.00    +0.000 A 
ATOM     11  C   UNL     1       2.416   3.366  18.724  0.00  0.00    +0.000 A 
ATOM     12  C   UNL     1       3.539   3.977  18.185  0.00  0.00    +0.000 A 
ATOM     13  C   UNL     1       1.872   2.016  18.386  0.00  0.00    +0.000 C 
ATOM     14  C   UNL     1       0.517   2.020  19.109  0.00  0.00    +0.000 C 
ATOM     15  C   UNL     1       0.562   3.104  20.197  0.00  0.00    +0.000 C 
ENDBRANCH   6   7
BRANCH   4  16
ATOM     16  C   UNL     1       6.609   5.990  15.394  0.00  0.00    +0.000 A 
ATOM     17  N   UNL     1       5.756   5.370  14.618  0.00  0.00    +0.000 NA
ATOM     18  C   UNL     1       6.573   4.591  13.831  0.00  0.00    +0.000 A 
ATOM     19  N   UNL     1       7.881   4.723  14.113  0.00  0.00    +0.000 NA
ATOM     20  O   UNL     1       7.905   5.654  15.150  0.00  0.00    +0.000 OA
BRANCH  18  21
ATOM     21  C   UNL     1       6.028   3.702  12.813  0.00  0.00    +0.000 A 
ATOM     22  C   UNL     1       6.657   2.490  12.499  0.00  0.00    +0.000 A 
ATOM     23  C   UNL     1       6.111   1.640  11.536  0.00  0.00    +0.000 A 
ATOM     24  C   UNL     1       4.930   1.991  10.879  0.00  0.00    +0.000 A 
ATOM     25  C   UNL     1       4.289   3.201  11.169  0.00  0.00    +0.000 A 
ATOM     26  C   UNL     1       4.846   4.048  12.139  0.00  0.00    +0.000 A 
BRANCH  25  27
ATOM     27  C   UNL     1       2.991   3.568  10.496  0.00  0.00    +0.000 C 
ATOM     28  F   UNL     1       2.864   4.905  10.268  0.00  0.00    +0.000 F 
ATOM     29  F   UNL     1       2.833   2.970   9.281  0.00  0.00    +0.000 F 
ENDBRANCH  25  27
ENDBRANCH  18  21
ENDBRANCH   4  16
TORSDOF 4
ENDMDL
MODEL 5
REMARK VINA RESULT:      -8.7      2.818      4.295
REMARK  Name = 
REMARK  4 active torsions:
REMARK  status: ('A' for Active; 'I' for Inactive)
REMARK    1  A    between atoms: C_4  and  C_5
REMARK    2  A    between atoms: C_7  and  C_8
REMARK    3  A    between atoms: C_12  and  C_13
REMARK    4  A    between atoms: N_20  and  C_21
REMARK                            x       y       z     vdW  Elec       q    Type
REMARK                         _______ _______ _______ _____ _____    ______ ____
ROOT
ATOM      1  O   UNL     1       6.889   4.820  19.755  0.00  0.00    +0.000 OA
ATOM      2  C   UNL     1       6.491   5.604  18.909  0.00  0.00    +0.000 C 
ATOM      3  C   UNL     1       7.410   6.574  18.201  0.00  0.00    +0.000 C 
ATOM      4  C   UNL     1       6.575   7.066  17.028  0.00  0.00    +0.000 C 
ATOM      5  C   UNL     1       5.154   6.979  17.558  0.00  0.00    +0.000 C 
ATOM      6  N   UNL     1       5.179   5.878  18.494  0.00  0.00    +0.000 N 
ENDROOT
BRANCH   6   7
ATOM      7  C   UNL     1       3.997   5.261  18.980  0.00  0.00    +0.000 A 
ATOM      8  C   UNL     1       3.155   5.908  19.905  0.00  0.00    +0.000 A 
ATOM      9  C   UNL     1       1.987   5.300  20.383  0.00  0.00    +0.000 A 
ATOM     10  C   UNL     1       1.656   4.042  19.917  0.00  0.00    +0.000 A 
ATOM     11  C   UNL     1       2.476   3.387  19.003  0.00  0.00    +0.000 A 
ATOM     12  C   UNL     1       3.647   3.973  18.543  0.00  0.00    +0.000 A 
ATOM     13  C   UNL     1       1.948   2.032  18.665  0.00  0.00    +0.000 C 
ATOM     14  C   UNL     1       0.538   2.068  19.270  0.00  0.00    +0.000 C 
ATOM     15  C   UNL     1       0.501   3.187  20.322  0.00  0.00    +0.000 C 
ENDBRANCH   6   7
BRANCH   4  16
ATOM     16  C   UNL     1       6.743   6.193  15.838  0.00  0.00    +0.000 A 
ATOM     17  N   UNL     1       5.839   5.535  15.155  0.00  0.00    +0.000 NA
ATOM     18  C   UNL     1       6.584   4.935  14.166  0.00  0.00    +0.000 A 
ATOM     19  N   UNL     1       7.899   5.208  14.238  0.00  0.00    +0.000 NA
ATOM     20  O   UNL     1       8.004   6.046  15.347  0.00  0.00    +0.000 OA
BRANCH  18  21
ATOM     21  C   UNL     1       5.968   4.071  13.167  0.00  0.00    +0.000 A 
ATOM     22  C   UNL     1       4.660   4.298  12.721  0.00  0.00    +0.000 A 
ATOM     23  C   UNL     1       4.093   3.472  11.748  0.00  0.00    +0.000 A 
ATOM     24  C   UNL     1       4.828   2.414  11.212  0.00  0.00    +0.000 A 
ATOM     25  C   UNL     1       6.133   2.161  11.649  0.00  0.00    +0.000 A 
ATOM     26  C   UNL     1       6.694   2.997  12.626  0.00  0.00    +0.000 A 
BRANCH  25  27
ATOM     27  C   UNL     1       6.948   1.047  11.044  0.00  0.00    +0.000 C 
ATOM     28  F   UNL     1       6.206  -0.050  10.727  0.00  0.00    +0.000 F 
ATOM     29  F   UNL     1       7.576   1.412   9.890  0.00  0.00    +0.000 F 
ENDBRANCH  25  27
ENDBRANCH  18  21
ENDBRANCH   4  16
TORSDOF 4
ENDMDL
MODEL 6
REMARK VINA RESULT:      -8.7      4.148      9.223
REMARK  Name = 
REMARK  4 active torsions:
REMARK  status: ('A' for Active; 'I' for Inactive)
REMARK    1  A    between atoms: C_4  and  C_5
REMARK    2  A    between atoms: C_7  and  C_8
REMARK    3  A    between atoms: C_12  and  C_13
REMARK    4  A    between atoms: N_20  and  C_21
REMARK                            x       y       z     vdW  Elec       q    Type
REMARK                         _______ _______ _______ _____ _____    ______ ____
ROOT
ATOM      1  O   UNL     1       6.538   4.899  19.101  0.00  0.00    +0.000 OA
ATOM      2  C   UNL     1       5.382   4.762  18.733  0.00  0.00    +0.000 C 
ATOM      3  C   UNL     1       4.238   4.560  19.701  0.00  0.00    +0.000 C 
ATOM      4  C   UNL     1       3.001   4.798  18.847  0.00  0.00    +0.000 C 
ATOM      5  C   UNL     1       3.451   4.364  17.462  0.00  0.00    +0.000 C 
ATOM      6  N   UNL     1       4.868   4.644  17.433  0.00  0.00    +0.000 N 
ENDROOT
BRANCH   6   7
ATOM      7  C   UNL     1       5.615   4.678  16.227  0.00  0.00    +0.000 A 
ATOM      8  C   UNL     1       6.833   5.380  16.134  0.00  0.00    +0.000 A 
ATOM      9  C   UNL     1       7.572   5.413  14.945  0.00  0.00    +0.000 A 
ATOM     10  C   UNL     1       7.092   4.723  13.848  0.00  0.00    +0.000 A 
ATOM     11  C   UNL     1       5.892   4.024  13.920  0.00  0.00    +0.000 A 
ATOM     12  C   UNL     1       5.142   4.007  15.088  0.00  0.00    +0.000 A 
ATOM     13  C   UNL     1       5.548   3.385  12.615  0.00  0.00    +0.000 C 
ATOM     14  C   UNL     1       6.852   3.543  11.820  0.00  0.00    +0.000 C 
ATOM     15  C   UNL     1       7.676   4.661  12.475  0.00  0.00    +0.000 C 
ENDBRANCH   6   7
BRANCH   4  16
ATOM     16  C   UNL     1       2.612   6.232  18.844  0.00  0.00    +0.000 A 
ATOM     17  N   UNL     1       1.883   6.897  19.705  0.00  0.00    +0.000 NA
ATOM     18  C   UNL     1       1.894   8.172  19.189  0.00  0.00    +0.000 A 
ATOM     19  N   UNL     1       2.599   8.290  18.050  0.00  0.00    +0.000 NA
ATOM     20  O   UNL     1       3.079   7.001  17.822  0.00  0.00    +0.000 OA
BRANCH  18  21
ATOM     21  C   UNL     1       1.173   9.262  19.835  0.00  0.00    +0.000 A 
ATOM     22  C   UNL     1       1.004  10.498  19.198  0.00  0.00    +0.000 A 
ATOM     23  C   UNL     1       0.294  11.523  19.823  0.00  0.00    +0.000 A 
ATOM     24  C   UNL     1      -0.257  11.324  21.090  0.00  0.00    +0.000 A 
ATOM     25  C   UNL     1      -0.094  10.102  21.751  0.00  0.00    +0.000 A 
ATOM     26  C   UNL     1       0.622   9.076  21.114  0.00  0.00    +0.000 A 
BRANCH  25  27
ATOM     27  C   UNL     1      -0.721   9.864  23.101  0.00  0.00    +0.000 C 
ATOM     28  F   UNL     1       0.169   9.432  24.038  0.00  0.00    +0.000 F 
ATOM     29  F   UNL     1      -1.296  10.982  23.627  0.00  0.00    +0.000 F 
ENDBRANCH  25  27
ENDBRANCH  18  21
ENDBRANCH   4  16
TORSDOF 4
ENDMDL
MODEL 7
REMARK VINA RESULT:      -8.7      1.158      1.359
REMARK  Name = 
REMARK  4 active torsions:
REMARK  status: ('A' for Active; 'I' for Inactive)
REMARK    1  A    between atoms: C_4  and  C_5
REMARK    2  A    between atoms: C_7  and  C_8
REMARK    3  A    between atoms: C_12  and  C_13
REMARK    4  A    between atoms: N_20  and  C_21
REMARK                            x       y       z     vdW  Elec       q    Type
REMARK                         _______ _______ _______ _____ _____    ______ ____
ROOT
ATOM      1  O   UNL     1       1.418   4.486  19.954  0.00  0.00    +0.000 OA
ATOM      2  C   UNL     1       2.579   4.812  19.768  0.00  0.00    +0.000 C 
ATOM      3  C   UNL     1       3.732   3.849  19.941  0.00  0.00    +0.000 C 
ATOM      4  C   UNL     1       4.898   4.565  19.273  0.00  0.00    +0.000 C 
ATOM      5  C   UNL     1       4.560   6.033  19.474  0.00  0.00    +0.000 C 
ATOM      6  N   UNL     1       3.116   6.077  19.490  0.00  0.00    +0.000 N 
ENDROOT
BRANCH   6   7
ATOM      7  C   UNL     1       2.388   7.286  19.344  0.00  0.00    +0.000 A 
ATOM      8  C   UNL     1       2.313   7.957  18.107  0.00  0.00    +0.000 A 
ATOM      9  C   UNL     1       1.593   9.150  17.962  0.00  0.00    +0.000 A 
ATOM     10  C   UNL     1       0.932   9.662  19.062  0.00  0.00    +0.000 A 
ATOM     11  C   UNL     1       0.994   9.015  20.291  0.00  0.00    +0.000 A 
ATOM     12  C   UNL     1       1.725   7.845  20.449  0.00  0.00    +0.000 A 
ATOM     13  C   UNL     1       0.240   9.759  21.344  0.00  0.00    +0.000 C 
ATOM     14  C   UNL     1      -0.539  10.793  20.519  0.00  0.00    +0.000 C 
ATOM     15  C   UNL     1       0.155  10.934  19.156  0.00  0.00    +0.000 C 
ENDBRANCH   6   7
BRANCH   4  16
ATOM     16  C   UNL     1       4.976   4.241  17.825  0.00  0.00    +0.000 A 
ATOM     17  N   UNL     1       5.861   4.615  16.936  0.00  0.00    +0.000 NA
ATOM     18  C   UNL     1       5.425   3.988  15.792  0.00  0.00    +0.000 A 
ATOM     19  N   UNL     1       4.311   3.257  15.966  0.00  0.00    +0.000 NA
ATOM     20  O   UNL     1       4.013   3.423  17.318  0.00  0.00    +0.000 OA
BRANCH  18  21
ATOM     21  C   UNL     1       6.124   4.148  14.522  0.00  0.00    +0.000 A 
ATOM     22  C   UNL     1       7.044   5.186  14.328  0.00  0.00    +0.000 A 
ATOM     23  C   UNL     1       7.719   5.313  13.113  0.00  0.00    +0.000 A 
ATOM     24  C   UNL     1       7.483   4.403  12.081  0.00  0.00    +0.000 A 
ATOM     25  C   UNL     1       6.560   3.364  12.248  0.00  0.00    +0.000 A 
ATOM     26  C   UNL     1       5.887   3.245  13.474  0.00  0.00    +0.000 A 
BRANCH  25  27
ATOM     27  C   UNL     1       6.330   2.352  11.155  0.00  0.00    +0.000 C 
ATOM     28  F   UNL     1       7.448   1.639  10.840  0.00  0.00    +0.000 F 
ATOM     29  F   UNL     1       5.382   1.427  11.474  0.00  0.00    +0.000 F 
ENDBRANCH  25  27
ENDBRANCH  18  21
ENDBRANCH   4  16
TORSDOF 4
ENDMDL
MODEL 8
REMARK VINA RESULT:      -8.6      1.367      1.763
REMARK  Name = 
REMARK  4 active torsions:
REMARK  status: ('A' for Active; 'I' for Inactive)
REMARK    1  A    between atoms: C_4  and  C_5
REMARK    2  A    between atoms: C_7  and  C_8
REMARK    3  A    between atoms: C_12  and  C_13
REMARK    4  A    between atoms: N_20  and  C_21
REMARK                            x       y       z     vdW  Elec       q    Type
REMARK                         _______ _______ _______ _____ _____    ______ ____
ROOT
ATOM      1  O   UNL     1       2.358   3.955  18.583  0.00  0.00    +0.000 OA
ATOM      2  C   UNL     1       3.477   4.439  18.545  0.00  0.00    +0.000 C 
ATOM      3  C   UNL     1       4.730   3.594  18.513  0.00  0.00    +0.000 C 
ATOM      4  C   UNL     1       5.818   4.582  18.114  0.00  0.00    +0.000 C 
ATOM      5  C   UNL     1       5.310   5.897  18.680  0.00  0.00    +0.000 C 
ATOM      6  N   UNL     1       3.870   5.783  18.638  0.00  0.00    +0.000 N 
ENDROOT
BRANCH   6   7
ATOM      7  C   UNL     1       3.011   6.903  18.782  0.00  0.00    +0.000 A 
ATOM      8  C   UNL     1       2.828   7.831  17.738  0.00  0.00    +0.000 A 
ATOM      9  C   UNL     1       1.979   8.936  17.878  0.00  0.00    +0.000 A 
ATOM     10  C   UNL     1       1.297   9.099  19.070  0.00  0.00    +0.000 A 
ATOM     11  C   UNL     1       1.464   8.193  20.112  0.00  0.00    +0.000 A 
ATOM     12  C   UNL     1       2.322   7.110  19.989  0.00  0.00    +0.000 A 
ATOM     13  C   UNL     1       0.663   8.581  21.311  0.00  0.00    +0.000 C 
ATOM     14  C   UNL     1      -0.247   9.685  20.755  0.00  0.00    +0.000 C 
ATOM     15  C   UNL     1       0.389  10.218  19.462  0.00  0.00    +0.000 C 
ENDBRANCH   6   7
BRANCH   4  16
ATOM     16  C   UNL     1       5.958   4.667  16.638  0.00  0.00    +0.000 A 
ATOM     17  N   UNL     1       5.776   3.740  15.731  0.00  0.00    +0.000 NA
ATOM     18  C   UNL     1       6.028   4.413  14.557  0.00  0.00    +0.000 A 
ATOM     19  N   UNL     1       6.356   5.704  14.732  0.00  0.00    +0.000 NA
ATOM     20  O   UNL     1       6.307   5.875  16.115  0.00  0.00    +0.000 OA
BRANCH  18  21
ATOM     21  C   UNL     1       5.957   3.742  13.265  0.00  0.00    +0.000 A 
ATOM     22  C   UNL     1       7.045   3.013  12.767  0.00  0.00    +0.000 A 
ATOM     23  C   UNL     1       6.953   2.360  11.537  0.00  0.00    +0.000 A 
ATOM     24  C   UNL     1       5.774   2.426  10.793  0.00  0.00    +0.000 A 
ATOM     25  C   UNL     1       4.677   3.156  11.266  0.00  0.00    +0.000 A 
ATOM     26  C   UNL     1       4.779   3.808  12.504  0.00  0.00    +0.000 A 
BRANCH  25  27
ATOM     27  C   UNL     1       3.385   3.196  10.490  0.00  0.00    +0.000 C 
ATOM     28  F   UNL     1       2.357   2.567  11.126  0.00  0.00    +0.000 F 
ATOM     29  F   UNL     1       2.947   4.465  10.249  0.00  0.00    +0.000 F 
ENDBRANCH  25  27
ENDBRANCH  18  21
ENDBRANCH   4  16
TORSDOF 4
ENDMDL
MODEL 9
REMARK VINA RESULT:      -8.6      3.678      8.964
REMARK  Name = 
REMARK  4 active torsions:
REMARK  status: ('A' for Active; 'I' for Inactive)
REMARK    1  A    between atoms: C_4  and  C_5
REMARK    2  A    between atoms: C_7  and  C_8
REMARK    3  A    between atoms: C_12  and  C_13
REMARK    4  A    between atoms: N_20  and  C_21
REMARK                            x       y       z     vdW  Elec       q    Type
REMARK                         _______ _______ _______ _____ _____    ______ ____
ROOT
ATOM      1  O   UNL     1       6.605   4.571  19.185  0.00  0.00    +0.000 OA
ATOM      2  C   UNL     1       5.452   4.419  18.818  0.00  0.00    +0.000 C 
ATOM      3  C   UNL     1       4.330   4.085  19.775  0.00  0.00    +0.000 C 
ATOM      4  C   UNL     1       3.073   4.346  18.957  0.00  0.00    +0.000 C 
ATOM      5  C   UNL     1       3.522   4.053  17.535  0.00  0.00    +0.000 C 
ATOM      6  N   UNL     1       4.926   4.393  17.518  0.00  0.00    +0.000 N 
ENDROOT
BRANCH   6   7
ATOM      7  C   UNL     1       5.655   4.563  16.312  0.00  0.00    +0.000 A 
ATOM      8  C   UNL     1       6.788   5.398  16.248  0.00  0.00    +0.000 A 
ATOM      9  C   UNL     1       7.510   5.565  15.059  0.00  0.00    +0.000 A 
ATOM     10  C   UNL     1       7.099   4.877  13.933  0.00  0.00    +0.000 A 
ATOM     11  C   UNL     1       5.982   4.049  13.977  0.00  0.00    +0.000 A 
ATOM     12  C   UNL     1       5.249   3.897  15.144  0.00  0.00    +0.000 A 
ATOM     13  C   UNL     1       5.700   3.436  12.644  0.00  0.00    +0.000 C 
ATOM     14  C   UNL     1       6.972   3.771  11.853  0.00  0.00    +0.000 C 
ATOM     15  C   UNL     1       7.675   4.942  12.557  0.00  0.00    +0.000 C 
ENDBRANCH   6   7
BRANCH   4  16
ATOM     16  C   UNL     1       2.626   5.757  19.083  0.00  0.00    +0.000 A 
ATOM     17  N   UNL     1       2.009   6.348  20.076  0.00  0.00    +0.000 NA
ATOM     18  C   UNL     1       1.885   7.642  19.628  0.00  0.00    +0.000 A 
ATOM     19  N   UNL     1       2.402   7.843  18.403  0.00  0.00    +0.000 NA
ATOM     20  O   UNL     1       2.897   6.591  18.042  0.00  0.00    +0.000 OA
BRANCH  18  21
ATOM     21  C   UNL     1       1.225   8.666  20.429  0.00  0.00    +0.000 A 
ATOM     22  C   UNL     1       1.161   8.564  21.825  0.00  0.00    +0.000 A 
ATOM     23  C   UNL     1       0.543   9.563  22.578  0.00  0.00    +0.000 A 
ATOM     24  C   UNL     1      -0.015  10.675  21.945  0.00  0.00    +0.000 A 
ATOM     25  C   UNL     1       0.029  10.795  20.551  0.00  0.00    +0.000 A 
ATOM     26  C   UNL     1       0.653   9.785  19.803  0.00  0.00    +0.000 A 
BRANCH  25  27
ATOM     27  C   UNL     1      -0.532  12.013  19.863  0.00  0.00    +0.000 C 
ATOM     28  F   UNL     1       0.133  12.337  18.719  0.00  0.00    +0.000 F 
ATOM     29  F   UNL     1      -1.838  11.867  19.500  0.00  0.00    +0.000 F 
ENDBRANCH  25  27
ENDBRANCH  18  21
ENDBRANCH   4  16
TORSDOF 4
ENDMDL
