MODEL 1
REMARK VINA RESULT:      -8.7      0.000      0.000
REMARK  Name = 
REMARK  9 active torsions:
REMARK  status: ('A' for Active; 'I' for Inactive)
REMARK    1  A    between atoms: C_1  and  C_2
REMARK    2  A    between atoms: C_5  and  S_6
REMARK    3  A    between atoms: S_6  and  C_7
REMARK    4  A    between atoms: C_11  and  N_12
REMARK    5  A    between atoms: C_13  and  C_15
REMARK    6  A    between atoms: C_17  and  C_18
REMARK    7  A    between atoms: N_26  and  C_27
REMARK    8  A    between atoms: C_27  and  C_28
REMARK    9  A    between atoms: C_27  and  C_29
REMARK                            x       y       z     vdW  Elec       q    Type
REMARK                         _______ _______ _______ _____ _____    ______ ____
ROOT
ATOM      1  N   UNL     1       1.739   7.793  18.951  0.00  0.00    +0.000 N 
ATOM      2  C   UNL     1       1.633   8.999  18.263  0.00  0.00    +0.000 C 
ATOM      3  O   UNL     1       2.435   9.452  17.454  0.00  0.00    +0.000 OA
ATOM      4  H   UNL     1       1.046   7.590  19.659  0.00  0.00    +0.000 HD
ENDROOT
BRANCH   2   5
ATOM      5  C   UNL     1       0.445   9.845  18.509  0.00  0.00    +0.000 A 
ATOM      6  C   UNL     1      -0.636   9.759  17.615  0.00  0.00    +0.000 A 
ATOM      7  C   UNL     1      -1.844  10.408  17.879  0.00  0.00    +0.000 A 
ATOM      8  N   UNL     1      -2.035  11.159  18.993  0.00  0.00    +0.000 NA
ATOM      9  C   UNL     1      -0.984  11.205  19.840  0.00  0.00    +0.000 A 
ATOM     10  C   UNL     1       0.255  10.595  19.673  0.00  0.00    +0.000 A 
ATOM     11  C   UNL     1       0.956  10.897  20.856  0.00  0.00    +0.000 A 
ATOM     12  N   UNL     1       0.263  11.675  21.689  0.00  0.00    +0.000 NA
ATOM     13  N   UNL     1      -0.934  11.824  21.066  0.00  0.00    +0.000 N 
BRANCH   7  14
ATOM     14  C   UNL     1      -3.018  10.195  16.939  0.00  0.00    +0.000 C 
ATOM     15  C   UNL     1      -3.091  10.927  15.617  0.00  0.00    +0.000 C 
ATOM     16  C   UNL     1      -4.044  11.280  16.717  0.00  0.00    +0.000 C 
ENDBRANCH   7  14
BRANCH  13  17
ATOM     17  C   UNL     1      -2.014  12.536  21.742  0.00  0.00    +0.000 C 
ATOM     18  C   UNL     1      -2.288  11.945  23.128  0.00  0.00    +0.000 C 
ATOM     19  C   UNL     1      -1.711  14.032  21.840  0.00  0.00    +0.000 C 
ENDBRANCH  13  17
ENDBRANCH   2   5
BRANCH   1  26
ATOM     20  C   UNL     1       1.876   5.433  20.758  0.00  0.00    +0.000 C 
ATOM     21  C   UNL     1       2.872   5.716  19.664  0.00  0.00    +0.000 A 
ATOM     22  C   UNL     1       3.921   4.784  19.497  0.00  0.00    +0.000 A 
ATOM     23  C   UNL     1       4.895   4.955  18.517  0.00  0.00    +0.000 A 
ATOM     24  C   UNL     1       4.818   6.061  17.683  0.00  0.00    +0.000 A 
ATOM     25  C   UNL     1       3.783   6.990  17.824  0.00  0.00    +0.000 A 
ATOM     26  C   UNL     1       2.794   6.840  18.807  0.00  0.00    +0.000 A 
BRANCH  24  27
ATOM     27  S   UNL     1       6.068   6.350  16.455  0.00  0.00    +0.000 S 
ATOM     28  C   UNL     1       6.986   4.835  16.389  0.00  0.00    +0.000 C 
ATOM     29  O   UNL     1       5.386   6.538  15.188  0.00  0.00    +0.000 OA
ATOM     30  O   UNL     1       6.958   7.373  16.971  0.00  0.00    +0.000 OA
ENDBRANCH  24  27
ENDBRANCH   1  26
TORSDOF 5
ENDMDL
MODEL 2
REMARK VINA RESULT:      -8.5      2.540      3.513
REMARK  Name = 
REMARK  9 active torsions:
REMARK  status: ('A' for Active; 'I' for Inactive)
REMARK    1  A    between atoms: C_1  and  C_2
REMARK    2  A    between atoms: C_5  and  S_6
REMARK    3  A    between atoms: S_6  and  C_7
REMARK    4  A    between atoms: C_11  and  N_12
REMARK    5  A    between atoms: C_13  and  C_15
REMARK    6  A    between atoms: C_17  and  C_18
REMARK    7  A    between atoms: N_26  and  C_27
REMARK    8  A    between atoms: C_27  and  C_28
REMARK    9  A    between atoms: C_27  and  C_29
REMARK                            x       y       z     vdW  Elec       q    Type
REMARK                         _______ _______ _______ _____ _____    ______ ____
ROOT
ATOM      1  N   UNL     1       2.709   7.261  18.762  0.00  0.00    +0.000 N 
ATOM      2  C   UNL     1       2.350   8.445  18.123  0.00  0.00    +0.000 C 
ATOM      3  O   UNL     1       2.622   8.765  16.971  0.00  0.00    +0.000 OA
ATOM      4  H   UNL     1       2.495   7.172  19.748  0.00  0.00    +0.000 HD
ENDROOT
BRANCH   2   5
ATOM      5  C   UNL     1       1.561   9.441  18.881  0.00  0.00    +0.000 A 
ATOM      6  C   UNL     1       0.808   9.001  19.983  0.00  0.00    +0.000 A 
ATOM      7  C   UNL     1       0.174   9.910  20.833  0.00  0.00    +0.000 A 
ATOM      8  N   UNL     1       0.238  11.252  20.635  0.00  0.00    +0.000 NA
ATOM      9  C   UNL     1       0.984  11.641  19.579  0.00  0.00    +0.000 A 
ATOM     10  C   UNL     1       1.655  10.820  18.679  0.00  0.00    +0.000 A 
ATOM     11  C   UNL     1       2.325  11.715  17.822  0.00  0.00    +0.000 A 
ATOM     12  N   UNL     1       2.070  12.994  18.101  0.00  0.00    +0.000 NA
ATOM     13  N   UNL     1       1.276  12.930  19.200  0.00  0.00    +0.000 N 
BRANCH   7  14
ATOM     14  C   UNL     1      -0.534   9.393  22.072  0.00  0.00    +0.000 C 
ATOM     15  C   UNL     1      -0.946  10.340  23.178  0.00  0.00    +0.000 C 
ATOM     16  C   UNL     1       0.164   9.361  23.411  0.00  0.00    +0.000 C 
ENDBRANCH   7  14
BRANCH  13  17
ATOM     17  C   UNL     1       0.877  14.161  19.874  0.00  0.00    +0.000 C 
ATOM     18  C   UNL     1       2.080  15.080  20.111  0.00  0.00    +0.000 C 
ATOM     19  C   UNL     1      -0.216  14.889  19.090  0.00  0.00    +0.000 C 
ENDBRANCH  13  17
ENDBRANCH   2   5
BRANCH   1  26
ATOM     20  C   UNL     1       1.366   4.650  18.284  0.00  0.00    +0.000 C 
ATOM     21  C   UNL     1       2.806   4.932  17.945  0.00  0.00    +0.000 A 
ATOM     22  C   UNL     1       3.542   3.880  17.353  0.00  0.00    +0.000 A 
ATOM     23  C   UNL     1       4.881   4.037  17.003  0.00  0.00    +0.000 A 
ATOM     24  C   UNL     1       5.493   5.261  17.234  0.00  0.00    +0.000 A 
ATOM     25  C   UNL     1       4.781   6.318  17.808  0.00  0.00    +0.000 A 
ATOM     26  C   UNL     1       3.433   6.180  18.172  0.00  0.00    +0.000 A 
BRANCH  24  27
ATOM     27  S   UNL     1       7.212   5.491  16.856  0.00  0.00    +0.000 S 
ATOM     28  C   UNL     1       7.664   6.972  17.722  0.00  0.00    +0.000 C 
ATOM     29  O   UNL     1       7.932   4.373  17.439  0.00  0.00    +0.000 OA
ATOM     30  O   UNL     1       7.313   5.773  15.436  0.00  0.00    +0.000 OA
ENDBRANCH  24  27
ENDBRANCH   1  26
TORSDOF 5
ENDMDL
MODEL 3
REMARK VINA RESULT:      -8.5      2.541      3.462
REMARK  Name = 
REMARK  9 active torsions:
REMARK  status: ('A' for Active; 'I' for Inactive)
REMARK    1  A    between atoms: C_1  and  C_2
REMARK    2  A    between atoms: C_5  and  S_6
REMARK    3  A    between atoms: S_6  and  C_7
REMARK    4  A    between atoms: C_11  and  N_12
REMARK    5  A    between atoms: C_13  and  C_15
REMARK    6  A    between atoms: C_17  and  C_18
REMARK    7  A    between atoms: N_26  and  C_27
REMARK    8  A    between atoms: C_27  and  C_28
REMARK    9  A    between atoms: C_27  and  C_29
REMARK                            x       y       z     vdW  Elec       q    Type
REMARK                         _______ _______ _______ _____ _____    ______ ____
ROOT
ATOM      1  N   UNL     1       2.687   7.211  18.764  0.00  0.00    +0.000 N 
ATOM      2  C   UNL     1       2.290   8.380  18.122  0.00  0.00    +0.000 C 
ATOM      3  O   UNL     1       2.489   8.672  16.948  0.00  0.00    +0.000 OA
ATOM      4  H   UNL     1       2.536   7.146  19.763  0.00  0.00    +0.000 HD
ENDROOT
BRANCH   2   5
ATOM      5  C   UNL     1       1.555   9.398  18.905  0.00  0.00    +0.000 A 
ATOM      6  C   UNL     1       0.800   8.974  20.011  0.00  0.00    +0.000 A 
ATOM      7  C   UNL     1       0.216   9.896  20.883  0.00  0.00    +0.000 A 
ATOM      8  N   UNL     1       0.334  11.236  20.704  0.00  0.00    +0.000 NA
ATOM      9  C   UNL     1       1.081  11.610  19.642  0.00  0.00    +0.000 A 
ATOM     10  C   UNL     1       1.705  10.775  18.721  0.00  0.00    +0.000 A 
ATOM     11  C   UNL     1       2.400  11.653  17.867  0.00  0.00    +0.000 A 
ATOM     12  N   UNL     1       2.203  12.938  18.168  0.00  0.00    +0.000 NA
ATOM     13  N   UNL     1       1.422  12.890  19.278  0.00  0.00    +0.000 N 
BRANCH   7  14
ATOM     14  C   UNL     1      -0.496   9.391  22.125  0.00  0.00    +0.000 C 
ATOM     15  C   UNL     1      -0.961  10.355  23.195  0.00  0.00    +0.000 C 
ATOM     16  C   UNL     1       0.179   9.423  23.476  0.00  0.00    +0.000 C 
ENDBRANCH   7  14
BRANCH  13  17
ATOM     17  C   UNL     1       1.085  14.127  19.975  0.00  0.00    +0.000 C 
ATOM     18  C   UNL     1       2.018  14.367  21.166  0.00  0.00    +0.000 C 
ATOM     19  C   UNL     1       1.107  15.321  19.019  0.00  0.00    +0.000 C 
ENDBRANCH  13  17
ENDBRANCH   2   5
BRANCH   1  26
ATOM     20  C   UNL     1       1.341   4.569  18.519  0.00  0.00    +0.000 C 
ATOM     21  C   UNL     1       2.740   4.851  18.037  0.00  0.00    +0.000 A 
ATOM     22  C   UNL     1       3.432   3.782  17.423  0.00  0.00    +0.000 A 
ATOM     23  C   UNL     1       4.731   3.937  16.945  0.00  0.00    +0.000 A 
ATOM     24  C   UNL     1       5.345   5.175  17.069  0.00  0.00    +0.000 A 
ATOM     25  C   UNL     1       4.675   6.248  17.663  0.00  0.00    +0.000 A 
ATOM     26  C   UNL     1       3.368   6.113  18.154  0.00  0.00    +0.000 A 
BRANCH  24  27
ATOM     27  S   UNL     1       7.020   5.406  16.525  0.00  0.00    +0.000 S 
ATOM     28  C   UNL     1       7.019   4.860  14.837  0.00  0.00    +0.000 C 
ATOM     29  O   UNL     1       7.285   6.832  16.553  0.00  0.00    +0.000 OA
ATOM     30  O   UNL     1       7.853   4.486  17.276  0.00  0.00    +0.000 OA
ENDBRANCH  24  27
ENDBRANCH   1  26
TORSDOF 5
ENDMDL
MODEL 4
REMARK VINA RESULT:      -8.5      0.840      1.031
REMARK  Name = 
REMARK  9 active torsions:
REMARK  status: ('A' for Active; 'I' for Inactive)
REMARK    1  A    between atoms: C_1  and  C_2
REMARK    2  A    between atoms: C_5  and  S_6
REMARK    3  A    between atoms: S_6  and  C_7
REMARK    4  A    between atoms: C_11  and  N_12
REMARK    5  A    between atoms: C_13  and  C_15
REMARK    6  A    between atoms: C_17  and  C_18
REMARK    7  A    between atoms: N_26  and  C_27
REMARK    8  A    between atoms: C_27  and  C_28
REMARK    9  A    between atoms: C_27  and  C_29
REMARK                            x       y       z     vdW  Elec       q    Type
REMARK                         _______ _______ _______ _____ _____    ______ ____
ROOT
ATOM      1  N   UNL     1       1.851   7.694  19.087  0.00  0.00    +0.000 N 
ATOM      2  C   UNL     1       1.704   8.813  18.272  0.00  0.00    +0.000 C 
ATOM      3  O   UNL     1       2.358   9.077  17.269  0.00  0.00    +0.000 OA
ATOM      4  H   UNL     1       1.303   7.653  19.937  0.00  0.00    +0.000 HD
ENDROOT
BRANCH   2   5
ATOM      5  C   UNL     1       0.664   9.805  18.621  0.00  0.00    +0.000 A 
ATOM      6  C   UNL     1      -0.360  10.057  17.693  0.00  0.00    +0.000 A 
ATOM      7  C   UNL     1      -1.454  10.858  18.025  0.00  0.00    +0.000 A 
ATOM      8  N   UNL     1      -1.582  11.440  19.244  0.00  0.00    +0.000 NA
ATOM      9  C   UNL     1      -0.590  11.163  20.119  0.00  0.00    +0.000 A 
ATOM     10  C   UNL     1       0.535  10.379  19.889  0.00  0.00    +0.000 A 
ATOM     11  C   UNL     1       1.205  10.357  21.128  0.00  0.00    +0.000 A 
ATOM     12  N   UNL     1       0.605  11.100  22.059  0.00  0.00    +0.000 NA
ATOM     13  N   UNL     1      -0.510  11.557  21.433  0.00  0.00    +0.000 N 
BRANCH   7  14
ATOM     14  C   UNL     1      -2.589  11.010  17.027  0.00  0.00    +0.000 C 
ATOM     15  C   UNL     1      -3.779  10.076  17.063  0.00  0.00    +0.000 C 
ATOM     16  C   UNL     1      -2.802   9.995  15.930  0.00  0.00    +0.000 C 
ENDBRANCH   7  14
BRANCH  13  17
ATOM     17  C   UNL     1      -1.492  12.330  22.186  0.00  0.00    +0.000 C 
ATOM     18  C   UNL     1      -2.110  11.497  23.313  0.00  0.00    +0.000 C 
ATOM     19  C   UNL     1      -0.876  13.617  22.737  0.00  0.00    +0.000 C 
ENDBRANCH  13  17
ENDBRANCH   2   5
BRANCH   1  26
ATOM     20  C   UNL     1       1.657   5.214  20.720  0.00  0.00    +0.000 C 
ATOM     21  C   UNL     1       2.694   5.441  19.652  0.00  0.00    +0.000 A 
ATOM     22  C   UNL     1       3.614   4.393  19.420  0.00  0.00    +0.000 A 
ATOM     23  C   UNL     1       4.613   4.504  18.457  0.00  0.00    +0.000 A 
ATOM     24  C   UNL     1       4.692   5.667  17.705  0.00  0.00    +0.000 A 
ATOM     25  C   UNL     1       3.786   6.711  17.910  0.00  0.00    +0.000 A 
ATOM     26  C   UNL     1       2.774   6.623  18.878  0.00  0.00    +0.000 A 
BRANCH  24  27
ATOM     27  S   UNL     1       5.982   5.876  16.504  0.00  0.00    +0.000 S 
ATOM     28  C   UNL     1       7.233   6.805  17.351  0.00  0.00    +0.000 C 
ATOM     29  O   UNL     1       6.505   4.556  16.205  0.00  0.00    +0.000 OA
ATOM     30  O   UNL     1       5.460   6.720  15.444  0.00  0.00    +0.000 OA
ENDBRANCH  24  27
ENDBRANCH   1  26
TORSDOF 5
ENDMDL
MODEL 5
REMARK VINA RESULT:      -8.4      3.226      8.608
REMARK  Name = 
REMARK  9 active torsions:
REMARK  status: ('A' for Active; 'I' for Inactive)
REMARK    1  A    between atoms: C_1  and  C_2
REMARK    2  A    between atoms: C_5  and  S_6
REMARK    3  A    between atoms: S_6  and  C_7
REMARK    4  A    between atoms: C_11  and  N_12
REMARK    5  A    between atoms: C_13  and  C_15
REMARK    6  A    between atoms: C_17  and  C_18
REMARK    7  A    between atoms: N_26  and  C_27
REMARK    8  A    between atoms: C_27  and  C_28
REMARK    9  A    between atoms: C_27  and  C_29
REMARK                            x       y       z     vdW  Elec       q    Type
REMARK                         _______ _______ _______ _____ _____    ______ ____
ROOT
ATOM      1  N   UNL     1       1.181   9.172  19.243  0.00  0.00    +0.000 N 
ATOM      2  C   UNL     1       2.006   8.731  18.212  0.00  0.00    +0.000 C 
ATOM      3  O   UNL     1       2.310   9.356  17.202  0.00  0.00    +0.000 OA
ATOM      4  H   UNL     1       0.942   8.511  19.971  0.00  0.00    +0.000 HD
ENDROOT
BRANCH   2   5
ATOM      5  C   UNL     1       2.592   7.376  18.311  0.00  0.00    +0.000 A 
ATOM      6  C   UNL     1       1.821   6.354  18.889  0.00  0.00    +0.000 A 
ATOM      7  C   UNL     1       2.250   5.025  18.865  0.00  0.00    +0.000 A 
ATOM      8  N   UNL     1       3.428   4.654  18.302  0.00  0.00    +0.000 NA
ATOM      9  C   UNL     1       4.135   5.658  17.739  0.00  0.00    +0.000 A 
ATOM     10  C   UNL     1       3.796   7.007  17.705  0.00  0.00    +0.000 A 
ATOM     11  C   UNL     1       4.823   7.607  16.952  0.00  0.00    +0.000 A 
ATOM     12  N   UNL     1       5.770   6.744  16.580  0.00  0.00    +0.000 NA
ATOM     13  N   UNL     1       5.314   5.551  17.040  0.00  0.00    +0.000 N 
BRANCH   7  14
ATOM     14  C   UNL     1       1.332   3.942  19.404  0.00  0.00    +0.000 C 
ATOM     15  C   UNL     1       1.367   3.557  20.867  0.00  0.00    +0.000 C 
ATOM     16  C   UNL     1       1.878   2.601  19.832  0.00  0.00    +0.000 C 
ENDBRANCH   7  14
BRANCH  13  17
ATOM     17  C   UNL     1       6.043   4.329  16.719  0.00  0.00    +0.000 C 
ATOM     18  C   UNL     1       5.929   3.988  15.230  0.00  0.00    +0.000 C 
ATOM     19  C   UNL     1       7.509   4.436  17.140  0.00  0.00    +0.000 C 
ENDBRANCH  13  17
ENDBRANCH   2   5
BRANCH   1  26
ATOM     20  C   UNL     1      -1.241   9.780  17.623  0.00  0.00    +0.000 C 
ATOM     21  C   UNL     1      -0.584  10.760  18.559  0.00  0.00    +0.000 A 
ATOM     22  C   UNL     1      -1.178  12.038  18.666  0.00  0.00    +0.000 A 
ATOM     23  C   UNL     1      -0.648  13.018  19.501  0.00  0.00    +0.000 A 
ATOM     24  C   UNL     1       0.483  12.719  20.248  0.00  0.00    +0.000 A 
ATOM     25  C   UNL     1       1.080  11.459  20.165  0.00  0.00    +0.000 A 
ATOM     26  C   UNL     1       0.565  10.458  19.328  0.00  0.00    +0.000 A 
BRANCH  24  27
ATOM     27  S   UNL     1       1.227  13.954  21.285  0.00  0.00    +0.000 S 
ATOM     28  C   UNL     1       1.073  15.461  20.363  0.00  0.00    +0.000 C 
ATOM     29  O   UNL     1       0.414  14.055  22.482  0.00  0.00    +0.000 OA
ATOM     30  O   UNL     1       2.643  13.648  21.379  0.00  0.00    +0.000 OA
ENDBRANCH  24  27
ENDBRANCH   1  26
TORSDOF 5
ENDMDL
MODEL 6
REMARK VINA RESULT:      -8.4      3.439      8.362
REMARK  Name = 
REMARK  9 active torsions:
REMARK  status: ('A' for Active; 'I' for Inactive)
REMARK    1  A    between atoms: C_1  and  C_2
REMARK    2  A    between atoms: C_5  and  S_6
REMARK    3  A    between atoms: S_6  and  C_7
REMARK    4  A    between atoms: C_11  and  N_12
REMARK    5  A    between atoms: C_13  and  C_15
REMARK    6  A    between atoms: C_17  and  C_18
REMARK    7  A    between atoms: N_26  and  C_27
REMARK    8  A    between atoms: C_27  and  C_28
REMARK    9  A    between atoms: C_27  and  C_29
REMARK                            x       y       z     vdW  Elec       q    Type
REMARK                         _______ _______ _______ _____ _____    ______ ____
ROOT
ATOM      1  N   UNL     1       1.612   8.598  20.122  0.00  0.00    +0.000 N 
ATOM      2  C   UNL     1       1.884   8.114  18.846  0.00  0.00    +0.000 C 
ATOM      3  O   UNL     1       1.531   8.615  17.784  0.00  0.00    +0.000 OA
ATOM      4  H   UNL     1       1.888   8.029  20.912  0.00  0.00    +0.000 HD
ENDROOT
BRANCH   2   5
ATOM      5  C   UNL     1       2.673   6.870  18.719  0.00  0.00    +0.000 A 
ATOM      6  C   UNL     1       2.244   5.730  19.421  0.00  0.00    +0.000 A 
ATOM      7  C   UNL     1       2.849   4.488  19.218  0.00  0.00    +0.000 A 
ATOM      8  N   UNL     1       3.881   4.317  18.353  0.00  0.00    +0.000 NA
ATOM      9  C   UNL     1       4.256   5.427  17.682  0.00  0.00    +0.000 A 
ATOM     10  C   UNL     1       3.719   6.705  17.807  0.00  0.00    +0.000 A 
ATOM     11  C   UNL     1       4.411   7.471  16.849  0.00  0.00    +0.000 A 
ATOM     12  N   UNL     1       5.346   6.775  16.201  0.00  0.00    +0.000 NA
ATOM     13  N   UNL     1       5.213   5.519  16.699  0.00  0.00    +0.000 N 
BRANCH   7  14
ATOM     14  C   UNL     1       2.279   3.266  19.916  0.00  0.00    +0.000 C 
ATOM     15  C   UNL     1       0.895   2.757  19.573  0.00  0.00    +0.000 C 
ATOM     16  C   UNL     1       1.146   3.393  20.907  0.00  0.00    +0.000 C 
ENDBRANCH   7  14
BRANCH  13  17
ATOM     17  C   UNL     1       6.010   4.433  16.138  0.00  0.00    +0.000 C 
ATOM     18  C   UNL     1       6.049   4.505  14.608  0.00  0.00    +0.000 C 
ATOM     19  C   UNL     1       7.425   4.432  16.717  0.00  0.00    +0.000 C 
ENDBRANCH  13  17
ENDBRANCH   2   5
BRANCH   1  26
ATOM     20  C   UNL     1      -0.436   8.615  22.281  0.00  0.00    +0.000 C 
ATOM     21  C   UNL     1      -0.079   9.818  21.447  0.00  0.00    +0.000 A 
ATOM     22  C   UNL     1      -0.764  11.021  21.734  0.00  0.00    +0.000 A 
ATOM     23  C   UNL     1      -0.510  12.189  21.020  0.00  0.00    +0.000 A 
ATOM     24  C   UNL     1       0.447  12.164  20.015  0.00  0.00    +0.000 A 
ATOM     25  C   UNL     1       1.144  10.988  19.723  0.00  0.00    +0.000 A 
ATOM     26  C   UNL     1       0.901   9.799  20.426  0.00  0.00    +0.000 A 
BRANCH  24  27
ATOM     27  S   UNL     1       0.765  13.614  19.041  0.00  0.00    +0.000 S 
ATOM     28  C   UNL     1       2.230  13.220  18.122  0.00  0.00    +0.000 C 
ATOM     29  O   UNL     1      -0.342  13.758  18.114  0.00  0.00    +0.000 OA
ATOM     30  O   UNL     1       1.105  14.688  19.956  0.00  0.00    +0.000 OA
ENDBRANCH  24  27
ENDBRANCH   1  26
TORSDOF 5
ENDMDL
MODEL 7
REMARK VINA RESULT:      -8.3      3.105      8.603
REMARK  Name = 
REMARK  9 active torsions:
REMARK  status: ('A' for Active; 'I' for Inactive)
REMARK    1  A    between atoms: C_1  and  C_2
REMARK    2  A    between atoms: C_5  and  S_6
REMARK    3  A    between atoms: S_6  and  C_7
REMARK    4  A    between atoms: C_11  and  N_12
REMARK    5  A    between atoms: C_13  and  C_15
REMARK    6  A    between atoms: C_17  and  C_18
REMARK    7  A    between atoms: N_26  and  C_27
REMARK    8  A    between atoms: C_27  and  C_28
REMARK    9  A    between atoms: C_27  and  C_29
REMARK                            x       y       z     vdW  Elec       q    Type
REMARK                         _______ _______ _______ _____ _____    ______ ____
ROOT
ATOM      1  N   UNL     1       1.399   8.230  20.261  0.00  0.00    +0.000 N 
ATOM      2  C   UNL     1       1.980   7.924  19.034  0.00  0.00    +0.000 C 
ATOM      3  O   UNL     1       1.850   8.550  17.987  0.00  0.00    +0.000 OA
ATOM      4  H   UNL     1       1.520   7.570  21.018  0.00  0.00    +0.000 HD
ENDROOT
BRANCH   2   5
ATOM      5  C   UNL     1       2.849   6.730  18.945  0.00  0.00    +0.000 A 
ATOM      6  C   UNL     1       2.542   5.618  19.747  0.00  0.00    +0.000 A 
ATOM      7  C   UNL     1       3.222   4.408  19.594  0.00  0.00    +0.000 A 
ATOM      8  N   UNL     1       4.214   4.245  18.682  0.00  0.00    +0.000 NA
ATOM      9  C   UNL     1       4.471   5.327  17.915  0.00  0.00    +0.000 A 
ATOM     10  C   UNL     1       3.852   6.571  17.985  0.00  0.00    +0.000 A 
ATOM     11  C   UNL     1       4.434   7.311  16.937  0.00  0.00    +0.000 A 
ATOM     12  N   UNL     1       5.380   6.634  16.284  0.00  0.00    +0.000 NA
ATOM     13  N   UNL     1       5.364   5.412  16.874  0.00  0.00    +0.000 N 
BRANCH   7  14
ATOM     14  C   UNL     1       2.780   3.203  20.406  0.00  0.00    +0.000 C 
ATOM     15  C   UNL     1       1.826   2.185  19.820  0.00  0.00    +0.000 C 
ATOM     16  C   UNL     1       1.365   3.089  20.921  0.00  0.00    +0.000 C 
ENDBRANCH   7  14
BRANCH  13  17
ATOM     17  C   UNL     1       6.205   4.344  16.341  0.00  0.00    +0.000 C 
ATOM     18  C   UNL     1       6.242   4.377  14.810  0.00  0.00    +0.000 C 
ATOM     19  C   UNL     1       7.618   4.415  16.920  0.00  0.00    +0.000 C 
ENDBRANCH  13  17
ENDBRANCH   2   5
BRANCH   1  26
ATOM     20  C   UNL     1       1.154   9.268  23.038  0.00  0.00    +0.000 C 
ATOM     21  C   UNL     1       0.441   9.859  21.851  0.00  0.00    +0.000 A 
ATOM     22  C   UNL     1      -0.381  10.983  22.094  0.00  0.00    +0.000 A 
ATOM     23  C   UNL     1      -1.087  11.603  21.065  0.00  0.00    +0.000 A 
ATOM     24  C   UNL     1      -0.963  11.106  19.776  0.00  0.00    +0.000 A 
ATOM     25  C   UNL     1      -0.147  10.002  19.512  0.00  0.00    +0.000 A 
ATOM     26  C   UNL     1       0.568   9.360  20.533  0.00  0.00    +0.000 A 
BRANCH  24  27
ATOM     27  S   UNL     1      -1.885  11.828  18.441  0.00  0.00    +0.000 S 
ATOM     28  C   UNL     1      -1.971  10.550  17.215  0.00  0.00    +0.000 C 
ATOM     29  O   UNL     1      -3.224  12.088  18.938  0.00  0.00    +0.000 OA
ATOM     30  O   UNL     1      -1.082  12.904  17.888  0.00  0.00    +0.000 OA
ENDBRANCH  24  27
ENDBRANCH   1  26
TORSDOF 5
ENDMDL
MODEL 8
REMARK VINA RESULT:      -8.3      3.219      8.723
REMARK  Name = 
REMARK  9 active torsions:
REMARK  status: ('A' for Active; 'I' for Inactive)
REMARK    1  A    between atoms: C_1  and  C_2
REMARK    2  A    between atoms: C_5  and  S_6
REMARK    3  A    between atoms: S_6  and  C_7
REMARK    4  A    between atoms: C_11  and  N_12
REMARK    5  A    between atoms: C_13  and  C_15
REMARK    6  A    between atoms: C_17  and  C_18
REMARK    7  A    between atoms: N_26  and  C_27
REMARK    8  A    between atoms: C_27  and  C_28
REMARK    9  A    between atoms: C_27  and  C_29
REMARK                            x       y       z     vdW  Elec       q    Type
REMARK                         _______ _______ _______ _____ _____    ______ ____
ROOT
ATOM      1  N   UNL     1       0.836   8.993  19.182  0.00  0.00    +0.000 N 
ATOM      2  C   UNL     1       1.849   8.651  18.291  0.00  0.00    +0.000 C 
ATOM      3  O   UNL     1       2.136   9.233  17.251  0.00  0.00    +0.000 OA
ATOM      4  H   UNL     1       0.653   8.365  19.954  0.00  0.00    +0.000 HD
ENDROOT
BRANCH   2   5
ATOM      5  C   UNL     1       2.684   7.468  18.597  0.00  0.00    +0.000 A 
ATOM      6  C   UNL     1       2.294   6.630  19.656  0.00  0.00    +0.000 A 
ATOM      7  C   UNL     1       2.944   5.417  19.892  0.00  0.00    +0.000 A 
ATOM      8  N   UNL     1       3.983   4.991  19.129  0.00  0.00    +0.000 NA
ATOM      9  C   UNL     1       4.320   5.811  18.110  0.00  0.00    +0.000 A 
ATOM     10  C   UNL     1       3.736   7.032  17.789  0.00  0.00    +0.000 A 
ATOM     11  C   UNL     1       4.403   7.441  16.617  0.00  0.00    +0.000 A 
ATOM     12  N   UNL     1       5.364   6.596  16.242  0.00  0.00    +0.000 NA
ATOM     13  N   UNL     1       5.275   5.588  17.147  0.00  0.00    +0.000 N 
BRANCH   7  14
ATOM     14  C   UNL     1       2.417   4.495  20.977  0.00  0.00    +0.000 C 
ATOM     15  C   UNL     1       2.546   2.993  20.844  0.00  0.00    +0.000 C 
ATOM     16  C   UNL     1       1.197   3.636  20.743  0.00  0.00    +0.000 C 
ENDBRANCH   7  14
BRANCH  13  17
ATOM     17  C   UNL     1       6.112   4.403  16.990  0.00  0.00    +0.000 C 
ATOM     18  C   UNL     1       6.133   3.925  15.535  0.00  0.00    +0.000 C 
ATOM     19  C   UNL     1       7.532   4.660  17.498  0.00  0.00    +0.000 C 
ENDBRANCH  13  17
ENDBRANCH   2   5
BRANCH   1  26
ATOM     20  C   UNL     1       1.548  11.576  20.477  0.00  0.00    +0.000 C 
ATOM     21  C   UNL     1       0.291  11.352  19.678  0.00  0.00    +0.000 A 
ATOM     22  C   UNL     1      -0.584  12.453  19.540  0.00  0.00    +0.000 A 
ATOM     23  C   UNL     1      -1.773  12.350  18.823  0.00  0.00    +0.000 A 
ATOM     24  C   UNL     1      -2.092  11.139  18.227  0.00  0.00    +0.000 A 
ATOM     25  C   UNL     1      -1.236  10.040  18.342  0.00  0.00    +0.000 A 
ATOM     26  C   UNL     1      -0.035  10.120  19.062  0.00  0.00    +0.000 A 
BRANCH  24  27
ATOM     27  S   UNL     1      -3.624  10.944  17.350  0.00  0.00    +0.000 S 
ATOM     28  C   UNL     1      -3.159  10.932  15.638  0.00  0.00    +0.000 C 
ATOM     29  O   UNL     1      -4.152   9.638  17.698  0.00  0.00    +0.000 OA
ATOM     30  O   UNL     1      -4.411  12.142  17.576  0.00  0.00    +0.000 OA
ENDBRANCH  24  27
ENDBRANCH   1  26
TORSDOF 5
ENDMDL
MODEL 9
REMARK VINA RESULT:      -8.3      3.201      8.572
REMARK  Name = 
REMARK  9 active torsions:
REMARK  status: ('A' for Active; 'I' for Inactive)
REMARK    1  A    between atoms: C_1  and  C_2
REMARK    2  A    between atoms: C_5  and  S_6
REMARK    3  A    between atoms: S_6  and  C_7
REMARK    4  A    between atoms: C_11  and  N_12
REMARK    5  A    between atoms: C_13  and  C_15
REMARK    6  A    between atoms: C_17  and  C_18
REMARK    7  A    between atoms: N_26  and  C_27
REMARK    8  A    between atoms: C_27  and  C_28
REMARK    9  A    between atoms: C_27  and  C_29
REMARK                            x       y       z     vdW  Elec       q    Type
REMARK                         _______ _______ _______ _____ _____    ______ ____
ROOT
ATOM      1  N   UNL     1       1.652   8.302  19.624  0.00  0.00    +0.000 N 
ATOM      2  C   UNL     1       2.276   8.213  18.383  0.00  0.00    +0.000 C 
ATOM      3  O   UNL     1       2.133   8.980  17.438  0.00  0.00    +0.000 OA
ATOM      4  H   UNL     1       1.793   7.543  20.279  0.00  0.00    +0.000 HD
ENDROOT
BRANCH   2   5
ATOM      5  C   UNL     1       3.210   7.091  18.145  0.00  0.00    +0.000 A 
ATOM      6  C   UNL     1       4.507   7.385  17.691  0.00  0.00    +0.000 A 
ATOM      7  C   UNL     1       5.483   6.390  17.601  0.00  0.00    +0.000 A 
ATOM      8  N   UNL     1       5.232   5.098  17.931  0.00  0.00    +0.000 NA
ATOM      9  C   UNL     1       3.982   4.853  18.380  0.00  0.00    +0.000 A 
ATOM     10  C   UNL     1       2.943   5.769  18.510  0.00  0.00    +0.000 A 
ATOM     11  C   UNL     1       1.890   5.026  19.078  0.00  0.00    +0.000 A 
ATOM     12  N   UNL     1       2.194   3.738  19.249  0.00  0.00    +0.000 NA
ATOM     13  N   UNL     1       3.489   3.659  18.849  0.00  0.00    +0.000 N 
BRANCH   7  14
ATOM     14  C   UNL     1       6.899   6.777  17.212  0.00  0.00    +0.000 C 
ATOM     15  C   UNL     1       7.962   6.979  18.270  0.00  0.00    +0.000 C 
ATOM     16  C   UNL     1       7.438   8.157  17.506  0.00  0.00    +0.000 C 
ENDBRANCH   7  14
BRANCH  13  17
ATOM     17  C   UNL     1       4.213   2.401  19.000  0.00  0.00    +0.000 C 
ATOM     18  C   UNL     1       4.427   2.056  20.477  0.00  0.00    +0.000 C 
ATOM     19  C   UNL     1       3.496   1.262  18.275  0.00  0.00    +0.000 C 
ENDBRANCH  13  17
ENDBRANCH   2   5
BRANCH   1  26
ATOM     20  C   UNL     1       1.643   9.231  22.451  0.00  0.00    +0.000 C 
ATOM     21  C   UNL     1       0.739   9.781  21.380  0.00  0.00    +0.000 A 
ATOM     22  C   UNL     1      -0.152  10.810  21.761  0.00  0.00    +0.000 A 
ATOM     23  C   UNL     1      -1.032  11.384  20.847  0.00  0.00    +0.000 A 
ATOM     24  C   UNL     1      -1.017  10.939  19.534  0.00  0.00    +0.000 A 
ATOM     25  C   UNL     1      -0.136   9.930  19.132  0.00  0.00    +0.000 A 
ATOM     26  C   UNL     1       0.755   9.335  20.037  0.00  0.00    +0.000 A 
BRANCH  24  27
ATOM     27  S   UNL     1      -2.158  11.602  18.346  0.00  0.00    +0.000 S 
ATOM     28  C   UNL     1      -2.738  10.188  17.446  0.00  0.00    +0.000 C 
ATOM     29  O   UNL     1      -3.268  12.169  19.089  0.00  0.00    +0.000 OA
ATOM     30  O   UNL     1      -1.397  12.421  17.420  0.00  0.00    +0.000 OA
ENDBRANCH  24  27
ENDBRANCH   1  26
TORSDOF 5
ENDMDL
