MODEL 1
REMARK VINA RESULT:      -8.3      0.000      0.000
REMARK  Name = 
REMARK  4 active torsions:
REMARK  status: ('A' for Active; 'I' for Inactive)
REMARK    1  A    between atoms: C_2  and  C_3
REMARK    2  A    between atoms: C_3  and  N_4
REMARK    3  A    between atoms: N_13  and  C_14
REMARK    4  A    between atoms: C_18  and  N_19
REMARK                            x       y       z     vdW  Elec       q    Type
REMARK                         _______ _______ _______ _____ _____    ______ ____
ROOT
ATOM      1  O   UNL     1       1.534   8.596  18.178  0.00  0.00    +0.000 OA
ATOM      2  C   UNL     1       1.505   8.768  19.399  0.00  0.00    +0.000 C 
ATOM      3  N   UNL     1       1.830   7.810  20.338  0.00  0.00    +0.000 N 
ATOM      4  H   UNL     1       1.562   8.018  21.302  0.00  0.00    +0.000 HD
ENDROOT
BRANCH   3   5
ATOM      5  C   UNL     1       2.275   6.493  20.094  0.00  0.00    +0.000 A 
ATOM      6  C   UNL     1       1.676   5.370  20.660  0.00  0.00    +0.000 A 
ATOM      7  C   UNL     1       2.190   4.102  20.406  0.00  0.00    +0.000 A 
ATOM      8  C   UNL     1       3.320   3.950  19.603  0.00  0.00    +0.000 A 
ATOM      9  C   UNL     1       3.940   5.056  19.012  0.00  0.00    +0.000 A 
ATOM     10  C   UNL     1       3.378   6.325  19.238  0.00  0.00    +0.000 A 
BRANCH   9  11
ATOM     11  N   UNL     1       5.110   4.899  18.222  0.00  0.00    +0.000 N 
ATOM     12  C   UNL     1       5.081   4.766  16.785  0.00  0.00    +0.000 C 
ATOM     13  C   UNL     1       6.475   4.283  16.436  0.00  0.00    +0.000 C 
ATOM     14  C   UNL     1       7.348   4.934  17.490  0.00  0.00    +0.000 C 
ATOM     15  C   UNL     1       6.430   5.031  18.685  0.00  0.00    +0.000 C 
ATOM     16  O   UNL     1       6.835   5.265  19.814  0.00  0.00    +0.000 OA
ENDBRANCH   9  11
ENDBRANCH   3   5
BRANCH   2  17
ATOM     17  C   UNL     1       1.186  10.158  19.916  0.00  0.00    +0.000 C 
BRANCH  17  18
ATOM     18  N   UNL     1       0.442  10.283  21.155  0.00  0.00    +0.000 N 
ATOM     19  N   UNL     1       0.880   9.739  22.310  0.00  0.00    +0.000 NA
ATOM     20  N   UNL     1       0.051  10.109  23.274  0.00  0.00    +0.000 NA
ATOM     21  C   UNL     1      -0.893  10.938  22.730  0.00  0.00    +0.000 A 
ATOM     22  C   UNL     1      -1.962  11.621  23.323  0.00  0.00    +0.000 A 
ATOM     23  C   UNL     1      -2.765  12.437  22.514  0.00  0.00    +0.000 A 
ATOM     24  C   UNL     1      -2.511  12.562  21.146  0.00  0.00    +0.000 A 
ATOM     25  C   UNL     1      -1.452  11.880  20.536  0.00  0.00    +0.000 A 
ATOM     26  C   UNL     1      -0.665  11.073  21.364  0.00  0.00    +0.000 A 
ENDBRANCH  17  18
ENDBRANCH   2  17
TORSDOF 4
ENDMDL
MODEL 2
REMARK VINA RESULT:      -8.0      1.848      8.751
REMARK  Name = 
REMARK  4 active torsions:
REMARK  status: ('A' for Active; 'I' for Inactive)
REMARK    1  A    between atoms: C_2  and  C_3
REMARK    2  A    between atoms: C_3  and  N_4
REMARK    3  A    between atoms: N_13  and  C_14
REMARK    4  A    between atoms: C_18  and  N_19
REMARK                            x       y       z     vdW  Elec       q    Type
REMARK                         _______ _______ _______ _____ _____    ______ ____
ROOT
ATOM      1  O   UNL     1       2.069   5.360  20.536  0.00  0.00    +0.000 OA
ATOM      2  C   UNL     1       2.933   5.431  19.659  0.00  0.00    +0.000 C 
ATOM      3  N   UNL     1       3.111   6.509  18.814  0.00  0.00    +0.000 N 
ATOM      4  H   UNL     1       3.716   6.350  18.007  0.00  0.00    +0.000 HD
ENDROOT
BRANCH   3   5
ATOM      5  C   UNL     1       2.381   7.717  18.807  0.00  0.00    +0.000 A 
ATOM      6  C   UNL     1       2.325   8.567  17.705  0.00  0.00    +0.000 A 
ATOM      7  C   UNL     1       1.616   9.762  17.780  0.00  0.00    +0.000 A 
ATOM      8  C   UNL     1       0.979  10.127  18.965  0.00  0.00    +0.000 A 
ATOM      9  C   UNL     1       1.008   9.293  20.088  0.00  0.00    +0.000 A 
ATOM     10  C   UNL     1       1.685   8.066  19.979  0.00  0.00    +0.000 A 
BRANCH   9  11
ATOM     11  N   UNL     1       0.384   9.684  21.302  0.00  0.00    +0.000 N 
ATOM     12  C   UNL     1       0.860   9.275  22.602  0.00  0.00    +0.000 C 
ATOM     13  C   UNL     1      -0.283   9.623  23.535  0.00  0.00    +0.000 C 
ATOM     14  C   UNL     1      -0.898  10.852  22.895  0.00  0.00    +0.000 C 
ATOM     15  C   UNL     1      -0.640  10.639  21.423  0.00  0.00    +0.000 C 
ATOM     16  O   UNL     1      -1.204  11.282  20.551  0.00  0.00    +0.000 OA
ENDBRANCH   9  11
ENDBRANCH   3   5
BRANCH   2  17
ATOM     17  C   UNL     1       3.941   4.303  19.556  0.00  0.00    +0.000 C 
BRANCH  17  18
ATOM     18  N   UNL     1       5.216   4.569  18.918  0.00  0.00    +0.000 N 
ATOM     19  N   UNL     1       6.342   4.782  19.630  0.00  0.00    +0.000 NA
ATOM     20  N   UNL     1       7.350   4.887  18.778  0.00  0.00    +0.000 NA
ATOM     21  C   UNL     1       6.861   4.689  17.514  0.00  0.00    +0.000 A 
ATOM     22  C   UNL     1       7.513   4.663  16.275  0.00  0.00    +0.000 A 
ATOM     23  C   UNL     1       6.754   4.405  15.125  0.00  0.00    +0.000 A 
ATOM     24  C   UNL     1       5.376   4.187  15.210  0.00  0.00    +0.000 A 
ATOM     25  C   UNL     1       4.708   4.219  16.440  0.00  0.00    +0.000 A 
ATOM     26  C   UNL     1       5.488   4.477  17.571  0.00  0.00    +0.000 A 
ENDBRANCH  17  18
ENDBRANCH   2  17
TORSDOF 4
ENDMDL
MODEL 3
REMARK VINA RESULT:      -8.0      3.291      8.712
REMARK  Name = 
REMARK  4 active torsions:
REMARK  status: ('A' for Active; 'I' for Inactive)
REMARK    1  A    between atoms: C_2  and  C_3
REMARK    2  A    between atoms: C_3  and  N_4
REMARK    3  A    between atoms: N_13  and  C_14
REMARK    4  A    between atoms: C_18  and  N_19
REMARK                            x       y       z     vdW  Elec       q    Type
REMARK                         _______ _______ _______ _____ _____    ______ ____
ROOT
ATOM      1  O   UNL     1       0.668   8.971  21.615  0.00  0.00    +0.000 OA
ATOM      2  C   UNL     1       1.223   8.507  20.616  0.00  0.00    +0.000 C 
ATOM      3  N   UNL     1       1.223   9.097  19.368  0.00  0.00    +0.000 N 
ATOM      4  H   UNL     1       1.535   8.509  18.594  0.00  0.00    +0.000 HD
ENDROOT
BRANCH   3   5
ATOM      5  C   UNL     1       0.632  10.327  19.007  0.00  0.00    +0.000 A 
ATOM      6  C   UNL     1       1.305  11.544  19.073  0.00  0.00    +0.000 A 
ATOM      7  C   UNL     1       0.650  12.725  18.738  0.00  0.00    +0.000 A 
ATOM      8  C   UNL     1      -0.691  12.699  18.356  0.00  0.00    +0.000 A 
ATOM      9  C   UNL     1      -1.395  11.493  18.270  0.00  0.00    +0.000 A 
ATOM     10  C   UNL     1      -0.703  10.305  18.564  0.00  0.00    +0.000 A 
BRANCH   9  11
ATOM     11  N   UNL     1      -2.769  11.475  17.912  0.00  0.00    +0.000 N 
ATOM     12  C   UNL     1      -3.826  11.868  18.813  0.00  0.00    +0.000 C 
ATOM     13  C   UNL     1      -5.086  11.361  18.141  0.00  0.00    +0.000 C 
ATOM     14  C   UNL     1      -4.766  11.472  16.663  0.00  0.00    +0.000 C 
ATOM     15  C   UNL     1      -3.272  11.257  16.618  0.00  0.00    +0.000 C 
ATOM     16  O   UNL     1      -2.668  11.017  15.584  0.00  0.00    +0.000 OA
ENDBRANCH   9  11
ENDBRANCH   3   5
BRANCH   2  17
ATOM     17  C   UNL     1       2.051   7.247  20.781  0.00  0.00    +0.000 C 
BRANCH  17  18
ATOM     18  N   UNL     1       2.246   6.390  19.626  0.00  0.00    +0.000 N 
ATOM     19  N   UNL     1       3.030   6.754  18.590  0.00  0.00    +0.000 NA
ATOM     20  N   UNL     1       3.095   5.732  17.750  0.00  0.00    +0.000 NA
ATOM     21  C   UNL     1       2.384   4.693  18.288  0.00  0.00    +0.000 A 
ATOM     22  C   UNL     1       2.172   3.391  17.818  0.00  0.00    +0.000 A 
ATOM     23  C   UNL     1       1.411   2.513  18.603  0.00  0.00    +0.000 A 
ATOM     24  C   UNL     1       0.868   2.929  19.822  0.00  0.00    +0.000 A 
ATOM     25  C   UNL     1       1.063   4.230  20.301  0.00  0.00    +0.000 A 
ATOM     26  C   UNL     1       1.827   5.085  19.500  0.00  0.00    +0.000 A 
ENDBRANCH  17  18
ENDBRANCH   2  17
TORSDOF 4
ENDMDL
MODEL 4
REMARK VINA RESULT:      -7.9      2.539      3.905
REMARK  Name = 
REMARK  4 active torsions:
REMARK  status: ('A' for Active; 'I' for Inactive)
REMARK    1  A    between atoms: C_2  and  C_3
REMARK    2  A    between atoms: C_3  and  N_4
REMARK    3  A    between atoms: N_13  and  C_14
REMARK    4  A    between atoms: C_18  and  N_19
REMARK                            x       y       z     vdW  Elec       q    Type
REMARK                         _______ _______ _______ _____ _____    ______ ____
ROOT
ATOM      1  O   UNL     1       2.635   6.033  18.552  0.00  0.00    +0.000 OA
ATOM      2  C   UNL     1       3.022   7.111  18.095  0.00  0.00    +0.000 C 
ATOM      3  N   UNL     1       4.236   7.310  17.466  0.00  0.00    +0.000 N 
ATOM      4  H   UNL     1       4.514   8.283  17.328  0.00  0.00    +0.000 HD
ENDROOT
BRANCH   3   5
ATOM      5  C   UNL     1       5.229   6.342  17.204  0.00  0.00    +0.000 A 
ATOM      6  C   UNL     1       6.079   5.838  18.186  0.00  0.00    +0.000 A 
ATOM      7  C   UNL     1       7.062   4.912  17.852  0.00  0.00    +0.000 A 
ATOM      8  C   UNL     1       7.218   4.502  16.528  0.00  0.00    +0.000 A 
ATOM      9  C   UNL     1       6.376   4.981  15.519  0.00  0.00    +0.000 A 
ATOM     10  C   UNL     1       5.356   5.877  15.883  0.00  0.00    +0.000 A 
BRANCH   9  11
ATOM     11  N   UNL     1       6.560   4.584  14.168  0.00  0.00    +0.000 N 
ATOM     12  C   UNL     1       5.607   3.775  13.446  0.00  0.00    +0.000 C 
ATOM     13  C   UNL     1       6.369   3.327  12.213  0.00  0.00    +0.000 C 
ATOM     14  C   UNL     1       7.301   4.490  11.934  0.00  0.00    +0.000 C 
ATOM     15  C   UNL     1       7.567   5.055  13.309  0.00  0.00    +0.000 C 
ATOM     16  O   UNL     1       8.472   5.842  13.538  0.00  0.00    +0.000 OA
ENDBRANCH   9  11
ENDBRANCH   3   5
BRANCH   2  17
ATOM     17  C   UNL     1       2.065   8.287  18.131  0.00  0.00    +0.000 C 
BRANCH  17  18
ATOM     18  N   UNL     1       1.460   8.649  19.398  0.00  0.00    +0.000 N 
ATOM     19  N   UNL     1       1.834   8.073  20.560  0.00  0.00    +0.000 NA
ATOM     20  N   UNL     1       1.188   8.681  21.543  0.00  0.00    +0.000 NA
ATOM     21  C   UNL     1       0.434   9.686  20.999  0.00  0.00    +0.000 A 
ATOM     22  C   UNL     1      -0.397  10.636  21.605  0.00  0.00    +0.000 A 
ATOM     23  C   UNL     1      -1.036  11.582  20.792  0.00  0.00    +0.000 A 
ATOM     24  C   UNL     1      -0.855  11.575  19.406  0.00  0.00    +0.000 A 
ATOM     25  C   UNL     1      -0.035  10.626  18.784  0.00  0.00    +0.000 A 
ATOM     26  C   UNL     1       0.592   9.694  19.617  0.00  0.00    +0.000 A 
ENDBRANCH  17  18
ENDBRANCH   2  17
TORSDOF 4
ENDMDL
MODEL 5
REMARK VINA RESULT:      -7.9      0.923      1.207
REMARK  Name = 
REMARK  4 active torsions:
REMARK  status: ('A' for Active; 'I' for Inactive)
REMARK    1  A    between atoms: C_2  and  C_3
REMARK    2  A    between atoms: C_3  and  N_4
REMARK    3  A    between atoms: N_13  and  C_14
REMARK    4  A    between atoms: C_18  and  N_19
REMARK                            x       y       z     vdW  Elec       q    Type
REMARK                         _______ _______ _______ _____ _____    ______ ____
ROOT
ATOM      1  O   UNL     1       1.450   8.742  17.975  0.00  0.00    +0.000 OA
ATOM      2  C   UNL     1       1.386   8.948  19.190  0.00  0.00    +0.000 C 
ATOM      3  N   UNL     1       1.715   8.025  20.164  0.00  0.00    +0.000 N 
ATOM      4  H   UNL     1       1.418   8.252  21.114  0.00  0.00    +0.000 HD
ENDROOT
BRANCH   3   5
ATOM      5  C   UNL     1       2.202   6.715  19.967  0.00  0.00    +0.000 A 
ATOM      6  C   UNL     1       1.549   5.580  20.442  0.00  0.00    +0.000 A 
ATOM      7  C   UNL     1       2.105   4.320  20.245  0.00  0.00    +0.000 A 
ATOM      8  C   UNL     1       3.330   4.188  19.593  0.00  0.00    +0.000 A 
ATOM      9  C   UNL     1       4.009   5.305  19.096  0.00  0.00    +0.000 A 
ATOM     10  C   UNL     1       3.408   6.566  19.259  0.00  0.00    +0.000 A 
BRANCH   9  11
ATOM     11  N   UNL     1       5.271   5.168  18.460  0.00  0.00    +0.000 N 
ATOM     12  C   UNL     1       6.526   5.386  19.140  0.00  0.00    +0.000 C 
ATOM     13  C   UNL     1       7.540   5.474  18.017  0.00  0.00    +0.000 C 
ATOM     14  C   UNL     1       6.976   4.543  16.961  0.00  0.00    +0.000 C 
ATOM     15  C   UNL     1       5.485   4.642  17.175  0.00  0.00    +0.000 C 
ATOM     16  O   UNL     1       4.670   4.239  16.359  0.00  0.00    +0.000 OA
ENDBRANCH   9  11
ENDBRANCH   3   5
BRANCH   2  17
ATOM     17  C   UNL     1       1.017  10.342  19.660  0.00  0.00    +0.000 C 
BRANCH  17  18
ATOM     18  N   UNL     1       0.331  10.485  20.931  0.00  0.00    +0.000 N 
ATOM     19  N   UNL     1       0.855  10.017  22.083  0.00  0.00    +0.000 NA
ATOM     20  N   UNL     1       0.058  10.390  23.073  0.00  0.00    +0.000 NA
ATOM     21  C   UNL     1      -0.955  11.144  22.544  0.00  0.00    +0.000 A 
ATOM     22  C   UNL     1      -2.027  11.799  23.163  0.00  0.00    +0.000 A 
ATOM     23  C   UNL     1      -2.912  12.536  22.364  0.00  0.00    +0.000 A 
ATOM     24  C   UNL     1      -2.734  12.611  20.979  0.00  0.00    +0.000 A 
ATOM     25  C   UNL     1      -1.673  11.955  20.344  0.00  0.00    +0.000 A 
ATOM     26  C   UNL     1      -0.804  11.228  21.164  0.00  0.00    +0.000 A 
ENDBRANCH  17  18
ENDBRANCH   2  17
TORSDOF 4
ENDMDL
MODEL 6
REMARK VINA RESULT:      -7.8      1.034      1.047
REMARK  Name = 
REMARK  4 active torsions:
REMARK  status: ('A' for Active; 'I' for Inactive)
REMARK    1  A    between atoms: C_2  and  C_3
REMARK    2  A    between atoms: C_3  and  N_4
REMARK    3  A    between atoms: N_13  and  C_14
REMARK    4  A    between atoms: C_18  and  N_19
REMARK                            x       y       z     vdW  Elec       q    Type
REMARK                         _______ _______ _______ _____ _____    ______ ____
ROOT
ATOM      1  O   UNL     1       1.021   8.995  17.784  0.00  0.00    +0.000 OA
ATOM      2  C   UNL     1       1.486   8.984  18.927  0.00  0.00    +0.000 C 
ATOM      3  N   UNL     1       2.116   7.902  19.511  0.00  0.00    +0.000 N 
ATOM      4  H   UNL     1       2.260   7.960  20.521  0.00  0.00    +0.000 HD
ENDROOT
BRANCH   3   5
ATOM      5  C   UNL     1       2.373   6.646  18.923  0.00  0.00    +0.000 A 
ATOM      6  C   UNL     1       1.518   5.554  19.055  0.00  0.00    +0.000 A 
ATOM      7  C   UNL     1       1.851   4.332  18.480  0.00  0.00    +0.000 A 
ATOM      8  C   UNL     1       3.053   4.186  17.788  0.00  0.00    +0.000 A 
ATOM      9  C   UNL     1       3.930   5.264  17.628  0.00  0.00    +0.000 A 
ATOM     10  C   UNL     1       3.554   6.504  18.173  0.00  0.00    +0.000 A 
BRANCH   9  11
ATOM     11  N   UNL     1       5.167   5.102  16.951  0.00  0.00    +0.000 N 
ATOM     12  C   UNL     1       5.386   5.532  15.591  0.00  0.00    +0.000 C 
ATOM     13  C   UNL     1       6.683   4.854  15.197  0.00  0.00    +0.000 C 
ATOM     14  C   UNL     1       7.458   4.795  16.499  0.00  0.00    +0.000 C 
ATOM     15  C   UNL     1       6.371   4.682  17.541  0.00  0.00    +0.000 C 
ATOM     16  O   UNL     1       6.593   4.354  18.697  0.00  0.00    +0.000 OA
ENDBRANCH   9  11
ENDBRANCH   3   5
BRANCH   2  17
ATOM     17  C   UNL     1       1.456  10.275  19.723  0.00  0.00    +0.000 C 
BRANCH  17  18
ATOM     18  N   UNL     1       0.722  10.300  20.974  0.00  0.00    +0.000 N 
ATOM     19  N   UNL     1       1.190   9.703  22.090  0.00  0.00    +0.000 NA
ATOM     20  N   UNL     1       0.362   9.988  23.083  0.00  0.00    +0.000 NA
ATOM     21  C   UNL     1      -0.614  10.817  22.598  0.00  0.00    +0.000 A 
ATOM     22  C   UNL     1      -1.698  11.428  23.241  0.00  0.00    +0.000 A 
ATOM     23  C   UNL     1      -2.536  12.265  22.491  0.00  0.00    +0.000 A 
ATOM     24  C   UNL     1      -2.301  12.480  21.130  0.00  0.00    +0.000 A 
ATOM     25  C   UNL     1      -1.228  11.870  20.471  0.00  0.00    +0.000 A 
ATOM     26  C   UNL     1      -0.407  11.041  21.241  0.00  0.00    +0.000 A 
ENDBRANCH  17  18
ENDBRANCH   2  17
TORSDOF 4
ENDMDL
MODEL 7
REMARK VINA RESULT:      -7.8      1.037      1.261
REMARK  Name = 
REMARK  4 active torsions:
REMARK  status: ('A' for Active; 'I' for Inactive)
REMARK    1  A    between atoms: C_2  and  C_3
REMARK    2  A    between atoms: C_3  and  N_4
REMARK    3  A    between atoms: N_13  and  C_14
REMARK    4  A    between atoms: C_18  and  N_19
REMARK                            x       y       z     vdW  Elec       q    Type
REMARK                         _______ _______ _______ _____ _____    ______ ____
ROOT
ATOM      1  O   UNL     1       1.354   8.565  19.509  0.00  0.00    +0.000 OA
ATOM      2  C   UNL     1       1.593   8.249  20.677  0.00  0.00    +0.000 C 
ATOM      3  N   UNL     1       1.898   6.970  21.102  0.00  0.00    +0.000 N 
ATOM      4  H   UNL     1       1.864   6.813  22.110  0.00  0.00    +0.000 HD
ENDROOT
BRANCH   3   5
ATOM      5  C   UNL     1       2.022   5.814  20.302  0.00  0.00    +0.000 A 
ATOM      6  C   UNL     1       1.116   4.758  20.345  0.00  0.00    +0.000 A 
ATOM      7  C   UNL     1       1.319   3.630  19.556  0.00  0.00    +0.000 A 
ATOM      8  C   UNL     1       2.444   3.540  18.736  0.00  0.00    +0.000 A 
ATOM      9  C   UNL     1       3.369   4.586  18.663  0.00  0.00    +0.000 A 
ATOM     10  C   UNL     1       3.122   5.740  19.428  0.00  0.00    +0.000 A 
BRANCH   9  11
ATOM     11  N   UNL     1       4.530   4.477  17.851  0.00  0.00    +0.000 N 
ATOM     12  C   UNL     1       4.488   4.474  16.408  0.00  0.00    +0.000 C 
ATOM     13  C   UNL     1       5.867   3.995  16.004  0.00  0.00    +0.000 C 
ATOM     14  C   UNL     1       6.762   4.530  17.104  0.00  0.00    +0.000 C 
ATOM     15  C   UNL     1       5.856   4.538  18.312  0.00  0.00    +0.000 C 
ATOM     16  O   UNL     1       6.273   4.661  19.453  0.00  0.00    +0.000 OA
ENDBRANCH   9  11
ENDBRANCH   3   5
BRANCH   2  17
ATOM     17  C   UNL     1       1.657   9.352  21.717  0.00  0.00    +0.000 C 
BRANCH  17  18
ATOM     18  N   UNL     1       0.427  10.030  22.083  0.00  0.00    +0.000 N 
ATOM     19  N   UNL     1      -0.100   9.935  23.322  0.00  0.00    +0.000 NA
ATOM     20  N   UNL     1      -1.149  10.740  23.381  0.00  0.00    +0.000 NA
ATOM     21  C   UNL     1      -1.256  11.389  22.180  0.00  0.00    +0.000 A 
ATOM     22  C   UNL     1      -2.164  12.362  21.744  0.00  0.00    +0.000 A 
ATOM     23  C   UNL     1      -2.017  12.881  20.450  0.00  0.00    +0.000 A 
ATOM     24  C   UNL     1      -0.993  12.434  19.610  0.00  0.00    +0.000 A 
ATOM     25  C   UNL     1      -0.083  11.456  20.028  0.00  0.00    +0.000 A 
ATOM     26  C   UNL     1      -0.250  10.955  21.323  0.00  0.00    +0.000 A 
ENDBRANCH  17  18
ENDBRANCH   2  17
TORSDOF 4
ENDMDL
MODEL 8
REMARK VINA RESULT:      -7.7      3.508      8.739
REMARK  Name = 
REMARK  4 active torsions:
REMARK  status: ('A' for Active; 'I' for Inactive)
REMARK    1  A    between atoms: C_2  and  C_3
REMARK    2  A    between atoms: C_3  and  N_4
REMARK    3  A    between atoms: N_13  and  C_14
REMARK    4  A    between atoms: C_18  and  N_19
REMARK                            x       y       z     vdW  Elec       q    Type
REMARK                         _______ _______ _______ _____ _____    ______ ____
ROOT
ATOM      1  O   UNL     1       1.326   8.400  20.475  0.00  0.00    +0.000 OA
ATOM      2  C   UNL     1       1.805   8.263  19.347  0.00  0.00    +0.000 C 
ATOM      3  N   UNL     1       1.628   9.148  18.302  0.00  0.00    +0.000 N 
ATOM      4  H   UNL     1       1.900   8.810  17.377  0.00  0.00    +0.000 HD
ENDROOT
BRANCH   3   5
ATOM      5  C   UNL     1       0.912  10.364  18.327  0.00  0.00    +0.000 A 
ATOM      6  C   UNL     1       1.493  11.583  18.668  0.00  0.00    +0.000 A 
ATOM      7  C   UNL     1       0.719  12.739  18.709  0.00  0.00    +0.000 A 
ATOM      8  C   UNL     1      -0.647  12.679  18.432  0.00  0.00    +0.000 A 
ATOM      9  C   UNL     1      -1.260  11.473  18.078  0.00  0.00    +0.000 A 
ATOM     10  C   UNL     1      -0.453  10.325  17.992  0.00  0.00    +0.000 A 
BRANCH   9  11
ATOM     11  N   UNL     1      -2.657  11.411  17.829  0.00  0.00    +0.000 N 
ATOM     12  C   UNL     1      -3.652  11.761  18.814  0.00  0.00    +0.000 C 
ATOM     13  C   UNL     1      -4.944  11.217  18.238  0.00  0.00    +0.000 C 
ATOM     14  C   UNL     1      -4.744  11.351  16.741  0.00  0.00    +0.000 C 
ATOM     15  C   UNL     1      -3.252  11.186  16.576  0.00  0.00    +0.000 C 
ATOM     16  O   UNL     1      -2.724  10.976  15.495  0.00  0.00    +0.000 OA
ENDBRANCH   9  11
ENDBRANCH   3   5
BRANCH   2  17
ATOM     17  C   UNL     1       2.738   7.091  19.105  0.00  0.00    +0.000 C 
BRANCH  17  18
ATOM     18  N   UNL     1       2.158   5.788  18.840  0.00  0.00    +0.000 N 
ATOM     19  N   UNL     1       1.824   5.394  17.594  0.00  0.00    +0.000 NA
ATOM     20  N   UNL     1       1.426   4.132  17.658  0.00  0.00    +0.000 NA
ATOM     21  C   UNL     1       1.559   3.710  18.954  0.00  0.00    +0.000 A 
ATOM     22  C   UNL     1       1.310   2.462  19.539  0.00  0.00    +0.000 A 
ATOM     23  C   UNL     1       1.566   2.302  20.907  0.00  0.00    +0.000 A 
ATOM     24  C   UNL     1       2.050   3.365  21.675  0.00  0.00    +0.000 A 
ATOM     25  C   UNL     1       2.295   4.621  21.107  0.00  0.00    +0.000 A 
ATOM     26  C   UNL     1       2.033   4.754  19.740  0.00  0.00    +0.000 A 
ENDBRANCH  17  18
ENDBRANCH   2  17
TORSDOF 4
ENDMDL
MODEL 9
REMARK VINA RESULT:      -7.7      2.925      8.444
REMARK  Name = 
REMARK  4 active torsions:
REMARK  status: ('A' for Active; 'I' for Inactive)
REMARK    1  A    between atoms: C_2  and  C_3
REMARK    2  A    between atoms: C_3  and  N_4
REMARK    3  A    between atoms: N_13  and  C_14
REMARK    4  A    between atoms: C_18  and  N_19
REMARK                            x       y       z     vdW  Elec       q    Type
REMARK                         _______ _______ _______ _____ _____    ______ ____
ROOT
ATOM      1  O   UNL     1       2.116   8.882  17.190  0.00  0.00    +0.000 OA
ATOM      2  C   UNL     1       2.215   8.405  18.323  0.00  0.00    +0.000 C 
ATOM      3  N   UNL     1       1.561   8.885  19.441  0.00  0.00    +0.000 N 
ATOM      4  H   UNL     1       1.894   8.533  20.340  0.00  0.00    +0.000 HD
ENDROOT
BRANCH   3   5
ATOM      5  C   UNL     1       0.654   9.964  19.499  0.00  0.00    +0.000 A 
ATOM      6  C   UNL     1       0.709  10.954  20.477  0.00  0.00    +0.000 A 
ATOM      7  C   UNL     1      -0.241  11.970  20.499  0.00  0.00    +0.000 A 
ATOM      8  C   UNL     1      -1.268  11.990  19.556  0.00  0.00    +0.000 A 
ATOM      9  C   UNL     1      -1.348  11.017  18.554  0.00  0.00    +0.000 A 
ATOM     10  C   UNL     1      -0.351  10.027  18.517  0.00  0.00    +0.000 A 
BRANCH   9  11
ATOM     11  N   UNL     1      -2.414  11.024  17.615  0.00  0.00    +0.000 N 
ATOM     12  C   UNL     1      -2.319  10.423  16.307  0.00  0.00    +0.000 C 
ATOM     13  C   UNL     1      -3.521  10.971  15.564  0.00  0.00    +0.000 C 
ATOM     14  C   UNL     1      -4.561  11.139  16.655  0.00  0.00    +0.000 C 
ATOM     15  C   UNL     1      -3.731  11.438  17.880  0.00  0.00    +0.000 C 
ATOM     16  O   UNL     1      -4.208  11.887  18.910  0.00  0.00    +0.000 OA
ENDBRANCH   9  11
ENDBRANCH   3   5
BRANCH   2  17
ATOM     17  C   UNL     1       3.035   7.140  18.496  0.00  0.00    +0.000 C 
BRANCH  17  18
ATOM     18  N   UNL     1       2.462   6.041  19.250  0.00  0.00    +0.000 N 
ATOM     19  N   UNL     1       1.878   6.226  20.452  0.00  0.00    +0.000 NA
ATOM     20  N   UNL     1       1.360   5.069  20.836  0.00  0.00    +0.000 NA
ATOM     21  C   UNL     1       1.577   4.155  19.841  0.00  0.00    +0.000 A 
ATOM     22  C   UNL     1       1.201   2.809  19.737  0.00  0.00    +0.000 A 
ATOM     23  C   UNL     1       1.538   2.109  18.571  0.00  0.00    +0.000 A 
ATOM     24  C   UNL     1       2.240   2.735  17.536  0.00  0.00    +0.000 A 
ATOM     25  C   UNL     1       2.631   4.076  17.628  0.00  0.00    +0.000 A 
ATOM     26  C   UNL     1       2.282   4.752  18.801  0.00  0.00    +0.000 A 
ENDBRANCH  17  18
ENDBRANCH   2  17
TORSDOF 4
ENDMDL
