MODEL 1
REMARK VINA RESULT:      -8.3      0.000      0.000
REMARK  Name = 
REMARK  4 active torsions:
REMARK  status: ('A' for Active; 'I' for Inactive)
REMARK    1  A    between atoms: C_1  and  C_2
REMARK    2  A    between atoms: C_5  and  N_6
REMARK    3  A    between atoms: C_7  and  C_9
REMARK    4  A    between atoms: C_23  and  C_24
REMARK                            x       y       z     vdW  Elec       q    Type
REMARK                         _______ _______ _______ _____ _____    ______ ____
ROOT
ATOM      1  C   UNL     1       2.487   4.721  20.401  0.00  0.00    +0.000 A 
ATOM      2  C   UNL     1       2.319   3.651  21.298  0.00  0.00    +0.000 A 
ATOM      3  C   UNL     1       3.115   2.521  21.193  0.00  0.00    +0.000 A 
ATOM      4  C   UNL     1       4.070   2.460  20.183  0.00  0.00    +0.000 A 
ATOM      5  C   UNL     1       4.241   3.500  19.278  0.00  0.00    +0.000 A 
ATOM      6  N   UNL     1       5.154   3.352  18.302  0.00  0.00    +0.000 NA
ATOM      7  C   UNL     1       5.263   4.337  17.391  0.00  0.00    +0.000 A 
ATOM      8  C   UNL     1       6.145   4.206  16.325  0.00  0.00    +0.000 A 
ATOM      9  C   UNL     1       6.251   5.195  15.345  0.00  0.00    +0.000 A 
ATOM     10  C   UNL     1       5.471   6.340  15.438  0.00  0.00    +0.000 A 
ATOM     11  C   UNL     1       4.597   6.488  16.515  0.00  0.00    +0.000 A 
ATOM     12  C   UNL     1       4.482   5.504  17.488  0.00  0.00    +0.000 A 
ATOM     13  N   UNL     1       3.609   5.676  18.495  0.00  0.00    +0.000 NA
ATOM     14  C   UNL     1       3.446   4.667  19.383  0.00  0.00    +0.000 A 
ENDROOT
BRANCH   1  16
ATOM     15  N   UNL     1       2.104   7.137  20.581  0.00  0.00    +0.000 N 
ATOM     16  C   UNL     1       1.546   5.870  20.548  0.00  0.00    +0.000 C 
ATOM     17  O   UNL     1       0.354   5.590  20.659  0.00  0.00    +0.000 OA
ATOM     18  H   UNL     1       3.105   7.169  20.421  0.00  0.00    +0.000 HD
BRANCH  15  23
ATOM     19  C   UNL     1      -0.673  12.145  21.159  0.00  0.00    +0.000 C 
ATOM     20  C   UNL     1       0.055  10.845  21.006  0.00  0.00    +0.000 A 
ATOM     21  C   UNL     1       0.262  10.016  22.103  0.00  0.00    +0.000 A 
ATOM     22  C   UNL     1       0.941   8.806  21.956  0.00  0.00    +0.000 A 
ATOM     23  C   UNL     1       1.431   8.377  20.713  0.00  0.00    +0.000 A 
ATOM     24  C   UNL     1       1.223   9.210  19.592  0.00  0.00    +0.000 A 
ATOM     25  C   UNL     1       1.699   8.912  18.192  0.00  0.00    +0.000 C 
ATOM     26  C   UNL     1       0.539  10.435  19.758  0.00  0.00    +0.000 A 
ENDBRANCH  15  23
ENDBRANCH   1  16
TORSDOF 2
ENDMDL
MODEL 2
REMARK VINA RESULT:      -7.9      1.885      6.871
REMARK  Name = 
REMARK  4 active torsions:
REMARK  status: ('A' for Active; 'I' for Inactive)
REMARK    1  A    between atoms: C_1  and  C_2
REMARK    2  A    between atoms: C_5  and  N_6
REMARK    3  A    between atoms: C_7  and  C_9
REMARK    4  A    between atoms: C_23  and  C_24
REMARK                            x       y       z     vdW  Elec       q    Type
REMARK                         _______ _______ _______ _____ _____    ______ ____
ROOT
ATOM      1  C   UNL     1       3.276   3.640  19.077  0.00  0.00    +0.000 A 
ATOM      2  C   UNL     1       3.269   2.609  20.034  0.00  0.00    +0.000 A 
ATOM      3  C   UNL     1       2.675   2.809  21.271  0.00  0.00    +0.000 A 
ATOM      4  C   UNL     1       2.099   4.045  21.551  0.00  0.00    +0.000 A 
ATOM      5  C   UNL     1       2.110   5.080  20.624  0.00  0.00    +0.000 A 
ATOM      6  N   UNL     1       1.573   6.260  20.981  0.00  0.00    +0.000 NA
ATOM      7  C   UNL     1       1.649   7.276  20.101  0.00  0.00    +0.000 A 
ATOM      8  C   UNL     1       1.167   8.534  20.443  0.00  0.00    +0.000 A 
ATOM      9  C   UNL     1       1.268   9.614  19.564  0.00  0.00    +0.000 A 
ATOM     10  C   UNL     1       1.848   9.431  18.317  0.00  0.00    +0.000 A 
ATOM     11  C   UNL     1       2.317   8.168  17.957  0.00  0.00    +0.000 A 
ATOM     12  C   UNL     1       2.227   7.092  18.830  0.00  0.00    +0.000 A 
ATOM     13  N   UNL     1       2.713   5.898  18.453  0.00  0.00    +0.000 NA
ATOM     14  C   UNL     1       2.698   4.885  19.352  0.00  0.00    +0.000 A 
ENDROOT
BRANCH   1  16
ATOM     15  N   UNL     1       4.566   4.438  17.150  0.00  0.00    +0.000 N 
ATOM     16  C   UNL     1       3.991   3.358  17.798  0.00  0.00    +0.000 C 
ATOM     17  O   UNL     1       3.982   2.191  17.413  0.00  0.00    +0.000 OA
ATOM     18  H   UNL     1       4.514   5.317  17.653  0.00  0.00    +0.000 HD
BRANCH  15  23
ATOM     19  C   UNL     1       7.482   4.359  12.188  0.00  0.00    +0.000 C 
ATOM     20  C   UNL     1       6.725   4.386  13.480  0.00  0.00    +0.000 A 
ATOM     21  C   UNL     1       5.378   4.042  13.519  0.00  0.00    +0.000 A 
ATOM     22  C   UNL     1       4.677   4.068  14.726  0.00  0.00    +0.000 A 
ATOM     23  C   UNL     1       5.292   4.432  15.933  0.00  0.00    +0.000 A 
ATOM     24  C   UNL     1       6.660   4.781  15.905  0.00  0.00    +0.000 A 
ATOM     25  C   UNL     1       7.468   5.214  17.103  0.00  0.00    +0.000 C 
ATOM     26  C   UNL     1       7.355   4.754  14.675  0.00  0.00    +0.000 A 
ENDBRANCH  15  23
ENDBRANCH   1  16
TORSDOF 2
ENDMDL
MODEL 3
REMARK VINA RESULT:      -7.8      3.275      8.120
REMARK  Name = 
REMARK  4 active torsions:
REMARK  status: ('A' for Active; 'I' for Inactive)
REMARK    1  A    between atoms: C_1  and  C_2
REMARK    2  A    between atoms: C_5  and  N_6
REMARK    3  A    between atoms: C_7  and  C_9
REMARK    4  A    between atoms: C_23  and  C_24
REMARK                            x       y       z     vdW  Elec       q    Type
REMARK                         _______ _______ _______ _____ _____    ______ ____
ROOT
ATOM      1  C   UNL     1       0.880   9.645  19.228  0.00  0.00    +0.000 A 
ATOM      2  C   UNL     1       1.376   9.972  20.503  0.00  0.00    +0.000 A 
ATOM      3  C   UNL     1       0.607  10.724  21.379  0.00  0.00    +0.000 A 
ATOM      4  C   UNL     1      -0.652  11.156  20.971  0.00  0.00    +0.000 A 
ATOM      5  C   UNL     1      -1.152  10.856  19.710  0.00  0.00    +0.000 A 
ATOM      6  N   UNL     1      -2.358  11.344  19.370  0.00  0.00    +0.000 NA
ATOM      7  C   UNL     1      -2.803  11.104  18.123  0.00  0.00    +0.000 A 
ATOM      8  C   UNL     1      -4.013  11.640  17.699  0.00  0.00    +0.000 A 
ATOM      9  C   UNL     1      -4.481  11.439  16.399  0.00  0.00    +0.000 A 
ATOM     10  C   UNL     1      -3.731  10.679  15.511  0.00  0.00    +0.000 A 
ATOM     11  C   UNL     1      -2.525  10.122  15.934  0.00  0.00    +0.000 A 
ATOM     12  C   UNL     1      -2.051  10.325  17.222  0.00  0.00    +0.000 A 
ATOM     13  N   UNL     1      -0.872   9.791  17.581  0.00  0.00    +0.000 NA
ATOM     14  C   UNL     1      -0.385  10.076  18.812  0.00  0.00    +0.000 A 
ENDROOT
BRANCH   1  16
ATOM     15  N   UNL     1       2.169   7.617  18.739  0.00  0.00    +0.000 N 
ATOM     16  C   UNL     1       1.799   8.887  18.330  0.00  0.00    +0.000 C 
ATOM     17  O   UNL     1       2.174   9.468  17.314  0.00  0.00    +0.000 OA
ATOM     18  H   UNL     1       1.712   7.288  19.583  0.00  0.00    +0.000 HD
BRANCH  15  23
ATOM     19  C   UNL     1       5.641   3.954  15.972  0.00  0.00    +0.000 C 
ATOM     20  C   UNL     1       4.738   4.904  16.697  0.00  0.00    +0.000 A 
ATOM     21  C   UNL     1       4.973   6.274  16.659  0.00  0.00    +0.000 A 
ATOM     22  C   UNL     1       4.130   7.155  17.337  0.00  0.00    +0.000 A 
ATOM     23  C   UNL     1       3.023   6.704  18.071  0.00  0.00    +0.000 A 
ATOM     24  C   UNL     1       2.773   5.316  18.114  0.00  0.00    +0.000 A 
ATOM     25  C   UNL     1       1.643   4.662  18.870  0.00  0.00    +0.000 C 
ATOM     26  C   UNL     1       3.640   4.435  17.427  0.00  0.00    +0.000 A 
ENDBRANCH  15  23
ENDBRANCH   1  16
TORSDOF 2
ENDMDL
MODEL 4
REMARK VINA RESULT:      -7.8      1.596      4.151
REMARK  Name = 
REMARK  4 active torsions:
REMARK  status: ('A' for Active; 'I' for Inactive)
REMARK    1  A    between atoms: C_1  and  C_2
REMARK    2  A    between atoms: C_5  and  N_6
REMARK    3  A    between atoms: C_7  and  C_9
REMARK    4  A    between atoms: C_23  and  C_24
REMARK                            x       y       z     vdW  Elec       q    Type
REMARK                         _______ _______ _______ _____ _____    ______ ____
ROOT
ATOM      1  C   UNL     1       3.449   7.292  17.799  0.00  0.00    +0.000 A 
ATOM      2  C   UNL     1       4.547   7.592  16.972  0.00  0.00    +0.000 A 
ATOM      3  C   UNL     1       5.552   6.657  16.781  0.00  0.00    +0.000 A 
ATOM      4  C   UNL     1       5.463   5.428  17.428  0.00  0.00    +0.000 A 
ATOM      5  C   UNL     1       4.394   5.119  18.260  0.00  0.00    +0.000 A 
ATOM      6  N   UNL     1       4.396   3.929  18.886  0.00  0.00    +0.000 NA
ATOM      7  C   UNL     1       3.392   3.668  19.742  0.00  0.00    +0.000 A 
ATOM      8  C   UNL     1       3.380   2.480  20.463  0.00  0.00    +0.000 A 
ATOM      9  C   UNL     1       2.370   2.200  21.386  0.00  0.00    +0.000 A 
ATOM     10  C   UNL     1       1.347   3.118  21.582  0.00  0.00    +0.000 A 
ATOM     11  C   UNL     1       1.341   4.304  20.849  0.00  0.00    +0.000 A 
ATOM     12  C   UNL     1       2.346   4.592  19.936  0.00  0.00    +0.000 A 
ATOM     13  N   UNL     1       2.315   5.757  19.270  0.00  0.00    +0.000 NA
ATOM     14  C   UNL     1       3.352   6.058  18.452  0.00  0.00    +0.000 A 
ENDROOT
BRANCH   1  16
ATOM     15  N   UNL     1       1.861   8.473  19.248  0.00  0.00    +0.000 N 
ATOM     16  C   UNL     1       2.446   8.379  17.997  0.00  0.00    +0.000 C 
ATOM     17  O   UNL     1       2.201   9.082  17.019  0.00  0.00    +0.000 OA
ATOM     18  H   UNL     1       2.233   7.835  19.944  0.00  0.00    +0.000 HD
BRANCH  15  23
ATOM     19  C   UNL     1      -2.066  12.314  20.967  0.00  0.00    +0.000 C 
ATOM     20  C   UNL     1      -1.047  11.310  20.524  0.00  0.00    +0.000 A 
ATOM     21  C   UNL     1      -0.847  11.053  19.172  0.00  0.00    +0.000 A 
ATOM     22  C   UNL     1       0.103  10.116  18.763  0.00  0.00    +0.000 A 
ATOM     23  C   UNL     1       0.890   9.409  19.684  0.00  0.00    +0.000 A 
ATOM     24  C   UNL     1       0.698   9.664  21.059  0.00  0.00    +0.000 A 
ATOM     25  C   UNL     1       1.442   8.981  22.180  0.00  0.00    +0.000 C 
ATOM     26  C   UNL     1      -0.272  10.611  21.458  0.00  0.00    +0.000 A 
ENDBRANCH  15  23
ENDBRANCH   1  16
TORSDOF 2
ENDMDL
MODEL 5
REMARK VINA RESULT:      -7.4      1.251      1.265
REMARK  Name = 
REMARK  4 active torsions:
REMARK  status: ('A' for Active; 'I' for Inactive)
REMARK    1  A    between atoms: C_1  and  C_2
REMARK    2  A    between atoms: C_5  and  N_6
REMARK    3  A    between atoms: C_7  and  C_9
REMARK    4  A    between atoms: C_23  and  C_24
REMARK                            x       y       z     vdW  Elec       q    Type
REMARK                         _______ _______ _______ _____ _____    ______ ____
ROOT
ATOM      1  C   UNL     1       2.159   4.468  19.563  0.00  0.00    +0.000 A 
ATOM      2  C   UNL     1       1.256   3.400  19.709  0.00  0.00    +0.000 A 
ATOM      3  C   UNL     1       1.442   2.227  18.994  0.00  0.00    +0.000 A 
ATOM      4  C   UNL     1       2.525   2.131  18.125  0.00  0.00    +0.000 A 
ATOM      5  C   UNL     1       3.419   3.181  17.956  0.00  0.00    +0.000 A 
ATOM      6  N   UNL     1       4.417   3.031  17.068  0.00  0.00    +0.000 NA
ATOM      7  C   UNL     1       5.236   4.079  16.862  0.00  0.00    +0.000 A 
ATOM      8  C   UNL     1       6.244   4.001  15.908  0.00  0.00    +0.000 A 
ATOM      9  C   UNL     1       7.083   5.085  15.648  0.00  0.00    +0.000 A 
ATOM     10  C   UNL     1       6.922   6.265  16.362  0.00  0.00    +0.000 A 
ATOM     11  C   UNL     1       5.925   6.346  17.335  0.00  0.00    +0.000 A 
ATOM     12  C   UNL     1       5.082   5.274  17.592  0.00  0.00    +0.000 A 
ATOM     13  N   UNL     1       4.120   5.403  18.520  0.00  0.00    +0.000 NA
ATOM     14  C   UNL     1       3.251   4.378  18.692  0.00  0.00    +0.000 A 
ENDROOT
BRANCH   1  16
ATOM     15  N   UNL     1       1.637   6.865  19.584  0.00  0.00    +0.000 N 
ATOM     16  C   UNL     1       1.848   5.714  20.325  0.00  0.00    +0.000 C 
ATOM     17  O   UNL     1       1.835   5.618  21.549  0.00  0.00    +0.000 OA
ATOM     18  H   UNL     1       1.636   6.734  18.578  0.00  0.00    +0.000 HD
BRANCH  15  23
ATOM     19  C   UNL     1       0.337  12.106  21.575  0.00  0.00    +0.000 C 
ATOM     20  C   UNL     1       0.681  10.745  21.055  0.00  0.00    +0.000 A 
ATOM     21  C   UNL     1       0.605   9.630  21.883  0.00  0.00    +0.000 A 
ATOM     22  C   UNL     1       0.927   8.363  21.394  0.00  0.00    +0.000 A 
ATOM     23  C   UNL     1       1.329   8.162  20.066  0.00  0.00    +0.000 A 
ATOM     24  C   UNL     1       1.407   9.286  19.215  0.00  0.00    +0.000 A 
ATOM     25  C   UNL     1       1.839   9.251  17.770  0.00  0.00    +0.000 C 
ATOM     26  C   UNL     1       1.083  10.563  19.726  0.00  0.00    +0.000 A 
ENDBRANCH  15  23
ENDBRANCH   1  16
TORSDOF 2
ENDMDL
MODEL 6
REMARK VINA RESULT:      -7.4      1.573      2.227
REMARK  Name = 
REMARK  4 active torsions:
REMARK  status: ('A' for Active; 'I' for Inactive)
REMARK    1  A    between atoms: C_1  and  C_2
REMARK    2  A    between atoms: C_5  and  N_6
REMARK    3  A    between atoms: C_7  and  C_9
REMARK    4  A    between atoms: C_23  and  C_24
REMARK                            x       y       z     vdW  Elec       q    Type
REMARK                         _______ _______ _______ _____ _____    ______ ____
ROOT
ATOM      1  C   UNL     1       2.115   5.984  19.852  0.00  0.00    +0.000 A 
ATOM      2  C   UNL     1       1.307   5.153  20.649  0.00  0.00    +0.000 A 
ATOM      3  C   UNL     1       1.344   3.777  20.483  0.00  0.00    +0.000 A 
ATOM      4  C   UNL     1       2.182   3.237  19.512  0.00  0.00    +0.000 A 
ATOM      5  C   UNL     1       2.976   4.042  18.705  0.00  0.00    +0.000 A 
ATOM      6  N   UNL     1       3.728   3.452  17.759  0.00  0.00    +0.000 NA
ATOM      7  C   UNL     1       4.440   4.246  16.938  0.00  0.00    +0.000 A 
ATOM      8  C   UNL     1       5.183   3.692  15.902  0.00  0.00    +0.000 A 
ATOM      9  C   UNL     1       5.901   4.495  15.014  0.00  0.00    +0.000 A 
ATOM     10  C   UNL     1       5.887   5.874  15.171  0.00  0.00    +0.000 A 
ATOM     11  C   UNL     1       5.160   6.438  16.219  0.00  0.00    +0.000 A 
ATOM     12  C   UNL     1       4.437   5.645  17.101  0.00  0.00    +0.000 A 
ATOM     13  N   UNL     1       3.730   6.231  18.081  0.00  0.00    +0.000 NA
ATOM     14  C   UNL     1       2.960   5.447  18.874  0.00  0.00    +0.000 A 
ENDROOT
BRANCH   1  16
ATOM     15  N   UNL     1       1.658   8.214  18.940  0.00  0.00    +0.000 N 
ATOM     16  C   UNL     1       1.965   7.454  20.056  0.00  0.00    +0.000 C 
ATOM     17  O   UNL     1       2.158   7.871  21.196  0.00  0.00    +0.000 OA
ATOM     18  H   UNL     1       1.484   7.683  18.094  0.00  0.00    +0.000 HD
BRANCH  15  23
ATOM     19  C   UNL     1       0.946  13.919  18.666  0.00  0.00    +0.000 C 
ATOM     20  C   UNL     1       1.125  12.434  18.735  0.00  0.00    +0.000 A 
ATOM     21  C   UNL     1       2.144  11.809  18.025  0.00  0.00    +0.000 A 
ATOM     22  C   UNL     1       2.307  10.424  18.093  0.00  0.00    +0.000 A 
ATOM     23  C   UNL     1       1.466   9.617  18.872  0.00  0.00    +0.000 A 
ATOM     24  C   UNL     1       0.430  10.240  19.600  0.00  0.00    +0.000 A 
ATOM     25  C   UNL     1      -0.573   9.522  20.469  0.00  0.00    +0.000 C 
ATOM     26  C   UNL     1       0.274  11.643  19.517  0.00  0.00    +0.000 A 
ENDBRANCH  15  23
ENDBRANCH   1  16
TORSDOF 2
ENDMDL
MODEL 7
REMARK VINA RESULT:      -7.4      1.291      2.112
REMARK  Name = 
REMARK  4 active torsions:
REMARK  status: ('A' for Active; 'I' for Inactive)
REMARK    1  A    between atoms: C_1  and  C_2
REMARK    2  A    between atoms: C_5  and  N_6
REMARK    3  A    between atoms: C_7  and  C_9
REMARK    4  A    between atoms: C_23  and  C_24
REMARK                            x       y       z     vdW  Elec       q    Type
REMARK                         _______ _______ _______ _____ _____    ______ ____
ROOT
ATOM      1  C   UNL     1       2.403   6.311  19.721  0.00  0.00    +0.000 A 
ATOM      2  C   UNL     1       1.784   5.618  20.777  0.00  0.00    +0.000 A 
ATOM      3  C   UNL     1       2.046   4.271  20.976  0.00  0.00    +0.000 A 
ATOM      4  C   UNL     1       2.917   3.618  20.109  0.00  0.00    +0.000 A 
ATOM      5  C   UNL     1       3.526   4.282  19.052  0.00  0.00    +0.000 A 
ATOM      6  N   UNL     1       4.322   3.576  18.230  0.00  0.00    +0.000 NA
ATOM      7  C   UNL     1       4.852   4.213  17.169  0.00  0.00    +0.000 A 
ATOM      8  C   UNL     1       5.630   3.515  16.253  0.00  0.00    +0.000 A 
ATOM      9  C   UNL     1       6.161   4.142  15.124  0.00  0.00    +0.000 A 
ATOM     10  C   UNL     1       5.921   5.493  14.914  0.00  0.00    +0.000 A 
ATOM     11  C   UNL     1       5.157   6.206  15.838  0.00  0.00    +0.000 A 
ATOM     12  C   UNL     1       4.620   5.586  16.958  0.00  0.00    +0.000 A 
ATOM     13  N   UNL     1       3.870   6.304  17.810  0.00  0.00    +0.000 NA
ATOM     14  C   UNL     1       3.281   5.661  18.847  0.00  0.00    +0.000 A 
ENDROOT
BRANCH   1  16
ATOM     15  N   UNL     1       1.193   8.292  20.513  0.00  0.00    +0.000 N 
ATOM     16  C   UNL     1       2.016   7.742  19.545  0.00  0.00    +0.000 C 
ATOM     17  O   UNL     1       2.438   8.302  18.536  0.00  0.00    +0.000 OA
ATOM     18  H   UNL     1       0.993   7.686  21.301  0.00  0.00    +0.000 HD
BRANCH  15  23
ATOM     19  C   UNL     1      -0.801  13.688  20.712  0.00  0.00    +0.000 C 
ATOM     20  C   UNL     1      -0.288  12.282  20.663  0.00  0.00    +0.000 A 
ATOM     21  C   UNL     1       0.163  11.734  19.467  0.00  0.00    +0.000 A 
ATOM     22  C   UNL     1       0.640  10.423  19.426  0.00  0.00    +0.000 A 
ATOM     23  C   UNL     1       0.690   9.616  20.572  0.00  0.00    +0.000 A 
ATOM     24  C   UNL     1       0.237  10.163  21.793  0.00  0.00    +0.000 A 
ATOM     25  C   UNL     1       0.203   9.431  23.111  0.00  0.00    +0.000 C 
ATOM     26  C   UNL     1      -0.249  11.490  21.817  0.00  0.00    +0.000 A 
ENDBRANCH  15  23
ENDBRANCH   1  16
TORSDOF 2
ENDMDL
MODEL 8
REMARK VINA RESULT:      -7.3      2.622      7.793
REMARK  Name = 
REMARK  4 active torsions:
REMARK  status: ('A' for Active; 'I' for Inactive)
REMARK    1  A    between atoms: C_1  and  C_2
REMARK    2  A    between atoms: C_5  and  N_6
REMARK    3  A    between atoms: C_7  and  C_9
REMARK    4  A    between atoms: C_23  and  C_24
REMARK                            x       y       z     vdW  Elec       q    Type
REMARK                         _______ _______ _______ _____ _____    ______ ____
ROOT
ATOM      1  C   UNL     1       1.032   9.190  19.989  0.00  0.00    +0.000 A 
ATOM      2  C   UNL     1       0.489   8.416  21.030  0.00  0.00    +0.000 A 
ATOM      3  C   UNL     1      -0.060   9.032  22.145  0.00  0.00    +0.000 A 
ATOM      4  C   UNL     1      -0.053  10.422  22.219  0.00  0.00    +0.000 A 
ATOM      5  C   UNL     1       0.492  11.203  21.207  0.00  0.00    +0.000 A 
ATOM      6  N   UNL     1       0.502  12.538  21.367  0.00  0.00    +0.000 NA
ATOM      7  C   UNL     1       1.094  13.280  20.413  0.00  0.00    +0.000 A 
ATOM      8  C   UNL     1       1.189  14.659  20.560  0.00  0.00    +0.000 A 
ATOM      9  C   UNL     1       1.830  15.449  19.604  0.00  0.00    +0.000 A 
ATOM     10  C   UNL     1       2.375  14.852  18.476  0.00  0.00    +0.000 A 
ATOM     11  C   UNL     1       2.267  13.471  18.310  0.00  0.00    +0.000 A 
ATOM     12  C   UNL     1       1.638  12.680  19.261  0.00  0.00    +0.000 A 
ATOM     13  N   UNL     1       1.578  11.351  19.075  0.00  0.00    +0.000 NA
ATOM     14  C   UNL     1       1.041  10.588  20.056  0.00  0.00    +0.000 A 
ENDROOT
BRANCH   1  16
ATOM     15  N   UNL     1       2.542   7.431  19.188  0.00  0.00    +0.000 N 
ATOM     16  C   UNL     1       1.656   8.442  18.858  0.00  0.00    +0.000 C 
ATOM     17  O   UNL     1       1.351   8.810  17.726  0.00  0.00    +0.000 OA
ATOM     18  H   UNL     1       2.624   7.240  20.180  0.00  0.00    +0.000 HD
BRANCH  15  23
ATOM     19  C   UNL     1       5.453   4.041  15.560  0.00  0.00    +0.000 C 
ATOM     20  C   UNL     1       4.697   4.919  16.509  0.00  0.00    +0.000 A 
ATOM     21  C   UNL     1       5.007   6.269  16.625  0.00  0.00    +0.000 A 
ATOM     22  C   UNL     1       4.300   7.084  17.511  0.00  0.00    +0.000 A 
ATOM     23  C   UNL     1       3.259   6.584  18.306  0.00  0.00    +0.000 A 
ATOM     24  C   UNL     1       2.933   5.215  18.194  0.00  0.00    +0.000 A 
ATOM     25  C   UNL     1       1.858   4.513  18.986  0.00  0.00    +0.000 C 
ATOM     26  C   UNL     1       3.662   4.402  17.297  0.00  0.00    +0.000 A 
ENDBRANCH  15  23
ENDBRANCH   1  16
TORSDOF 2
ENDMDL
MODEL 9
REMARK VINA RESULT:      -7.3      1.434      1.555
REMARK  Name = 
REMARK  4 active torsions:
REMARK  status: ('A' for Active; 'I' for Inactive)
REMARK    1  A    between atoms: C_1  and  C_2
REMARK    2  A    between atoms: C_5  and  N_6
REMARK    3  A    between atoms: C_7  and  C_9
REMARK    4  A    between atoms: C_23  and  C_24
REMARK                            x       y       z     vdW  Elec       q    Type
REMARK                         _______ _______ _______ _____ _____    ______ ____
ROOT
ATOM      1  C   UNL     1       1.886   5.584  20.038  0.00  0.00    +0.000 A 
ATOM      2  C   UNL     1       1.095   4.645  20.723  0.00  0.00    +0.000 A 
ATOM      3  C   UNL     1       1.149   3.303  20.379  0.00  0.00    +0.000 A 
ATOM      4  C   UNL     1       1.989   2.906  19.342  0.00  0.00    +0.000 A 
ATOM      5  C   UNL     1       2.767   3.820  18.644  0.00  0.00    +0.000 A 
ATOM      6  N   UNL     1       3.521   3.370  17.626  0.00  0.00    +0.000 NA
ATOM      7  C   UNL     1       4.218   4.274  16.913  0.00  0.00    +0.000 A 
ATOM      8  C   UNL     1       4.962   3.870  15.811  0.00  0.00    +0.000 A 
ATOM      9  C   UNL     1       5.664   4.792  15.031  0.00  0.00    +0.000 A 
ATOM     10  C   UNL     1       5.632   6.139  15.367  0.00  0.00    +0.000 A 
ATOM     11  C   UNL     1       4.903   6.550  16.482  0.00  0.00    +0.000 A 
ATOM     12  C   UNL     1       4.197   5.640  17.256  0.00  0.00    +0.000 A 
ATOM     13  N   UNL     1       3.488   6.082  18.307  0.00  0.00    +0.000 NA
ATOM     14  C   UNL     1       2.733   5.191  18.995  0.00  0.00    +0.000 A 
ENDROOT
BRANCH   1  16
ATOM     15  N   UNL     1       0.480   7.384  20.929  0.00  0.00    +0.000 N 
ATOM     16  C   UNL     1       1.718   7.013  20.432  0.00  0.00    +0.000 C 
ATOM     17  O   UNL     1       2.687   7.747  20.254  0.00  0.00    +0.000 OA
ATOM     18  H   UNL     1      -0.179   6.623  21.052  0.00  0.00    +0.000 HD
BRANCH  15  23
ATOM     19  C   UNL     1      -1.224  12.571  22.753  0.00  0.00    +0.000 C 
ATOM     20  C   UNL     1      -0.775  11.224  22.276  0.00  0.00    +0.000 A 
ATOM     21  C   UNL     1      -0.616  10.172  23.171  0.00  0.00    +0.000 A 
ATOM     22  C   UNL     1      -0.197   8.919  22.721  0.00  0.00    +0.000 A 
ATOM     23  C   UNL     1       0.071   8.668  21.368  0.00  0.00    +0.000 A 
ATOM     24  C   UNL     1      -0.091   9.728  20.449  0.00  0.00    +0.000 A 
ATOM     25  C   UNL     1       0.173   9.638  18.967  0.00  0.00    +0.000 C 
ATOM     26  C   UNL     1      -0.509  10.994  20.921  0.00  0.00    +0.000 A 
ENDBRANCH  15  23
ENDBRANCH   1  16
TORSDOF 2
ENDMDL
