MODEL 1
REMARK VINA RESULT:      -8.4      0.000      0.000
REMARK  Name = 
REMARK  7 active torsions:
REMARK  status: ('A' for Active; 'I' for Inactive)
REMARK    1  A    between atoms: C_2  and  C_15
REMARK    2  A    between atoms: N_3  and  C_4
REMARK    3  A    between atoms: C_8  and  C_9
REMARK    4  A    between atoms: C_20  and  C_21
REMARK    5  A    between atoms: C_21  and  O_22
REMARK    6  A    between atoms: O_22  and  C_23
REMARK    7  A    between atoms: C_23  and  C_24
REMARK                            x       y       z     vdW  Elec       q    Type
REMARK                         _______ _______ _______ _____ _____    ______ ____
ROOT
ATOM      1  O   UNL     1       2.795   5.789  17.551  0.00  0.00    +0.000 OA
ATOM      2  C   UNL     1       3.302   6.829  17.972  0.00  0.00    +0.000 C 
ATOM      3  N   UNL     1       4.657   7.100  18.024  0.00  0.00    +0.000 N 
ATOM      4  H   UNL     1       4.945   8.024  18.308  0.00  0.00    +0.000 HD
ENDROOT
BRANCH   3   5
ATOM      5  C   UNL     1       5.691   6.215  17.619  0.00  0.00    +0.000 A 
ATOM      6  C   UNL     1       6.564   5.600  18.521  0.00  0.00    +0.000 A 
ATOM      7  C   UNL     1       7.543   4.708  18.087  0.00  0.00    +0.000 A 
ATOM      8  C   UNL     1       7.659   4.404  16.735  0.00  0.00    +0.000 A 
ATOM      9  C   UNL     1       6.805   5.006  15.800  0.00  0.00    +0.000 A 
ATOM     10  C   UNL     1       5.843   5.932  16.252  0.00  0.00    +0.000 A 
BRANCH   9  11
ATOM     11  C   UNL     1       6.855   4.627  14.390  0.00  0.00    +0.000 A 
ATOM     12  N   UNL     1       7.466   5.259  13.407  0.00  0.00    +0.000 NA
ATOM     13  N   UNL     1       7.151   4.588  12.249  0.00  0.00    +0.000 NA
ATOM     14  N   UNL     1       6.383   3.539  12.505  0.00  0.00    +0.000 NA
ATOM     15  N   UNL     1       6.214   3.550  13.832  0.00  0.00    +0.000 N 
ATOM     16  H   UNL     1       5.663   2.823  14.270  0.00  0.00    +0.000 HD
ENDBRANCH   9  11
ENDBRANCH   3   5
BRANCH   2  17
ATOM     17  C   UNL     1       2.348   7.837  18.518  0.00  0.00    +0.000 A 
ATOM     18  C   UNL     1       2.139   8.954  17.682  0.00  0.00    +0.000 A 
ATOM     19  C   UNL     1       1.369  10.039  18.097  0.00  0.00    +0.000 A 
ATOM     20  C   UNL     1       0.776  10.017  19.351  0.00  0.00    +0.000 A 
ATOM     21  C   UNL     1       0.971   8.919  20.192  0.00  0.00    +0.000 A 
ATOM     22  C   UNL     1       1.777   7.825  19.805  0.00  0.00    +0.000 A 
BRANCH  22  23
ATOM     23  C   UNL     1       2.077   6.781  20.854  0.00  0.00    +0.000 C 
BRANCH  23  24
ATOM     24  O   UNL     1       1.230   5.643  20.745  0.00  0.00    +0.000 OA
BRANCH  24  25
ATOM     25  C   UNL     1       1.875   4.436  21.163  0.00  0.00    +0.000 C 
BRANCH  25  26
ATOM     26  C   UNL     1       2.423   3.649  19.998  0.00  0.00    +0.000 A 
ATOM     27  C   UNL     1       3.799   3.494  19.783  0.00  0.00    +0.000 A 
ATOM     28  C   UNL     1       4.267   2.712  18.725  0.00  0.00    +0.000 A 
ATOM     29  C   UNL     1       3.367   2.064  17.881  0.00  0.00    +0.000 A 
ATOM     30  C   UNL     1       1.997   2.198  18.092  0.00  0.00    +0.000 A 
ATOM     31  C   UNL     1       1.528   2.983  19.146  0.00  0.00    +0.000 A 
ENDBRANCH  25  26
ENDBRANCH  24  25
ENDBRANCH  23  24
ENDBRANCH  22  23
ENDBRANCH   2  17
TORSDOF 7
ENDMDL
MODEL 2
REMARK VINA RESULT:      -8.1      3.088      7.317
REMARK  Name = 
REMARK  7 active torsions:
REMARK  status: ('A' for Active; 'I' for Inactive)
REMARK    1  A    between atoms: C_2  and  C_15
REMARK    2  A    between atoms: N_3  and  C_4
REMARK    3  A    between atoms: C_8  and  C_9
REMARK    4  A    between atoms: C_20  and  C_21
REMARK    5  A    between atoms: C_21  and  O_22
REMARK    6  A    between atoms: O_22  and  C_23
REMARK    7  A    between atoms: C_23  and  C_24
REMARK                            x       y       z     vdW  Elec       q    Type
REMARK                         _______ _______ _______ _____ _____    ______ ____
ROOT
ATOM      1  O   UNL     1       2.219   5.801  18.026  0.00  0.00    +0.000 OA
ATOM      2  C   UNL     1       3.166   6.570  17.865  0.00  0.00    +0.000 C 
ATOM      3  N   UNL     1       3.126   7.942  18.034  0.00  0.00    +0.000 N 
ATOM      4  H   UNL     1       3.991   8.455  17.958  0.00  0.00    +0.000 HD
ENDROOT
BRANCH   3   5
ATOM      5  C   UNL     1       1.978   8.694  18.403  0.00  0.00    +0.000 A 
ATOM      6  C   UNL     1       1.025   9.130  17.479  0.00  0.00    +0.000 A 
ATOM      7  C   UNL     1      -0.108   9.834  17.885  0.00  0.00    +0.000 A 
ATOM      8  C   UNL     1      -0.313  10.107  19.233  0.00  0.00    +0.000 A 
ATOM      9  C   UNL     1       0.625   9.690  20.188  0.00  0.00    +0.000 A 
ATOM     10  C   UNL     1       1.782   9.009  19.757  0.00  0.00    +0.000 A 
BRANCH   9  11
ATOM     11  C   UNL     1       0.378   9.888  21.615  0.00  0.00    +0.000 A 
ATOM     12  N   UNL     1       1.021   9.339  22.628  0.00  0.00    +0.000 NA
ATOM     13  N   UNL     1       0.373   9.741  23.771  0.00  0.00    +0.000 NA
ATOM     14  N   UNL     1      -0.638  10.547  23.484  0.00  0.00    +0.000 NA
ATOM     15  N   UNL     1      -0.625  10.655  22.150  0.00  0.00    +0.000 N 
ATOM     16  H   UNL     1      -1.310  11.242  21.691  0.00  0.00    +0.000 HD
ENDBRANCH   9  11
ENDBRANCH   3   5
BRANCH   2  17
ATOM     17  C   UNL     1       4.433   5.944  17.391  0.00  0.00    +0.000 A 
ATOM     18  C   UNL     1       4.797   6.290  16.071  0.00  0.00    +0.000 A 
ATOM     19  C   UNL     1       5.889   5.700  15.440  0.00  0.00    +0.000 A 
ATOM     20  C   UNL     1       6.653   4.766  16.125  0.00  0.00    +0.000 A 
ATOM     21  C   UNL     1       6.310   4.412  17.431  0.00  0.00    +0.000 A 
ATOM     22  C   UNL     1       5.184   4.971  18.078  0.00  0.00    +0.000 A 
BRANCH  22  23
ATOM     23  C   UNL     1       4.790   4.385  19.412  0.00  0.00    +0.000 C 
BRANCH  23  24
ATOM     24  O   UNL     1       5.468   3.165  19.690  0.00  0.00    +0.000 OA
BRANCH  24  25
ATOM     25  C   UNL     1       4.569   2.091  19.984  0.00  0.00    +0.000 C 
BRANCH  25  26
ATOM     26  C   UNL     1       3.123   2.504  19.853  0.00  0.00    +0.000 A 
ATOM     27  C   UNL     1       2.367   2.222  18.708  0.00  0.00    +0.000 A 
ATOM     28  C   UNL     1       1.016   2.573  18.649  0.00  0.00    +0.000 A 
ATOM     29  C   UNL     1       0.404   3.194  19.736  0.00  0.00    +0.000 A 
ATOM     30  C   UNL     1       1.141   3.467  20.885  0.00  0.00    +0.000 A 
ATOM     31  C   UNL     1       2.492   3.122  20.945  0.00  0.00    +0.000 A 
ENDBRANCH  25  26
ENDBRANCH  24  25
ENDBRANCH  23  24
ENDBRANCH  22  23
ENDBRANCH   2  17
TORSDOF 7
ENDMDL
MODEL 3
REMARK VINA RESULT:      -8.1      3.353      6.452
REMARK  Name = 
REMARK  7 active torsions:
REMARK  status: ('A' for Active; 'I' for Inactive)
REMARK    1  A    between atoms: C_2  and  C_15
REMARK    2  A    between atoms: N_3  and  C_4
REMARK    3  A    between atoms: C_8  and  C_9
REMARK    4  A    between atoms: C_20  and  C_21
REMARK    5  A    between atoms: C_21  and  O_22
REMARK    6  A    between atoms: O_22  and  C_23
REMARK    7  A    between atoms: C_23  and  C_24
REMARK                            x       y       z     vdW  Elec       q    Type
REMARK                         _______ _______ _______ _____ _____    ______ ____
ROOT
ATOM      1  O   UNL     1       2.040   8.413  19.108  0.00  0.00    +0.000 OA
ATOM      2  C   UNL     1       1.658   8.043  20.217  0.00  0.00    +0.000 C 
ATOM      3  N   UNL     1       1.781   6.762  20.724  0.00  0.00    +0.000 N 
ATOM      4  H   UNL     1       1.508   6.602  21.682  0.00  0.00    +0.000 HD
ENDROOT
BRANCH   3   5
ATOM      5  C   UNL     1       2.350   5.655  20.039  0.00  0.00    +0.000 A 
ATOM      6  C   UNL     1       1.586   4.614  19.507  0.00  0.00    +0.000 A 
ATOM      7  C   UNL     1       2.179   3.564  18.808  0.00  0.00    +0.000 A 
ATOM      8  C   UNL     1       3.557   3.543  18.620  0.00  0.00    +0.000 A 
ATOM      9  C   UNL     1       4.357   4.567  19.145  0.00  0.00    +0.000 A 
ATOM     10  C   UNL     1       3.744   5.604  19.878  0.00  0.00    +0.000 A 
BRANCH   9  11
ATOM     11  C   UNL     1       5.793   4.607  18.876  0.00  0.00    +0.000 A 
ATOM     12  N   UNL     1       6.743   5.108  19.642  0.00  0.00    +0.000 NA
ATOM     13  N   UNL     1       7.916   5.010  18.931  0.00  0.00    +0.000 NA
ATOM     14  N   UNL     1       7.711   4.433  17.757  0.00  0.00    +0.000 NA
ATOM     15  N   UNL     1       6.400   4.164  17.728  0.00  0.00    +0.000 N 
ATOM     16  H   UNL     1       6.004   3.703  16.920  0.00  0.00    +0.000 HD
ENDBRANCH   9  11
ENDBRANCH   3   5
BRANCH   2  17
ATOM     17  C   UNL     1       0.956   9.072  21.036  0.00  0.00    +0.000 A 
ATOM     18  C   UNL     1       0.388   8.579  22.231  0.00  0.00    +0.000 A 
ATOM     19  C   UNL     1      -0.400   9.387  23.048  0.00  0.00    +0.000 A 
ATOM     20  C   UNL     1      -0.619  10.711  22.696  0.00  0.00    +0.000 A 
ATOM     21  C   UNL     1      -0.065  11.216  21.518  0.00  0.00    +0.000 A 
ATOM     22  C   UNL     1       0.708  10.405  20.656  0.00  0.00    +0.000 A 
BRANCH  22  23
ATOM     23  C   UNL     1       1.100  10.991  19.321  0.00  0.00    +0.000 C 
BRANCH  23  24
ATOM     24  O   UNL     1      -0.027  11.394  18.553  0.00  0.00    +0.000 OA
BRANCH  24  25
ATOM     25  C   UNL     1      -0.740  10.284  17.999  0.00  0.00    +0.000 C 
BRANCH  25  26
ATOM     26  C   UNL     1      -2.099  10.680  17.478  0.00  0.00    +0.000 A 
ATOM     27  C   UNL     1      -2.521  10.370  16.178  0.00  0.00    +0.000 A 
ATOM     28  C   UNL     1      -3.808  10.706  15.752  0.00  0.00    +0.000 A 
ATOM     29  C   UNL     1      -4.692  11.341  16.623  0.00  0.00    +0.000 A 
ATOM     30  C   UNL     1      -4.290  11.642  17.922  0.00  0.00    +0.000 A 
ATOM     31  C   UNL     1      -3.003  11.312  18.348  0.00  0.00    +0.000 A 
ENDBRANCH  25  26
ENDBRANCH  24  25
ENDBRANCH  23  24
ENDBRANCH  22  23
ENDBRANCH   2  17
TORSDOF 7
ENDMDL
MODEL 4
REMARK VINA RESULT:      -8.1      0.474      1.036
REMARK  Name = 
REMARK  7 active torsions:
REMARK  status: ('A' for Active; 'I' for Inactive)
REMARK    1  A    between atoms: C_2  and  C_15
REMARK    2  A    between atoms: N_3  and  C_4
REMARK    3  A    between atoms: C_8  and  C_9
REMARK    4  A    between atoms: C_20  and  C_21
REMARK    5  A    between atoms: C_21  and  O_22
REMARK    6  A    between atoms: O_22  and  C_23
REMARK    7  A    between atoms: C_23  and  C_24
REMARK                            x       y       z     vdW  Elec       q    Type
REMARK                         _______ _______ _______ _____ _____    ______ ____
ROOT
ATOM      1  O   UNL     1       2.634   5.775  17.615  0.00  0.00    +0.000 OA
ATOM      2  C   UNL     1       3.174   6.831  17.940  0.00  0.00    +0.000 C 
ATOM      3  N   UNL     1       4.526   7.108  17.840  0.00  0.00    +0.000 N 
ATOM      4  H   UNL     1       4.836   8.043  18.058  0.00  0.00    +0.000 HD
ENDROOT
BRANCH   3   5
ATOM      5  C   UNL     1       5.518   6.210  17.365  0.00  0.00    +0.000 A 
ATOM      6  C   UNL     1       6.559   5.732  18.166  0.00  0.00    +0.000 A 
ATOM      7  C   UNL     1       7.492   4.821  17.672  0.00  0.00    +0.000 A 
ATOM      8  C   UNL     1       7.393   4.363  16.363  0.00  0.00    +0.000 A 
ATOM      9  C   UNL     1       6.366   4.824  15.528  0.00  0.00    +0.000 A 
ATOM     10  C   UNL     1       5.450   5.771  16.033  0.00  0.00    +0.000 A 
BRANCH   9  11
ATOM     11  C   UNL     1       6.195   4.281  14.183  0.00  0.00    +0.000 A 
ATOM     12  N   UNL     1       7.123   4.107  13.260  0.00  0.00    +0.000 NA
ATOM     13  N   UNL     1       6.477   3.667  12.129  0.00  0.00    +0.000 NA
ATOM     14  N   UNL     1       5.176   3.539  12.347  0.00  0.00    +0.000 NA
ATOM     15  N   UNL     1       5.002   3.900  13.624  0.00  0.00    +0.000 N 
ATOM     16  H   UNL     1       4.075   3.871  14.028  0.00  0.00    +0.000 HD
ENDBRANCH   9  11
ENDBRANCH   3   5
BRANCH   2  17
ATOM     17  C   UNL     1       2.276   7.858  18.543  0.00  0.00    +0.000 A 
ATOM     18  C   UNL     1       2.061   8.993  17.732  0.00  0.00    +0.000 A 
ATOM     19  C   UNL     1       1.342  10.092  18.197  0.00  0.00    +0.000 A 
ATOM     20  C   UNL     1       0.807  10.068  19.477  0.00  0.00    +0.000 A 
ATOM     21  C   UNL     1       1.008   8.953  20.293  0.00  0.00    +0.000 A 
ATOM     22  C   UNL     1       1.764   7.843  19.854  0.00  0.00    +0.000 A 
BRANCH  22  23
ATOM     23  C   UNL     1       2.082   6.776  20.874  0.00  0.00    +0.000 C 
BRANCH  23  24
ATOM     24  O   UNL     1       1.283   5.610  20.707  0.00  0.00    +0.000 OA
BRANCH  24  25
ATOM     25  C   UNL     1       1.937   4.424  21.168  0.00  0.00    +0.000 C 
BRANCH  25  26
ATOM     26  C   UNL     1       2.439   3.570  20.030  0.00  0.00    +0.000 A 
ATOM     27  C   UNL     1       1.570   2.891  19.166  0.00  0.00    +0.000 A 
ATOM     28  C   UNL     1       2.074   2.155  18.091  0.00  0.00    +0.000 A 
ATOM     29  C   UNL     1       3.447   2.101  17.859  0.00  0.00    +0.000 A 
ATOM     30  C   UNL     1       4.320   2.782  18.703  0.00  0.00    +0.000 A 
ATOM     31  C   UNL     1       3.820   3.514  19.780  0.00  0.00    +0.000 A 
ENDBRANCH  25  26
ENDBRANCH  24  25
ENDBRANCH  23  24
ENDBRANCH  22  23
ENDBRANCH   2  17
TORSDOF 7
ENDMDL
MODEL 5
REMARK VINA RESULT:      -7.8      3.260      6.184
REMARK  Name = 
REMARK  7 active torsions:
REMARK  status: ('A' for Active; 'I' for Inactive)
REMARK    1  A    between atoms: C_2  and  C_15
REMARK    2  A    between atoms: N_3  and  C_4
REMARK    3  A    between atoms: C_8  and  C_9
REMARK    4  A    between atoms: C_20  and  C_21
REMARK    5  A    between atoms: C_21  and  O_22
REMARK    6  A    between atoms: O_22  and  C_23
REMARK    7  A    between atoms: C_23  and  C_24
REMARK                            x       y       z     vdW  Elec       q    Type
REMARK                         _______ _______ _______ _____ _____    ______ ____
ROOT
ATOM      1  O   UNL     1       1.917   8.560  18.439  0.00  0.00    +0.000 OA
ATOM      2  C   UNL     1       1.780   8.096  19.570  0.00  0.00    +0.000 C 
ATOM      3  N   UNL     1       2.074   6.799  19.949  0.00  0.00    +0.000 N 
ATOM      4  H   UNL     1       2.001   6.562  20.927  0.00  0.00    +0.000 HD
ENDROOT
BRANCH   3   5
ATOM      5  C   UNL     1       2.566   5.780  19.089  0.00  0.00    +0.000 A 
ATOM      6  C   UNL     1       1.794   4.689  18.682  0.00  0.00    +0.000 A 
ATOM      7  C   UNL     1       2.301   3.730  17.807  0.00  0.00    +0.000 A 
ATOM      8  C   UNL     1       3.595   3.852  17.313  0.00  0.00    +0.000 A 
ATOM      9  C   UNL     1       4.401   4.931  17.703  0.00  0.00    +0.000 A 
ATOM     10  C   UNL     1       3.884   5.873  18.616  0.00  0.00    +0.000 A 
BRANCH   9  11
ATOM     11  C   UNL     1       5.727   5.122  17.121  0.00  0.00    +0.000 A 
ATOM     12  N   UNL     1       6.155   6.150  16.412  0.00  0.00    +0.000 NA
ATOM     13  N   UNL     1       7.428   5.839  15.995  0.00  0.00    +0.000 NA
ATOM     14  N   UNL     1       7.802   4.656  16.458  0.00  0.00    +0.000 NA
ATOM     15  N   UNL     1       6.757   4.218  17.171  0.00  0.00    +0.000 N 
ATOM     16  H   UNL     1       6.814   3.323  17.640  0.00  0.00    +0.000 HD
ENDBRANCH   9  11
ENDBRANCH   3   5
BRANCH   2  17
ATOM     17  C   UNL     1       1.188   9.020  20.580  0.00  0.00    +0.000 A 
ATOM     18  C   UNL     1       0.792   8.394  21.782  0.00  0.00    +0.000 A 
ATOM     19  C   UNL     1       0.116   9.095  22.778  0.00  0.00    +0.000 A 
ATOM     20  C   UNL     1      -0.157  10.444  22.600  0.00  0.00    +0.000 A 
ATOM     21  C   UNL     1       0.228  11.080  21.419  0.00  0.00    +0.000 A 
ATOM     22  C   UNL     1       0.881  10.379  20.380  0.00  0.00    +0.000 A 
BRANCH  22  23
ATOM     23  C   UNL     1       1.085  11.109  19.074  0.00  0.00    +0.000 C 
BRANCH  23  24
ATOM     24  O   UNL     1      -0.141  11.548  18.501  0.00  0.00    +0.000 OA
BRANCH  24  25
ATOM     25  C   UNL     1      -0.840  10.497  17.826  0.00  0.00    +0.000 C 
BRANCH  25  26
ATOM     26  C   UNL     1      -2.254  10.886  17.472  0.00  0.00    +0.000 A 
ATOM     27  C   UNL     1      -2.801  10.644  16.205  0.00  0.00    +0.000 A 
ATOM     28  C   UNL     1      -4.133  10.969  15.935  0.00  0.00    +0.000 A 
ATOM     29  C   UNL     1      -4.935  11.524  16.931  0.00  0.00    +0.000 A 
ATOM     30  C   UNL     1      -4.407  11.757  18.198  0.00  0.00    +0.000 A 
ATOM     31  C   UNL     1      -3.076  11.438  18.468  0.00  0.00    +0.000 A 
ENDBRANCH  25  26
ENDBRANCH  24  25
ENDBRANCH  23  24
ENDBRANCH  22  23
ENDBRANCH   2  17
TORSDOF 7
ENDMDL
MODEL 6
REMARK VINA RESULT:      -7.8      3.140      6.921
REMARK  Name = 
REMARK  7 active torsions:
REMARK  status: ('A' for Active; 'I' for Inactive)
REMARK    1  A    between atoms: C_2  and  C_15
REMARK    2  A    between atoms: N_3  and  C_4
REMARK    3  A    between atoms: C_8  and  C_9
REMARK    4  A    between atoms: C_20  and  C_21
REMARK    5  A    between atoms: C_21  and  O_22
REMARK    6  A    between atoms: O_22  and  C_23
REMARK    7  A    between atoms: C_23  and  C_24
REMARK                            x       y       z     vdW  Elec       q    Type
REMARK                         _______ _______ _______ _____ _____    ______ ____
ROOT
ATOM      1  O   UNL     1       2.108   5.689  17.840  0.00  0.00    +0.000 OA
ATOM      2  C   UNL     1       3.117   6.312  18.166  0.00  0.00    +0.000 C 
ATOM      3  N   UNL     1       3.150   7.406  19.013  0.00  0.00    +0.000 N 
ATOM      4  H   UNL     1       4.051   7.777  19.274  0.00  0.00    +0.000 HD
ENDROOT
BRANCH   3   5
ATOM      5  C   UNL     1       2.019   8.004  19.630  0.00  0.00    +0.000 A 
ATOM      6  C   UNL     1       1.490   7.559  20.844  0.00  0.00    +0.000 A 
ATOM      7  C   UNL     1       0.401   8.198  21.437  0.00  0.00    +0.000 A 
ATOM      8  C   UNL     1      -0.173   9.307  20.825  0.00  0.00    +0.000 A 
ATOM      9  C   UNL     1       0.327   9.778  19.603  0.00  0.00    +0.000 A 
ATOM     10  C   UNL     1       1.407   9.100  19.001  0.00  0.00    +0.000 A 
BRANCH   9  11
ATOM     11  C   UNL     1      -0.206  10.996  18.997  0.00  0.00    +0.000 A 
ATOM     12  N   UNL     1      -1.359  11.146  18.371  0.00  0.00    +0.000 NA
ATOM     13  N   UNL     1      -1.379  12.433  17.887  0.00  0.00    +0.000 NA
ATOM     14  N   UNL     1      -0.277  13.084  18.227  0.00  0.00    +0.000 NA
ATOM     15  N   UNL     1       0.442  12.202  18.931  0.00  0.00    +0.000 N 
ATOM     16  H   UNL     1       1.336  12.482  19.314  0.00  0.00    +0.000 HD
ENDBRANCH   9  11
ENDBRANCH   3   5
BRANCH   2  17
ATOM     17  C   UNL     1       4.389   5.860  17.532  0.00  0.00    +0.000 A 
ATOM     18  C   UNL     1       4.536   6.246  16.182  0.00  0.00    +0.000 A 
ATOM     19  C   UNL     1       5.611   5.804  15.413  0.00  0.00    +0.000 A 
ATOM     20  C   UNL     1       6.572   4.984  15.988  0.00  0.00    +0.000 A 
ATOM     21  C   UNL     1       6.443   4.593  17.322  0.00  0.00    +0.000 A 
ATOM     22  C   UNL     1       5.342   5.000  18.109  0.00  0.00    +0.000 A 
BRANCH  22  23
ATOM     23  C   UNL     1       5.198   4.372  19.474  0.00  0.00    +0.000 C 
BRANCH  23  24
ATOM     24  O   UNL     1       5.412   2.965  19.450  0.00  0.00    +0.000 OA
BRANCH  24  25
ATOM     25  C   UNL     1       4.490   2.255  20.284  0.00  0.00    +0.000 C 
BRANCH  25  26
ATOM     26  C   UNL     1       3.056   2.619  19.989  0.00  0.00    +0.000 A 
ATOM     27  C   UNL     1       2.344   2.048  18.926  0.00  0.00    +0.000 A 
ATOM     28  C   UNL     1       1.000   2.370  18.720  0.00  0.00    +0.000 A 
ATOM     29  C   UNL     1       0.350   3.252  19.581  0.00  0.00    +0.000 A 
ATOM     30  C   UNL     1       1.043   3.815  20.650  0.00  0.00    +0.000 A 
ATOM     31  C   UNL     1       2.386   3.499  20.855  0.00  0.00    +0.000 A 
ENDBRANCH  25  26
ENDBRANCH  24  25
ENDBRANCH  23  24
ENDBRANCH  22  23
ENDBRANCH   2  17
TORSDOF 7
ENDMDL
MODEL 7
REMARK VINA RESULT:      -7.8      3.110      7.764
REMARK  Name = 
REMARK  7 active torsions:
REMARK  status: ('A' for Active; 'I' for Inactive)
REMARK    1  A    between atoms: C_2  and  C_15
REMARK    2  A    between atoms: N_3  and  C_4
REMARK    3  A    between atoms: C_8  and  C_9
REMARK    4  A    between atoms: C_20  and  C_21
REMARK    5  A    between atoms: C_21  and  O_22
REMARK    6  A    between atoms: O_22  and  C_23
REMARK    7  A    between atoms: C_23  and  C_24
REMARK                            x       y       z     vdW  Elec       q    Type
REMARK                         _______ _______ _______ _____ _____    ______ ____
ROOT
ATOM      1  O   UNL     1       0.970   4.785  19.796  0.00  0.00    +0.000 OA
ATOM      2  C   UNL     1       2.171   4.873  19.541  0.00  0.00    +0.000 C 
ATOM      3  N   UNL     1       2.847   6.042  19.244  0.00  0.00    +0.000 N 
ATOM      4  H   UNL     1       3.849   5.996  19.139  0.00  0.00    +0.000 HD
ENDROOT
BRANCH   3   5
ATOM      5  C   UNL     1       2.263   7.334  19.162  0.00  0.00    +0.000 A 
ATOM      6  C   UNL     1       2.136   8.038  17.961  0.00  0.00    +0.000 A 
ATOM      7  C   UNL     1       1.522   9.289  17.916  0.00  0.00    +0.000 A 
ATOM      8  C   UNL     1       1.014   9.857  19.079  0.00  0.00    +0.000 A 
ATOM      9  C   UNL     1       1.128   9.183  20.303  0.00  0.00    +0.000 A 
ATOM     10  C   UNL     1       1.781   7.934  20.336  0.00  0.00    +0.000 A 
BRANCH   9  11
ATOM     11  C   UNL     1       0.516   9.725  21.515  0.00  0.00    +0.000 A 
ATOM     12  N   UNL     1      -0.119  10.874  21.652  0.00  0.00    +0.000 NA
ATOM     13  N   UNL     1      -0.427  10.996  22.986  0.00  0.00    +0.000 NA
ATOM     14  N   UNL     1      -0.020   9.935  23.666  0.00  0.00    +0.000 NA
ATOM     15  N   UNL     1       0.547   9.137  22.753  0.00  0.00    +0.000 N 
ATOM     16  H   UNL     1       0.927   8.244  23.040  0.00  0.00    +0.000 HD
ENDBRANCH   9  11
ENDBRANCH   3   5
BRANCH   2  17
ATOM     17  C   UNL     1       2.918   3.583  19.502  0.00  0.00    +0.000 A 
ATOM     18  C   UNL     1       3.412   3.157  20.753  0.00  0.00    +0.000 A 
ATOM     19  C   UNL     1       4.230   2.035  20.868  0.00  0.00    +0.000 A 
ATOM     20  C   UNL     1       4.552   1.304  19.733  0.00  0.00    +0.000 A 
ATOM     21  C   UNL     1       4.072   1.710  18.487  0.00  0.00    +0.000 A 
ATOM     22  C   UNL     1       3.271   2.866  18.343  0.00  0.00    +0.000 A 
BRANCH  22  23
ATOM     23  C   UNL     1       2.962   3.323  16.938  0.00  0.00    +0.000 C 
BRANCH  23  24
ATOM     24  O   UNL     1       3.647   4.523  16.595  0.00  0.00    +0.000 OA
BRANCH  24  25
ATOM     25  C   UNL     1       5.014   4.293  16.240  0.00  0.00    +0.000 C 
BRANCH  25  26
ATOM     26  C   UNL     1       5.965   5.142  17.046  0.00  0.00    +0.000 A 
ATOM     27  C   UNL     1       6.702   4.625  18.119  0.00  0.00    +0.000 A 
ATOM     28  C   UNL     1       7.614   5.430  18.806  0.00  0.00    +0.000 A 
ATOM     29  C   UNL     1       7.809   6.755  18.419  0.00  0.00    +0.000 A 
ATOM     30  C   UNL     1       7.092   7.277  17.346  0.00  0.00    +0.000 A 
ATOM     31  C   UNL     1       6.178   6.476  16.662  0.00  0.00    +0.000 A 
ENDBRANCH  25  26
ENDBRANCH  24  25
ENDBRANCH  23  24
ENDBRANCH  22  23
ENDBRANCH   2  17
TORSDOF 7
ENDMDL
MODEL 8
REMARK VINA RESULT:      -7.7      3.163      7.767
REMARK  Name = 
REMARK  7 active torsions:
REMARK  status: ('A' for Active; 'I' for Inactive)
REMARK    1  A    between atoms: C_2  and  C_15
REMARK    2  A    between atoms: N_3  and  C_4
REMARK    3  A    between atoms: C_8  and  C_9
REMARK    4  A    between atoms: C_20  and  C_21
REMARK    5  A    between atoms: C_21  and  O_22
REMARK    6  A    between atoms: O_22  and  C_23
REMARK    7  A    between atoms: C_23  and  C_24
REMARK                            x       y       z     vdW  Elec       q    Type
REMARK                         _______ _______ _______ _____ _____    ______ ____
ROOT
ATOM      1  O   UNL     1       1.607   5.878  20.470  0.00  0.00    +0.000 OA
ATOM      2  C   UNL     1       2.249   5.846  19.421  0.00  0.00    +0.000 C 
ATOM      3  N   UNL     1       2.475   6.923  18.583  0.00  0.00    +0.000 N 
ATOM      4  H   UNL     1       3.092   6.789  17.796  0.00  0.00    +0.000 HD
ENDROOT
BRANCH   3   5
ATOM      5  C   UNL     1       1.986   8.241  18.783  0.00  0.00    +0.000 A 
ATOM      6  C   UNL     1       1.934   9.197  17.766  0.00  0.00    +0.000 A 
ATOM      7  C   UNL     1       1.411  10.469  17.993  0.00  0.00    +0.000 A 
ATOM      8  C   UNL     1       0.918  10.805  19.249  0.00  0.00    +0.000 A 
ATOM      9  C   UNL     1       0.959   9.874  20.297  0.00  0.00    +0.000 A 
ATOM     10  C   UNL     1       1.522   8.603  20.058  0.00  0.00    +0.000 A 
BRANCH   9  11
ATOM     11  C   UNL     1       0.360  10.181  21.593  0.00  0.00    +0.000 A 
ATOM     12  N   UNL     1       0.192   9.365  22.617  0.00  0.00    +0.000 NA
ATOM     13  N   UNL     1      -0.501  10.069  23.573  0.00  0.00    +0.000 NA
ATOM     14  N   UNL     1      -0.738  11.308  23.170  0.00  0.00    +0.000 NA
ATOM     15  N   UNL     1      -0.188  11.386  21.952  0.00  0.00    +0.000 N 
ATOM     16  H   UNL     1      -0.232  12.258  21.441  0.00  0.00    +0.000 HD
ENDBRANCH   9  11
ENDBRANCH   3   5
BRANCH   2  17
ATOM     17  C   UNL     1       2.764   4.506  19.020  0.00  0.00    +0.000 A 
ATOM     18  C   UNL     1       1.763   3.586  18.640  0.00  0.00    +0.000 A 
ATOM     19  C   UNL     1       2.068   2.258  18.350  0.00  0.00    +0.000 A 
ATOM     20  C   UNL     1       3.385   1.829  18.415  0.00  0.00    +0.000 A 
ATOM     21  C   UNL     1       4.390   2.724  18.787  0.00  0.00    +0.000 A 
ATOM     22  C   UNL     1       4.098   4.066  19.121  0.00  0.00    +0.000 A 
BRANCH  22  23
ATOM     23  C   UNL     1       5.221   4.898  19.691  0.00  0.00    +0.000 C 
BRANCH  23  24
ATOM     24  O   UNL     1       6.501   4.457  19.250  0.00  0.00    +0.000 OA
BRANCH  24  25
ATOM     25  C   UNL     1       7.141   5.404  18.389  0.00  0.00    +0.000 C 
BRANCH  25  26
ATOM     26  C   UNL     1       6.656   5.300  16.964  0.00  0.00    +0.000 A 
ATOM     27  C   UNL     1       7.062   4.267  16.110  0.00  0.00    +0.000 A 
ATOM     28  C   UNL     1       6.547   4.174  14.815  0.00  0.00    +0.000 A 
ATOM     29  C   UNL     1       5.610   5.103  14.365  0.00  0.00    +0.000 A 
ATOM     30  C   UNL     1       5.188   6.127  15.209  0.00  0.00    +0.000 A 
ATOM     31  C   UNL     1       5.705   6.224  16.501  0.00  0.00    +0.000 A 
ENDBRANCH  25  26
ENDBRANCH  24  25
ENDBRANCH  23  24
ENDBRANCH  22  23
ENDBRANCH   2  17
TORSDOF 7
ENDMDL
MODEL 9
REMARK VINA RESULT:      -7.7      3.027      6.932
REMARK  Name = 
REMARK  7 active torsions:
REMARK  status: ('A' for Active; 'I' for Inactive)
REMARK    1  A    between atoms: C_2  and  C_15
REMARK    2  A    between atoms: N_3  and  C_4
REMARK    3  A    between atoms: C_8  and  C_9
REMARK    4  A    between atoms: C_20  and  C_21
REMARK    5  A    between atoms: C_21  and  O_22
REMARK    6  A    between atoms: O_22  and  C_23
REMARK    7  A    between atoms: C_23  and  C_24
REMARK                            x       y       z     vdW  Elec       q    Type
REMARK                         _______ _______ _______ _____ _____    ______ ____
ROOT
ATOM      1  O   UNL     1       4.074   5.633  19.661  0.00  0.00    +0.000 OA
ATOM      2  C   UNL     1       4.120   6.209  18.574  0.00  0.00    +0.000 C 
ATOM      3  N   UNL     1       3.326   7.276  18.195  0.00  0.00    +0.000 N 
ATOM      4  H   UNL     1       3.519   7.719  17.310  0.00  0.00    +0.000 HD
ENDROOT
BRANCH   3   5
ATOM      5  C   UNL     1       2.311   7.872  18.990  0.00  0.00    +0.000 A 
ATOM      6  C   UNL     1       2.020   7.456  20.292  0.00  0.00    +0.000 A 
ATOM      7  C   UNL     1       1.041   8.091  21.054  0.00  0.00    +0.000 A 
ATOM      8  C   UNL     1       0.337   9.168  20.525  0.00  0.00    +0.000 A 
ATOM      9  C   UNL     1       0.597   9.610  19.220  0.00  0.00    +0.000 A 
ATOM     10  C   UNL     1       1.567   8.935  18.452  0.00  0.00    +0.000 A 
BRANCH   9  11
ATOM     11  C   UNL     1      -0.067  10.797  18.687  0.00  0.00    +0.000 A 
ATOM     12  N   UNL     1       0.138  12.056  19.027  0.00  0.00    +0.000 NA
ATOM     13  N   UNL     1      -0.785  12.806  18.335  0.00  0.00    +0.000 NA
ATOM     14  N   UNL     1      -1.532  12.038  17.557  0.00  0.00    +0.000 NA
ATOM     15  N   UNL     1      -1.076  10.795  17.759  0.00  0.00    +0.000 N 
ATOM     16  H   UNL     1      -1.493  10.024  17.253  0.00  0.00    +0.000 HD
ENDBRANCH   9  11
ENDBRANCH   3   5
BRANCH   2  17
ATOM     17  C   UNL     1       5.083   5.646  17.585  0.00  0.00    +0.000 A 
ATOM     18  C   UNL     1       6.266   6.401  17.428  0.00  0.00    +0.000 A 
ATOM     19  C   UNL     1       7.213   6.075  16.460  0.00  0.00    +0.000 A 
ATOM     20  C   UNL     1       7.005   4.973  15.643  0.00  0.00    +0.000 A 
ATOM     21  C   UNL     1       5.842   4.213  15.785  0.00  0.00    +0.000 A 
ATOM     22  C   UNL     1       4.851   4.548  16.735  0.00  0.00    +0.000 A 
BRANCH  22  23
ATOM     23  C   UNL     1       3.552   3.781  16.680  0.00  0.00    +0.000 C 
BRANCH  23  24
ATOM     24  O   UNL     1       3.695   2.439  17.133  0.00  0.00    +0.000 OA
BRANCH  24  25
ATOM     25  C   UNL     1       2.507   1.942  17.759  0.00  0.00    +0.000 C 
BRANCH  25  26
ATOM     26  C   UNL     1       2.239   2.607  19.086  0.00  0.00    +0.000 A 
ATOM     27  C   UNL     1       1.162   3.481  19.280  0.00  0.00    +0.000 A 
ATOM     28  C   UNL     1       0.916   4.033  20.539  0.00  0.00    +0.000 A 
ATOM     29  C   UNL     1       1.732   3.706  21.620  0.00  0.00    +0.000 A 
ATOM     30  C   UNL     1       2.798   2.827  21.444  0.00  0.00    +0.000 A 
ATOM     31  C   UNL     1       3.048   2.278  20.186  0.00  0.00    +0.000 A 
ENDBRANCH  25  26
ENDBRANCH  24  25
ENDBRANCH  23  24
ENDBRANCH  22  23
ENDBRANCH   2  17
TORSDOF 7
ENDMDL
