MODEL 1
REMARK VINA RESULT:      -9.0      0.000      0.000
REMARK  Name = 
REMARK  6 active torsions:
REMARK  status: ('A' for Active; 'I' for Inactive)
REMARK    1  A    between atoms: C_1  and  C_2
REMARK    2  A    between atoms: N_6  and  C_7
REMARK    3  A    between atoms: C_12  and  N_13
REMARK    4  A    between atoms: N_13  and  S_14
REMARK    5  A    between atoms: S_14  and  C_17
REMARK    6  A    between atoms: C_22  and  C_23
REMARK                            x       y       z     vdW  Elec       q    Type
REMARK                         _______ _______ _______ _____ _____    ______ ____
ROOT
ATOM      1  N   UNL     1       4.372   2.819  18.031  0.00  0.00    +0.000 N 
ATOM      2  H   UNL     1       4.467   2.519  19.006  0.00  0.00    +0.000 HD
ENDROOT
BRANCH   1   8
ATOM      3  C   UNL     1       6.630   4.873  15.862  0.00  0.00    +0.000 A 
ATOM      4  C   UNL     1       7.134   5.794  16.789  0.00  0.00    +0.000 A 
ATOM      5  C   UNL     1       6.711   5.740  18.122  0.00  0.00    +0.000 A 
ATOM      6  C   UNL     1       5.808   4.759  18.527  0.00  0.00    +0.000 A 
ATOM      7  F   UNL     1       5.432   4.713  19.814  0.00  0.00    +0.000 F 
ATOM      8  C   UNL     1       5.312   3.824  17.617  0.00  0.00    +0.000 A 
ATOM      9  C   UNL     1       5.692   3.903  16.279  0.00  0.00    +0.000 A 
BRANCH   3  15
ATOM     10  C   UNL     1       5.187   3.582  13.268  0.00  0.00    +0.000 C 
ATOM     11  C   UNL     1       6.484   4.280  13.368  0.00  0.00    +0.000 A 
ATOM     12  N   UNL     1       7.284   4.539  12.353  0.00  0.00    +0.000 NA
ATOM     13  N   UNL     1       8.225   5.417  12.810  0.00  0.00    +0.000 NA
ATOM     14  N   UNL     1       8.020   5.708  14.083  0.00  0.00    +0.000 NA
ATOM     15  N   UNL     1       6.993   4.925  14.490  0.00  0.00    +0.000 N 
ENDBRANCH   3  15
ENDBRANCH   1   8
BRANCH   1  16
ATOM     16  S   UNL     1       2.727   3.138  17.748  0.00  0.00    +0.000 S 
ATOM     17  O   UNL     1       2.573   3.488  16.355  0.00  0.00    +0.000 OA
ATOM     18  O   UNL     1       1.948   2.063  18.326  0.00  0.00    +0.000 OA
BRANCH  16  19
ATOM     19  C   UNL     1       2.412   4.627  18.687  0.00  0.00    +0.000 A 
ATOM     20  C   UNL     1       2.441   5.834  17.963  0.00  0.00    +0.000 A 
ATOM     21  C   UNL     1       2.269   7.061  18.605  0.00  0.00    +0.000 A 
ATOM     22  C   UNL     1       2.051   7.098  19.974  0.00  0.00    +0.000 A 
ATOM     23  C   UNL     1       2.031   5.909  20.702  0.00  0.00    +0.000 A 
ATOM     24  C   UNL     1       2.228   4.649  20.083  0.00  0.00    +0.000 A 
BRANCH  24  25
ATOM     25  C   UNL     1       2.249   3.461  21.014  0.00  0.00    +0.000 C 
ATOM     26  F   UNL     1       2.258   3.714  22.344  0.00  0.00    +0.000 F 
ATOM     27  F   UNL     1       1.186   2.633  20.793  0.00  0.00    +0.000 F 
ATOM     28  F   UNL     1       3.352   2.685  20.798  0.00  0.00    +0.000 F 
ENDBRANCH  24  25
ENDBRANCH  16  19
ENDBRANCH   1  16
TORSDOF 5
ENDMDL
MODEL 2
REMARK VINA RESULT:      -8.3      4.167      5.299
REMARK  Name = 
REMARK  6 active torsions:
REMARK  status: ('A' for Active; 'I' for Inactive)
REMARK    1  A    between atoms: C_1  and  C_2
REMARK    2  A    between atoms: N_6  and  C_7
REMARK    3  A    between atoms: C_12  and  N_13
REMARK    4  A    between atoms: N_13  and  S_14
REMARK    5  A    between atoms: S_14  and  C_17
REMARK    6  A    between atoms: C_22  and  C_23
REMARK                            x       y       z     vdW  Elec       q    Type
REMARK                         _______ _______ _______ _____ _____    ______ ____
ROOT
ATOM      1  N   UNL     1       2.693   7.031  19.454  0.00  0.00    +0.000 N 
ATOM      2  H   UNL     1       3.481   7.404  19.991  0.00  0.00    +0.000 HD
ENDROOT
BRANCH   1   8
ATOM      3  C   UNL     1       4.451   4.873  16.949  0.00  0.00    +0.000 A 
ATOM      4  C   UNL     1       3.665   3.714  16.989  0.00  0.00    +0.000 A 
ATOM      5  C   UNL     1       2.568   3.648  17.857  0.00  0.00    +0.000 A 
ATOM      6  C   UNL     1       2.250   4.741  18.661  0.00  0.00    +0.000 A 
ATOM      7  F   UNL     1       1.182   4.663  19.470  0.00  0.00    +0.000 F 
ATOM      8  C   UNL     1       3.014   5.908  18.617  0.00  0.00    +0.000 A 
ATOM      9  C   UNL     1       4.135   5.961  17.791  0.00  0.00    +0.000 A 
BRANCH   3  15
ATOM     10  C   UNL     1       7.588   4.605  17.698  0.00  0.00    +0.000 C 
ATOM     11  C   UNL     1       6.959   4.988  16.417  0.00  0.00    +0.000 A 
ATOM     12  N   UNL     1       7.613   5.255  15.304  0.00  0.00    +0.000 NA
ATOM     13  N   UNL     1       6.683   5.295  14.305  0.00  0.00    +0.000 NA
ATOM     14  N   UNL     1       5.472   5.055  14.777  0.00  0.00    +0.000 NA
ATOM     15  N   UNL     1       5.602   4.963  16.122  0.00  0.00    +0.000 N 
ENDBRANCH   3  15
ENDBRANCH   1   8
BRANCH   1  16
ATOM     16  S   UNL     1       1.905   8.343  18.714  0.00  0.00    +0.000 S 
ATOM     17  O   UNL     1       2.912   9.284  18.282  0.00  0.00    +0.000 OA
ATOM     18  O   UNL     1       0.936   7.821  17.774  0.00  0.00    +0.000 OA
BRANCH  16  19
ATOM     19  C   UNL     1       1.019   9.123  20.058  0.00  0.00    +0.000 A 
ATOM     20  C   UNL     1       1.166   8.528  21.325  0.00  0.00    +0.000 A 
ATOM     21  C   UNL     1       0.473   9.017  22.433  0.00  0.00    +0.000 A 
ATOM     22  C   UNL     1      -0.364  10.114  22.293  0.00  0.00    +0.000 A 
ATOM     23  C   UNL     1      -0.526  10.703  21.040  0.00  0.00    +0.000 A 
ATOM     24  C   UNL     1       0.145  10.214  19.891  0.00  0.00    +0.000 A 
BRANCH  24  25
ATOM     25  C   UNL     1      -0.188  10.914  18.595  0.00  0.00    +0.000 C 
ATOM     26  F   UNL     1      -0.675  10.155  17.586  0.00  0.00    +0.000 F 
ATOM     27  F   UNL     1      -1.093  11.918  18.786  0.00  0.00    +0.000 F 
ATOM     28  F   UNL     1       0.914  11.527  18.069  0.00  0.00    +0.000 F 
ENDBRANCH  24  25
ENDBRANCH  16  19
ENDBRANCH   1  16
TORSDOF 5
ENDMDL
MODEL 3
REMARK VINA RESULT:      -8.2      0.864      1.456
REMARK  Name = 
REMARK  6 active torsions:
REMARK  status: ('A' for Active; 'I' for Inactive)
REMARK    1  A    between atoms: C_1  and  C_2
REMARK    2  A    between atoms: N_6  and  C_7
REMARK    3  A    between atoms: C_12  and  N_13
REMARK    4  A    between atoms: N_13  and  S_14
REMARK    5  A    between atoms: S_14  and  C_17
REMARK    6  A    between atoms: C_22  and  C_23
REMARK                            x       y       z     vdW  Elec       q    Type
REMARK                         _______ _______ _______ _____ _____    ______ ____
ROOT
ATOM      1  N   UNL     1       4.525   3.055  18.082  0.00  0.00    +0.000 N 
ATOM      2  H   UNL     1       4.713   3.025  19.088  0.00  0.00    +0.000 HD
ENDROOT
BRANCH   1   8
ATOM      3  C   UNL     1       6.438   4.591  15.252  0.00  0.00    +0.000 A 
ATOM      4  C   UNL     1       6.986   5.720  15.875  0.00  0.00    +0.000 A 
ATOM      5  C   UNL     1       6.705   5.974  17.223  0.00  0.00    +0.000 A 
ATOM      6  C   UNL     1       5.901   5.094  17.945  0.00  0.00    +0.000 A 
ATOM      7  F   UNL     1       5.662   5.347  19.241  0.00  0.00    +0.000 F 
ATOM      8  C   UNL     1       5.364   3.956  17.341  0.00  0.00    +0.000 A 
ATOM      9  C   UNL     1       5.600   3.724  15.987  0.00  0.00    +0.000 A 
BRANCH   3  15
ATOM     10  C   UNL     1       8.628   5.812  13.205  0.00  0.00    +0.000 C 
ATOM     11  C   UNL     1       7.486   4.916  12.932  0.00  0.00    +0.000 A 
ATOM     12  N   UNL     1       7.188   4.410  11.752  0.00  0.00    +0.000 NA
ATOM     13  N   UNL     1       6.251   3.440  11.967  0.00  0.00    +0.000 NA
ATOM     14  N   UNL     1       5.969   3.333  13.254  0.00  0.00    +0.000 NA
ATOM     15  N   UNL     1       6.654   4.323  13.874  0.00  0.00    +0.000 N 
ENDBRANCH   3  15
ENDBRANCH   1   8
BRANCH   1  16
ATOM     16  S   UNL     1       2.847   3.218  17.875  0.00  0.00    +0.000 S 
ATOM     17  O   UNL     1       2.593   3.508  16.483  0.00  0.00    +0.000 OA
ATOM     18  O   UNL     1       2.197   2.097  18.522  0.00  0.00    +0.000 OA
BRANCH  16  19
ATOM     19  C   UNL     1       2.444   4.702  18.788  0.00  0.00    +0.000 A 
ATOM     20  C   UNL     1       2.423   5.899  18.047  0.00  0.00    +0.000 A 
ATOM     21  C   UNL     1       2.181   7.124  18.668  0.00  0.00    +0.000 A 
ATOM     22  C   UNL     1       1.943   7.170  20.034  0.00  0.00    +0.000 A 
ATOM     23  C   UNL     1       1.973   5.992  20.779  0.00  0.00    +0.000 A 
ATOM     24  C   UNL     1       2.241   4.735  20.181  0.00  0.00    +0.000 A 
BRANCH  24  25
ATOM     25  C   UNL     1       2.309   3.563  21.130  0.00  0.00    +0.000 C 
ATOM     26  F   UNL     1       3.353   2.713  20.995  0.00  0.00    +0.000 F 
ATOM     27  F   UNL     1       2.319   3.973  22.432  0.00  0.00    +0.000 F 
ATOM     28  F   UNL     1       1.199   2.773  21.018  0.00  0.00    +0.000 F 
ENDBRANCH  24  25
ENDBRANCH  16  19
ENDBRANCH   1  16
TORSDOF 5
ENDMDL
MODEL 4
REMARK VINA RESULT:      -8.2      1.641      2.451
REMARK  Name = 
REMARK  6 active torsions:
REMARK  status: ('A' for Active; 'I' for Inactive)
REMARK    1  A    between atoms: C_1  and  C_2
REMARK    2  A    between atoms: N_6  and  C_7
REMARK    3  A    between atoms: C_12  and  N_13
REMARK    4  A    between atoms: N_13  and  S_14
REMARK    5  A    between atoms: S_14  and  C_17
REMARK    6  A    between atoms: C_22  and  C_23
REMARK                            x       y       z     vdW  Elec       q    Type
REMARK                         _______ _______ _______ _____ _____    ______ ____
ROOT
ATOM      1  N   UNL     1       3.431   5.305  17.409  0.00  0.00    +0.000 N 
ATOM      2  H   UNL     1       2.982   5.976  16.778  0.00  0.00    +0.000 HD
ENDROOT
BRANCH   1   8
ATOM      3  C   UNL     1       6.616   4.832  15.497  0.00  0.00    +0.000 A 
ATOM      4  C   UNL     1       7.512   4.531  16.532  0.00  0.00    +0.000 A 
ATOM      5  C   UNL     1       7.060   4.503  17.856  0.00  0.00    +0.000 A 
ATOM      6  C   UNL     1       5.718   4.753  18.139  0.00  0.00    +0.000 A 
ATOM      7  F   UNL     1       5.302   4.700  19.414  0.00  0.00    +0.000 F 
ATOM      8  C   UNL     1       4.812   5.036  17.116  0.00  0.00    +0.000 A 
ATOM      9  C   UNL     1       5.267   5.113  15.801  0.00  0.00    +0.000 A 
BRANCH   3  15
ATOM     10  C   UNL     1       5.464   3.387  12.840  0.00  0.00    +0.000 C 
ATOM     11  C   UNL     1       6.670   4.225  13.004  0.00  0.00    +0.000 A 
ATOM     12  N   UNL     1       7.489   4.569  12.031  0.00  0.00    +0.000 NA
ATOM     13  N   UNL     1       8.302   5.545  12.530  0.00  0.00    +0.000 NA
ATOM     14  N   UNL     1       7.999   5.814  13.789  0.00  0.00    +0.000 NA
ATOM     15  N   UNL     1       7.044   4.922  14.146  0.00  0.00    +0.000 N 
ENDBRANCH   3  15
ENDBRANCH   1   8
BRANCH   1  16
ATOM     16  S   UNL     1       2.398   3.963  17.553  0.00  0.00    +0.000 S 
ATOM     17  O   UNL     1       1.081   4.362  17.114  0.00  0.00    +0.000 OA
ATOM     18  O   UNL     1       3.055   2.818  16.960  0.00  0.00    +0.000 OA
BRANCH  16  19
ATOM     19  C   UNL     1       2.290   3.695  19.318  0.00  0.00    +0.000 A 
ATOM     20  C   UNL     1       2.215   2.353  19.737  0.00  0.00    +0.000 A 
ATOM     21  C   UNL     1       2.066   2.029  21.086  0.00  0.00    +0.000 A 
ATOM     22  C   UNL     1       2.004   3.038  22.035  0.00  0.00    +0.000 A 
ATOM     23  C   UNL     1       2.066   4.371  21.629  0.00  0.00    +0.000 A 
ATOM     24  C   UNL     1       2.192   4.733  20.265  0.00  0.00    +0.000 A 
BRANCH  24  25
ATOM     25  C   UNL     1       2.173   6.215  19.979  0.00  0.00    +0.000 C 
ATOM     26  F   UNL     1       3.360   6.813  19.723  0.00  0.00    +0.000 F 
ATOM     27  F   UNL     1       1.362   6.511  18.922  0.00  0.00    +0.000 F 
ATOM     28  F   UNL     1       1.651   6.913  21.031  0.00  0.00    +0.000 F 
ENDBRANCH  24  25
ENDBRANCH  16  19
ENDBRANCH   1  16
TORSDOF 5
ENDMDL
MODEL 5
REMARK VINA RESULT:      -8.1      5.235      6.253
REMARK  Name = 
REMARK  6 active torsions:
REMARK  status: ('A' for Active; 'I' for Inactive)
REMARK    1  A    between atoms: C_1  and  C_2
REMARK    2  A    between atoms: N_6  and  C_7
REMARK    3  A    between atoms: C_12  and  N_13
REMARK    4  A    between atoms: N_13  and  S_14
REMARK    5  A    between atoms: S_14  and  C_17
REMARK    6  A    between atoms: C_22  and  C_23
REMARK                            x       y       z     vdW  Elec       q    Type
REMARK                         _______ _______ _______ _____ _____    ______ ____
ROOT
ATOM      1  N   UNL     1       1.401   8.166  17.925  0.00  0.00    +0.000 N 
ATOM      2  H   UNL     1       0.455   7.780  18.000  0.00  0.00    +0.000 HD
ENDROOT
BRANCH   1   8
ATOM      3  C   UNL     1       4.639   6.286  17.886  0.00  0.00    +0.000 A 
ATOM      4  C   UNL     1       4.520   5.514  19.050  0.00  0.00    +0.000 A 
ATOM      5  C   UNL     1       3.376   5.635  19.848  0.00  0.00    +0.000 A 
ATOM      6  C   UNL     1       2.353   6.503  19.473  0.00  0.00    +0.000 A 
ATOM      7  F   UNL     1       1.257   6.587  20.242  0.00  0.00    +0.000 F 
ATOM      8  C   UNL     1       2.451   7.263  18.306  0.00  0.00    +0.000 A 
ATOM      9  C   UNL     1       3.608   7.183  17.533  0.00  0.00    +0.000 A 
BRANCH   3  15
ATOM     10  C   UNL     1       5.369   4.347  15.399  0.00  0.00    +0.000 C 
ATOM     11  C   UNL     1       6.214   5.339  16.094  0.00  0.00    +0.000 A 
ATOM     12  N   UNL     1       7.455   5.638  15.764  0.00  0.00    +0.000 NA
ATOM     13  N   UNL     1       7.783   6.767  16.458  0.00  0.00    +0.000 NA
ATOM     14  N   UNL     1       6.770   7.174  17.205  0.00  0.00    +0.000 NA
ATOM     15  N   UNL     1       5.804   6.233  17.076  0.00  0.00    +0.000 N 
ENDBRANCH   3  15
ENDBRANCH   1   8
BRANCH   1  16
ATOM     16  S   UNL     1       1.394   9.696  18.664  0.00  0.00    +0.000 S 
ATOM     17  O   UNL     1       1.478   9.503  20.094  0.00  0.00    +0.000 OA
ATOM     18  O   UNL     1       2.353  10.538  17.979  0.00  0.00    +0.000 OA
BRANCH  16  19
ATOM     19  C   UNL     1      -0.246  10.326  18.329  0.00  0.00    +0.000 A 
ATOM     20  C   UNL     1      -1.040   9.556  17.458  0.00  0.00    +0.000 A 
ATOM     21  C   UNL     1      -2.312   9.983  17.080  0.00  0.00    +0.000 A 
ATOM     22  C   UNL     1      -2.815  11.177  17.575  0.00  0.00    +0.000 A 
ATOM     23  C   UNL     1      -2.032  11.953  18.428  0.00  0.00    +0.000 A 
ATOM     24  C   UNL     1      -0.726  11.559  18.812  0.00  0.00    +0.000 A 
BRANCH  24  25
ATOM     25  C   UNL     1       0.022  12.539  19.683  0.00  0.00    +0.000 C 
ATOM     26  F   UNL     1       0.438  12.103  20.895  0.00  0.00    +0.000 F 
ATOM     27  F   UNL     1       1.132  13.024  19.053  0.00  0.00    +0.000 F 
ATOM     28  F   UNL     1      -0.741  13.641  19.952  0.00  0.00    +0.000 F 
ENDBRANCH  24  25
ENDBRANCH  16  19
ENDBRANCH   1  16
TORSDOF 5
ENDMDL
MODEL 6
REMARK VINA RESULT:      -8.0      4.185      5.355
REMARK  Name = 
REMARK  6 active torsions:
REMARK  status: ('A' for Active; 'I' for Inactive)
REMARK    1  A    between atoms: C_1  and  C_2
REMARK    2  A    between atoms: N_6  and  C_7
REMARK    3  A    between atoms: C_12  and  N_13
REMARK    4  A    between atoms: N_13  and  S_14
REMARK    5  A    between atoms: S_14  and  C_17
REMARK    6  A    between atoms: C_22  and  C_23
REMARK                            x       y       z     vdW  Elec       q    Type
REMARK                         _______ _______ _______ _____ _____    ______ ____
ROOT
ATOM      1  N   UNL     1       2.490   6.760  20.001  0.00  0.00    +0.000 N 
ATOM      2  H   UNL     1       3.156   7.139  20.681  0.00  0.00    +0.000 HD
ENDROOT
BRANCH   1   8
ATOM      3  C   UNL     1       4.716   4.488  18.026  0.00  0.00    +0.000 A 
ATOM      4  C   UNL     1       3.895   3.362  17.879  0.00  0.00    +0.000 A 
ATOM      5  C   UNL     1       2.616   3.356  18.449  0.00  0.00    +0.000 A 
ATOM      6  C   UNL     1       2.157   4.475  19.141  0.00  0.00    +0.000 A 
ATOM      7  F   UNL     1       0.921   4.456  19.661  0.00  0.00    +0.000 F 
ATOM      8  C   UNL     1       2.959   5.610  19.279  0.00  0.00    +0.000 A 
ATOM      9  C   UNL     1       4.250   5.603  18.755  0.00  0.00    +0.000 A 
BRANCH   3  15
ATOM     10  C   UNL     1       5.776   5.109  15.031  0.00  0.00    +0.000 C 
ATOM     11  C   UNL     1       6.528   4.644  16.215  0.00  0.00    +0.000 A 
ATOM     12  N   UNL     1       7.829   4.437  16.250  0.00  0.00    +0.000 NA
ATOM     13  N   UNL     1       8.165   4.281  17.564  0.00  0.00    +0.000 NA
ATOM     14  N   UNL     1       7.101   4.392  18.340  0.00  0.00    +0.000 NA
ATOM     15  N   UNL     1       6.038   4.515  17.509  0.00  0.00    +0.000 N 
ENDBRANCH   3  15
ENDBRANCH   1   8
BRANCH   1  16
ATOM     16  S   UNL     1       1.896   8.059  19.081  0.00  0.00    +0.000 S 
ATOM     17  O   UNL     1       3.021   8.863  18.663  0.00  0.00    +0.000 OA
ATOM     18  O   UNL     1       0.964   7.537  18.104  0.00  0.00    +0.000 OA
BRANCH  16  19
ATOM     19  C   UNL     1       0.979   9.038  20.264  0.00  0.00    +0.000 A 
ATOM     20  C   UNL     1       0.993   8.576  21.594  0.00  0.00    +0.000 A 
ATOM     21  C   UNL     1       0.263   9.227  22.588  0.00  0.00    +0.000 A 
ATOM     22  C   UNL     1      -0.479  10.356  22.271  0.00  0.00    +0.000 A 
ATOM     23  C   UNL     1      -0.509  10.815  20.955  0.00  0.00    +0.000 A 
ATOM     24  C   UNL     1       0.202  10.160  19.918  0.00  0.00    +0.000 A 
BRANCH  24  25
ATOM     25  C   UNL     1       0.014  10.735  18.535  0.00  0.00    +0.000 C 
ATOM     26  F   UNL     1      -0.543   9.933  17.598  0.00  0.00    +0.000 F 
ATOM     27  F   UNL     1      -0.746  11.870  18.563  0.00  0.00    +0.000 F 
ATOM     28  F   UNL     1       1.208  11.124  17.996  0.00  0.00    +0.000 F 
ENDBRANCH  24  25
ENDBRANCH  16  19
ENDBRANCH   1  16
TORSDOF 5
ENDMDL
MODEL 7
REMARK VINA RESULT:      -7.8      2.980      4.396
REMARK  Name = 
REMARK  6 active torsions:
REMARK  status: ('A' for Active; 'I' for Inactive)
REMARK    1  A    between atoms: C_1  and  C_2
REMARK    2  A    between atoms: N_6  and  C_7
REMARK    3  A    between atoms: C_12  and  N_13
REMARK    4  A    between atoms: N_13  and  S_14
REMARK    5  A    between atoms: S_14  and  C_17
REMARK    6  A    between atoms: C_22  and  C_23
REMARK                            x       y       z     vdW  Elec       q    Type
REMARK                         _______ _______ _______ _____ _____    ______ ____
ROOT
ATOM      1  N   UNL     1       1.804   5.512  18.663  0.00  0.00    +0.000 N 
ATOM      2  H   UNL     1       0.820   5.250  18.774  0.00  0.00    +0.000 HD
ENDROOT
BRANCH   1   8
ATOM      3  C   UNL     1       4.547   3.970  16.634  0.00  0.00    +0.000 A 
ATOM      4  C   UNL     1       4.229   2.609  16.736  0.00  0.00    +0.000 A 
ATOM      5  C   UNL     1       3.119   2.210  17.489  0.00  0.00    +0.000 A 
ATOM      6  C   UNL     1       2.323   3.166  18.117  0.00  0.00    +0.000 A 
ATOM      7  F   UNL     1       1.252   2.763  18.817  0.00  0.00    +0.000 F 
ATOM      8  C   UNL     1       2.618   4.526  18.008  0.00  0.00    +0.000 A 
ATOM      9  C   UNL     1       3.750   4.926  17.299  0.00  0.00    +0.000 A 
BRANCH   3  15
ATOM     10  C   UNL     1       7.533   4.637  17.690  0.00  0.00    +0.000 C 
ATOM     11  C   UNL     1       6.946   4.838  16.350  0.00  0.00    +0.000 A 
ATOM     12  N   UNL     1       7.595   5.308  15.303  0.00  0.00    +0.000 NA
ATOM     13  N   UNL     1       6.797   5.088  14.217  0.00  0.00    +0.000 NA
ATOM     14  N   UNL     1       5.673   4.488  14.570  0.00  0.00    +0.000 NA
ATOM     15  N   UNL     1       5.693   4.414  15.923  0.00  0.00    +0.000 N 
ENDBRANCH   3  15
ENDBRANCH   1   8
BRANCH   1  16
ATOM     16  S   UNL     1       2.355   6.094  20.162  0.00  0.00    +0.000 S 
ATOM     17  O   UNL     1       1.824   5.238  21.197  0.00  0.00    +0.000 OA
ATOM     18  O   UNL     1       3.780   6.329  20.063  0.00  0.00    +0.000 OA
BRANCH  16  19
ATOM     19  C   UNL     1       1.537   7.675  20.335  0.00  0.00    +0.000 A 
ATOM     20  C   UNL     1       0.779   7.854  21.508  0.00  0.00    +0.000 A 
ATOM     21  C   UNL     1       0.050   9.024  21.720  0.00  0.00    +0.000 A 
ATOM     22  C   UNL     1       0.078  10.036  20.770  0.00  0.00    +0.000 A 
ATOM     23  C   UNL     1       0.816   9.863  19.600  0.00  0.00    +0.000 A 
ATOM     24  C   UNL     1       1.547   8.676  19.345  0.00  0.00    +0.000 A 
BRANCH  24  25
ATOM     25  C   UNL     1       2.237   8.611  18.004  0.00  0.00    +0.000 C 
ATOM     26  F   UNL     1       3.539   8.241  17.992  0.00  0.00    +0.000 F 
ATOM     27  F   UNL     1       1.594   7.762  17.150  0.00  0.00    +0.000 F 
ATOM     28  F   UNL     1       2.213   9.825  17.378  0.00  0.00    +0.000 F 
ENDBRANCH  24  25
ENDBRANCH  16  19
ENDBRANCH   1  16
TORSDOF 5
ENDMDL
MODEL 8
REMARK VINA RESULT:      -7.8      5.108      6.286
REMARK  Name = 
REMARK  6 active torsions:
REMARK  status: ('A' for Active; 'I' for Inactive)
REMARK    1  A    between atoms: C_1  and  C_2
REMARK    2  A    between atoms: N_6  and  C_7
REMARK    3  A    between atoms: C_12  and  N_13
REMARK    4  A    between atoms: N_13  and  S_14
REMARK    5  A    between atoms: S_14  and  C_17
REMARK    6  A    between atoms: C_22  and  C_23
REMARK                            x       y       z     vdW  Elec       q    Type
REMARK                         _______ _______ _______ _____ _____    ______ ____
ROOT
ATOM      1  N   UNL     1       1.372   8.015  18.057  0.00  0.00    +0.000 N 
ATOM      2  H   UNL     1       0.427   7.664  18.235  0.00  0.00    +0.000 HD
ENDROOT
BRANCH   1   8
ATOM      3  C   UNL     1       4.557   6.054  17.866  0.00  0.00    +0.000 A 
ATOM      4  C   UNL     1       4.506   5.334  19.068  0.00  0.00    +0.000 A 
ATOM      5  C   UNL     1       3.426   5.515  19.940  0.00  0.00    +0.000 A 
ATOM      6  C   UNL     1       2.397   6.393  19.602  0.00  0.00    +0.000 A 
ATOM      7  F   UNL     1       1.362   6.535  20.444  0.00  0.00    +0.000 F 
ATOM      8  C   UNL     1       2.427   7.102  18.400  0.00  0.00    +0.000 A 
ATOM      9  C   UNL     1       3.523   6.962  17.550  0.00  0.00    +0.000 A 
BRANCH   3  15
ATOM     10  C   UNL     1       7.709   6.597  18.364  0.00  0.00    +0.000 C 
ATOM     11  C   UNL     1       6.997   6.287  17.107  0.00  0.00    +0.000 A 
ATOM     12  N   UNL     1       7.573   6.133  15.931  0.00  0.00    +0.000 NA
ATOM     13  N   UNL     1       6.630   5.599  15.100  0.00  0.00    +0.000 NA
ATOM     14  N   UNL     1       5.487   5.416  15.740  0.00  0.00    +0.000 NA
ATOM     15  N   UNL     1       5.658   5.939  16.977  0.00  0.00    +0.000 N 
ENDBRANCH   3  15
ENDBRANCH   1   8
BRANCH   1  16
ATOM     16  S   UNL     1       1.470   9.584  18.702  0.00  0.00    +0.000 S 
ATOM     17  O   UNL     1       1.558   9.472  20.140  0.00  0.00    +0.000 OA
ATOM     18  O   UNL     1       2.473  10.319  17.960  0.00  0.00    +0.000 OA
BRANCH  16  19
ATOM     19  C   UNL     1      -0.130  10.296  18.341  0.00  0.00    +0.000 A 
ATOM     20  C   UNL     1      -0.957   9.555  17.475  0.00  0.00    +0.000 A 
ATOM     21  C   UNL     1      -2.201  10.045  17.077  0.00  0.00    +0.000 A 
ATOM     22  C   UNL     1      -2.642  11.272  17.548  0.00  0.00    +0.000 A 
ATOM     23  C   UNL     1      -1.826  12.019  18.397  0.00  0.00    +0.000 A 
ATOM     24  C   UNL     1      -0.547  11.560  18.799  0.00  0.00    +0.000 A 
BRANCH  24  25
ATOM     25  C   UNL     1       0.246  12.513  19.662  0.00  0.00    +0.000 C 
ATOM     26  F   UNL     1       1.520  12.775  19.291  0.00  0.00    +0.000 F 
ATOM     27  F   UNL     1      -0.375  13.724  19.770  0.00  0.00    +0.000 F 
ATOM     28  F   UNL     1       0.343  12.051  20.944  0.00  0.00    +0.000 F 
ENDBRANCH  24  25
ENDBRANCH  16  19
ENDBRANCH   1  16
TORSDOF 5
ENDMDL
MODEL 9
REMARK VINA RESULT:      -7.8      4.840      7.753
REMARK  Name = 
REMARK  6 active torsions:
REMARK  status: ('A' for Active; 'I' for Inactive)
REMARK    1  A    between atoms: C_1  and  C_2
REMARK    2  A    between atoms: N_6  and  C_7
REMARK    3  A    between atoms: C_12  and  N_13
REMARK    4  A    between atoms: N_13  and  S_14
REMARK    5  A    between atoms: S_14  and  C_17
REMARK    6  A    between atoms: C_22  and  C_23
REMARK                            x       y       z     vdW  Elec       q    Type
REMARK                         _______ _______ _______ _____ _____    ______ ____
ROOT
ATOM      1  N   UNL     1       3.191   7.034  19.595  0.00  0.00    +0.000 N 
ATOM      2  H   UNL     1       3.649   7.051  20.511  0.00  0.00    +0.000 HD
ENDROOT
BRANCH   1   8
ATOM      3  C   UNL     1       0.565   9.599  20.336  0.00  0.00    +0.000 A 
ATOM      4  C   UNL     1       0.247  10.043  19.046  0.00  0.00    +0.000 A 
ATOM      5  C   UNL     1       0.915   9.502  17.941  0.00  0.00    +0.000 A 
ATOM      6  C   UNL     1       1.877   8.511  18.125  0.00  0.00    +0.000 A 
ATOM      7  F   UNL     1       2.490   7.992  17.050  0.00  0.00    +0.000 F 
ATOM      8  C   UNL     1       2.191   8.047  19.404  0.00  0.00    +0.000 A 
ATOM      9  C   UNL     1       1.564   8.616  20.511  0.00  0.00    +0.000 A 
BRANCH   3  15
ATOM     10  C   UNL     1      -0.321  12.648  20.961  0.00  0.00    +0.000 C 
ATOM     11  C   UNL     1      -0.324  11.469  21.851  0.00  0.00    +0.000 A 
ATOM     12  N   UNL     1      -0.753  11.465  23.098  0.00  0.00    +0.000 NA
ATOM     13  N   UNL     1      -0.842  10.156  23.476  0.00  0.00    +0.000 NA
ATOM     14  N   UNL     1      -0.483   9.353  22.489  0.00  0.00    +0.000 NA
ATOM     15  N   UNL     1      -0.050  10.157  21.487  0.00  0.00    +0.000 N 
ENDBRANCH   3  15
ENDBRANCH   1   8
BRANCH   1  16
ATOM     16  S   UNL     1       2.732   5.428  19.279  0.00  0.00    +0.000 S 
ATOM     17  O   UNL     1       3.009   4.642  20.459  0.00  0.00    +0.000 OA
ATOM     18  O   UNL     1       1.405   5.440  18.699  0.00  0.00    +0.000 OA
BRANCH  16  19
ATOM     19  C   UNL     1       3.888   4.891  18.024  0.00  0.00    +0.000 A 
ATOM     20  C   UNL     1       4.628   5.907  17.388  0.00  0.00    +0.000 A 
ATOM     21  C   UNL     1       5.514   5.608  16.353  0.00  0.00    +0.000 A 
ATOM     22  C   UNL     1       5.683   4.293  15.948  0.00  0.00    +0.000 A 
ATOM     23  C   UNL     1       4.946   3.281  16.562  0.00  0.00    +0.000 A 
ATOM     24  C   UNL     1       4.020   3.555  17.600  0.00  0.00    +0.000 A 
BRANCH  24  25
ATOM     25  C   UNL     1       3.248   2.365  18.116  0.00  0.00    +0.000 C 
ATOM     26  F   UNL     1       3.290   2.126  19.447  0.00  0.00    +0.000 F 
ATOM     27  F   UNL     1       1.925   2.445  17.786  0.00  0.00    +0.000 F 
ATOM     28  F   UNL     1       3.686   1.206  17.539  0.00  0.00    +0.000 F 
ENDBRANCH  24  25
ENDBRANCH  16  19
ENDBRANCH   1  16
TORSDOF 5
ENDMDL
