MODEL 1
REMARK VINA RESULT:      -8.6      0.000      0.000
REMARK  Name = 
REMARK  4 active torsions:
REMARK  status: ('A' for Active; 'I' for Inactive)
REMARK    1  A    between atoms: C_2  and  C_4
REMARK    2  A    between atoms: C_7  and  N_8
REMARK    3  A    between atoms: C_9  and  C_11
REMARK    4  A    between atoms: C_16  and  C_18
REMARK                            x       y       z     vdW  Elec       q    Type
REMARK                         _______ _______ _______ _____ _____    ______ ____
ROOT
ATOM      1  C   UNL     1       2.918   2.315  19.339  0.00  0.00    +0.000 C 
ATOM      2  C   UNL     1       1.417   2.138  19.088  0.00  0.00    +0.000 C 
ATOM      3  C   UNL     1       0.656   3.445  18.888  0.00  0.00    +0.000 C 
ATOM      4  C   UNL     1       1.050   4.514  19.896  0.00  0.00    +0.000 C 
ATOM      5  N   UNL     1       2.501   4.687  19.976  0.00  0.00    +0.000 N 
ATOM      6  C   UNL     1       3.241   5.882  19.892  0.00  0.00    +0.000 C 
ATOM      7  O   UNL     1       4.460   5.891  20.064  0.00  0.00    +0.000 OA
ATOM      8  C   UNL     1       3.232   3.457  20.309  0.00  0.00    +0.000 C 
ENDROOT
BRANCH   6   9
ATOM      9  C   UNL     1       2.636   7.151  19.393  0.00  0.00    +0.000 A 
ATOM     10  C   UNL     1       2.915   7.444  18.041  0.00  0.00    +0.000 A 
ATOM     11  C   UNL     1       2.290   8.505  17.399  0.00  0.00    +0.000 A 
ATOM     12  C   UNL     1       1.269   9.176  18.057  0.00  0.00    +0.000 A 
ATOM     13  C   UNL     1       0.993   8.909  19.406  0.00  0.00    +0.000 A 
ATOM     14  C   UNL     1      -0.070   9.559  20.038  0.00  0.00    +0.000 A 
ATOM     15  C   UNL     1      -0.108   9.657  21.423  0.00  0.00    +0.000 A 
ATOM     16  C   UNL     1       0.829   8.972  22.185  0.00  0.00    +0.000 A 
ATOM     17  C   UNL     1       1.728   8.103  21.556  0.00  0.00    +0.000 A 
ATOM     18  C   UNL     1       1.804   8.025  20.140  0.00  0.00    +0.000 A 
ENDBRANCH   6   9
BRANCH   1  20
ATOM     19  N   UNL     1       4.375   3.629  17.865  0.00  0.00    +0.000 N 
ATOM     20  C   UNL     1       3.728   2.422  18.046  0.00  0.00    +0.000 C 
ATOM     21  O   UNL     1       3.721   1.483  17.252  0.00  0.00    +0.000 OA
ATOM     22  H   UNL     1       4.266   4.315  18.599  0.00  0.00    +0.000 HD
BRANCH  19  26
ATOM     23  C   UNL     1       6.794   4.713  14.589  0.00  0.00    +0.000 A 
ATOM     24  C   UNL     1       7.323   4.769  15.878  0.00  0.00    +0.000 A 
ATOM     25  C   UNL     1       6.544   4.410  16.973  0.00  0.00    +0.000 A 
ATOM     26  C   UNL     1       5.211   4.006  16.803  0.00  0.00    +0.000 A 
ATOM     27  C   UNL     1       4.670   4.003  15.516  0.00  0.00    +0.000 A 
ATOM     28  C   UNL     1       5.449   4.356  14.409  0.00  0.00    +0.000 A 
BRANCH  23  30
ATOM     29  N   UNL     1       7.275   4.452  12.225  0.00  0.00    +0.000 N 
ATOM     30  C   UNL     1       7.618   5.054  13.393  0.00  0.00    +0.000 C 
ATOM     31  O   UNL     1       8.524   5.864  13.461  0.00  0.00    +0.000 OA
ATOM     32  H   UNL     1       7.753   4.767  11.391  0.00  0.00    +0.000 HD
ATOM     33  H   UNL     1       6.391   3.970  12.103  0.00  0.00    +0.000 HD
ENDBRANCH  23  30
ENDBRANCH  19  26
ENDBRANCH   1  20
TORSDOF 4
ENDMDL
MODEL 2
REMARK VINA RESULT:      -8.5      3.770      7.074
REMARK  Name = 
REMARK  4 active torsions:
REMARK  status: ('A' for Active; 'I' for Inactive)
REMARK    1  A    between atoms: C_2  and  C_4
REMARK    2  A    between atoms: C_7  and  N_8
REMARK    3  A    between atoms: C_9  and  C_11
REMARK    4  A    between atoms: C_16  and  C_18
REMARK                            x       y       z     vdW  Elec       q    Type
REMARK                         _______ _______ _______ _____ _____    ______ ____
ROOT
ATOM      1  C   UNL     1       1.465   9.771  21.751  0.00  0.00    +0.000 C 
ATOM      2  C   UNL     1       0.626   9.337  22.958  0.00  0.00    +0.000 C 
ATOM      3  C   UNL     1      -0.860   9.660  22.837  0.00  0.00    +0.000 C 
ATOM      4  C   UNL     1      -1.116  11.064  22.308  0.00  0.00    +0.000 C 
ATOM      5  N   UNL     1      -0.354  11.338  21.087  0.00  0.00    +0.000 N 
ATOM      6  C   UNL     1      -0.828  11.847  19.863  0.00  0.00    +0.000 C 
ATOM      7  O   UNL     1      -0.055  12.111  18.941  0.00  0.00    +0.000 OA
ATOM      8  C   UNL     1       1.096  11.164  21.236  0.00  0.00    +0.000 C 
ENDROOT
BRANCH   6   9
ATOM      9  C   UNL     1      -2.283  11.899  19.540  0.00  0.00    +0.000 A 
ATOM     10  C   UNL     1      -3.070  12.599  20.479  0.00  0.00    +0.000 A 
ATOM     11  C   UNL     1      -4.410  12.864  20.229  0.00  0.00    +0.000 A 
ATOM     12  C   UNL     1      -4.926  12.571  18.975  0.00  0.00    +0.000 A 
ATOM     13  C   UNL     1      -4.163  11.859  18.038  0.00  0.00    +0.000 A 
ATOM     14  C   UNL     1      -4.681  11.616  16.763  0.00  0.00    +0.000 A 
ATOM     15  C   UNL     1      -4.170  10.585  15.984  0.00  0.00    +0.000 A 
ATOM     16  C   UNL     1      -3.041   9.898  16.410  0.00  0.00    +0.000 A 
ATOM     17  C   UNL     1      -2.365  10.326  17.558  0.00  0.00    +0.000 A 
ATOM     18  C   UNL     1      -2.898  11.351  18.384  0.00  0.00    +0.000 A 
ENDBRANCH   6   9
BRANCH   1  20
ATOM     19  N   UNL     1       1.914   7.475  21.011  0.00  0.00    +0.000 N 
ATOM     20  C   UNL     1       1.476   8.730  20.632  0.00  0.00    +0.000 C 
ATOM     21  O   UNL     1       1.152   9.064  19.494  0.00  0.00    +0.000 OA
ATOM     22  H   UNL     1       2.169   7.359  21.982  0.00  0.00    +0.000 HD
BRANCH  19  26
ATOM     23  C   UNL     1       2.126   3.930  18.743  0.00  0.00    +0.000 A 
ATOM     24  C   UNL     1       2.741   5.086  18.263  0.00  0.00    +0.000 A 
ATOM     25  C   UNL     1       2.688   6.266  18.999  0.00  0.00    +0.000 A 
ATOM     26  C   UNL     1       2.001   6.319  20.220  0.00  0.00    +0.000 A 
ATOM     27  C   UNL     1       1.341   5.173  20.670  0.00  0.00    +0.000 A 
ATOM     28  C   UNL     1       1.395   3.981  19.940  0.00  0.00    +0.000 A 
BRANCH  23  30
ATOM     29  N   UNL     1       2.033   1.505  18.720  0.00  0.00    +0.000 N 
ATOM     30  C   UNL     1       2.199   2.640  17.995  0.00  0.00    +0.000 C 
ATOM     31  O   UNL     1       2.358   2.620  16.788  0.00  0.00    +0.000 OA
ATOM     32  H   UNL     1       1.964   0.639  18.203  0.00  0.00    +0.000 HD
ATOM     33  H   UNL     1       1.666   1.515  19.666  0.00  0.00    +0.000 HD
ENDBRANCH  23  30
ENDBRANCH  19  26
ENDBRANCH   1  20
TORSDOF 4
ENDMDL
MODEL 3
REMARK VINA RESULT:      -8.1      3.897      7.050
REMARK  Name = 
REMARK  4 active torsions:
REMARK  status: ('A' for Active; 'I' for Inactive)
REMARK    1  A    between atoms: C_2  and  C_4
REMARK    2  A    between atoms: C_7  and  N_8
REMARK    3  A    between atoms: C_9  and  C_11
REMARK    4  A    between atoms: C_16  and  C_18
REMARK                            x       y       z     vdW  Elec       q    Type
REMARK                         _______ _______ _______ _____ _____    ______ ____
ROOT
ATOM      1  C   UNL     1       1.122   9.504  22.129  0.00  0.00    +0.000 C 
ATOM      2  C   UNL     1       0.261   9.624  23.391  0.00  0.00    +0.000 C 
ATOM      3  C   UNL     1      -1.106  10.260  23.161  0.00  0.00    +0.000 C 
ATOM      4  C   UNL     1      -1.037  11.493  22.272  0.00  0.00    +0.000 C 
ATOM      5  N   UNL     1      -0.292  11.240  21.037  0.00  0.00    +0.000 N 
ATOM      6  C   UNL     1      -0.686  11.511  19.712  0.00  0.00    +0.000 C 
ATOM      7  O   UNL     1       0.082  11.324  18.768  0.00  0.00    +0.000 OA
ATOM      8  C   UNL     1       1.078  10.759  21.254  0.00  0.00    +0.000 C 
ENDROOT
BRANCH   6   9
ATOM      9  C   UNL     1      -2.098  11.834  19.360  0.00  0.00    +0.000 A 
ATOM     10  C   UNL     1      -2.662  11.005  18.365  0.00  0.00    +0.000 A 
ATOM     11  C   UNL     1      -4.012  11.086  18.052  0.00  0.00    +0.000 A 
ATOM     12  C   UNL     1      -4.833  11.880  18.838  0.00  0.00    +0.000 A 
ATOM     13  C   UNL     1      -4.287  12.723  19.817  0.00  0.00    +0.000 A 
ATOM     14  C   UNL     1      -5.134  13.479  20.632  0.00  0.00    +0.000 A 
ATOM     15  C   UNL     1      -4.654  14.607  21.287  0.00  0.00    +0.000 A 
ATOM     16  C   UNL     1      -3.295  14.891  21.256  0.00  0.00    +0.000 A 
ATOM     17  C   UNL     1      -2.412  13.981  20.663  0.00  0.00    +0.000 A 
ATOM     18  C   UNL     1      -2.893  12.847  19.957  0.00  0.00    +0.000 A 
ENDBRANCH   6   9
BRANCH   1  20
ATOM     19  N   UNL     1       1.940   7.605  20.809  0.00  0.00    +0.000 N 
ATOM     20  C   UNL     1       0.826   8.236  21.328  0.00  0.00    +0.000 C 
ATOM     21  O   UNL     1      -0.341   7.888  21.159  0.00  0.00    +0.000 OA
ATOM     22  H   UNL     1       2.836   8.026  21.015  0.00  0.00    +0.000 HD
BRANCH  19  26
ATOM     23  C   UNL     1       2.075   3.960  18.698  0.00  0.00    +0.000 A 
ATOM     24  C   UNL     1       2.347   5.151  18.024  0.00  0.00    +0.000 A 
ATOM     25  C   UNL     1       2.313   6.365  18.703  0.00  0.00    +0.000 A 
ATOM     26  C   UNL     1       1.987   6.415  20.067  0.00  0.00    +0.000 A 
ATOM     27  C   UNL     1       1.664   5.225  20.723  0.00  0.00    +0.000 A 
ATOM     28  C   UNL     1       1.702   4.000  20.050  0.00  0.00    +0.000 A 
BRANCH  23  30
ATOM     29  N   UNL     1       1.795   1.550  18.736  0.00  0.00    +0.000 N 
ATOM     30  C   UNL     1       2.141   2.640  18.005  0.00  0.00    +0.000 C 
ATOM     31  O   UNL     1       2.451   2.559  16.831  0.00  0.00    +0.000 OA
ATOM     32  H   UNL     1       1.726   0.671  18.241  0.00  0.00    +0.000 HD
ATOM     33  H   UNL     1       1.313   1.624  19.625  0.00  0.00    +0.000 HD
ENDBRANCH  23  30
ENDBRANCH  19  26
ENDBRANCH   1  20
TORSDOF 4
ENDMDL
MODEL 4
REMARK VINA RESULT:      -8.1      0.852      1.210
REMARK  Name = 
REMARK  4 active torsions:
REMARK  status: ('A' for Active; 'I' for Inactive)
REMARK    1  A    between atoms: C_2  and  C_4
REMARK    2  A    between atoms: C_7  and  N_8
REMARK    3  A    between atoms: C_9  and  C_11
REMARK    4  A    between atoms: C_16  and  C_18
REMARK                            x       y       z     vdW  Elec       q    Type
REMARK                         _______ _______ _______ _____ _____    ______ ____
ROOT
ATOM      1  C   UNL     1       2.941   2.735  19.082  0.00  0.00    +0.000 C 
ATOM      2  C   UNL     1       1.440   2.434  19.144  0.00  0.00    +0.000 C 
ATOM      3  C   UNL     1       0.551   3.673  19.173  0.00  0.00    +0.000 C 
ATOM      4  C   UNL     1       1.064   4.742  20.127  0.00  0.00    +0.000 C 
ATOM      5  N   UNL     1       2.481   5.040  19.908  0.00  0.00    +0.000 N 
ATOM      6  C   UNL     1       3.087   6.298  19.729  0.00  0.00    +0.000 C 
ATOM      7  O   UNL     1       4.310   6.410  19.640  0.00  0.00    +0.000 OA
ATOM      8  C   UNL     1       3.362   3.870  20.019  0.00  0.00    +0.000 C 
ENDROOT
BRANCH   6   9
ATOM      9  C   UNL     1       2.290   7.523  19.431  0.00  0.00    +0.000 A 
ATOM     10  C   UNL     1       2.255   7.886  18.068  0.00  0.00    +0.000 A 
ATOM     11  C   UNL     1       1.426   8.907  17.624  0.00  0.00    +0.000 A 
ATOM     12  C   UNL     1       0.513   9.460  18.511  0.00  0.00    +0.000 A 
ATOM     13  C   UNL     1       0.548   9.123  19.872  0.00  0.00    +0.000 A 
ATOM     14  C   UNL     1      -0.409   9.653  20.742  0.00  0.00    +0.000 A 
ATOM     15  C   UNL     1      -0.165   9.700  22.109  0.00  0.00    +0.000 A 
ATOM     16  C   UNL     1       0.964   9.077  22.626  0.00  0.00    +0.000 A 
ATOM     17  C   UNL     1       1.779   8.315  21.781  0.00  0.00    +0.000 A 
ATOM     18  C   UNL     1       1.564   8.292  20.377  0.00  0.00    +0.000 A 
ENDBRANCH   6   9
BRANCH   1  20
ATOM     19  N   UNL     1       4.655   3.610  17.560  0.00  0.00    +0.000 N 
ATOM     20  C   UNL     1       3.444   2.953  17.655  0.00  0.00    +0.000 C 
ATOM     21  O   UNL     1       2.749   2.587  16.708  0.00  0.00    +0.000 OA
ATOM     22  H   UNL     1       5.098   3.870  18.432  0.00  0.00    +0.000 HD
BRANCH  19  26
ATOM     23  C   UNL     1       6.896   4.635  14.142  0.00  0.00    +0.000 A 
ATOM     24  C   UNL     1       5.795   3.789  14.010  0.00  0.00    +0.000 A 
ATOM     25  C   UNL     1       5.038   3.442  15.124  0.00  0.00    +0.000 A 
ATOM     26  C   UNL     1       5.379   3.919  16.399  0.00  0.00    +0.000 A 
ATOM     27  C   UNL     1       6.513   4.723  16.533  0.00  0.00    +0.000 A 
ATOM     28  C   UNL     1       7.275   5.082  15.417  0.00  0.00    +0.000 A 
BRANCH  23  30
ATOM     29  N   UNL     1       8.713   5.933  13.191  0.00  0.00    +0.000 N 
ATOM     30  C   UNL     1       7.703   5.056  12.959  0.00  0.00    +0.000 C 
ATOM     31  O   UNL     1       7.485   4.597  11.852  0.00  0.00    +0.000 OA
ATOM     32  H   UNL     1       9.333   6.130  12.417  0.00  0.00    +0.000 HD
ATOM     33  H   UNL     1       9.053   6.133  14.125  0.00  0.00    +0.000 HD
ENDBRANCH  23  30
ENDBRANCH  19  26
ENDBRANCH   1  20
TORSDOF 4
ENDMDL
MODEL 5
REMARK VINA RESULT:      -7.9      2.349      6.811
REMARK  Name = 
REMARK  4 active torsions:
REMARK  status: ('A' for Active; 'I' for Inactive)
REMARK    1  A    between atoms: C_2  and  C_4
REMARK    2  A    between atoms: C_7  and  N_8
REMARK    3  A    between atoms: C_9  and  C_11
REMARK    4  A    between atoms: C_16  and  C_18
REMARK                            x       y       z     vdW  Elec       q    Type
REMARK                         _______ _______ _______ _____ _____    ______ ____
ROOT
ATOM      1  C   UNL     1       2.087   2.743  20.551  0.00  0.00    +0.000 C 
ATOM      2  C   UNL     1       3.217   1.971  21.240  0.00  0.00    +0.000 C 
ATOM      3  C   UNL     1       4.559   2.047  20.519  0.00  0.00    +0.000 C 
ATOM      4  C   UNL     1       4.430   1.854  19.015  0.00  0.00    +0.000 C 
ATOM      5  N   UNL     1       3.402   2.721  18.436  0.00  0.00    +0.000 N 
ATOM      6  C   UNL     1       3.515   3.583  17.328  0.00  0.00    +0.000 C 
ATOM      7  O   UNL     1       2.538   4.194  16.893  0.00  0.00    +0.000 OA
ATOM      8  C   UNL     1       2.071   2.551  19.032  0.00  0.00    +0.000 C 
ENDROOT
BRANCH   6   9
ATOM      9  C   UNL     1       4.839   3.963  16.756  0.00  0.00    +0.000 A 
ATOM     10  C   UNL     1       5.057   3.523  15.432  0.00  0.00    +0.000 A 
ATOM     11  C   UNL     1       6.174   3.937  14.719  0.00  0.00    +0.000 A 
ATOM     12  C   UNL     1       6.991   4.915  15.267  0.00  0.00    +0.000 A 
ATOM     13  C   UNL     1       6.799   5.349  16.587  0.00  0.00    +0.000 A 
ATOM     14  C   UNL     1       7.601   6.369  17.106  0.00  0.00    +0.000 A 
ATOM     15  C   UNL     1       7.739   6.522  18.480  0.00  0.00    +0.000 A 
ATOM     16  C   UNL     1       6.956   5.760  19.337  0.00  0.00    +0.000 A 
ATOM     17  C   UNL     1       5.959   4.932  18.809  0.00  0.00    +0.000 A 
ATOM     18  C   UNL     1       5.835   4.736  17.407  0.00  0.00    +0.000 A 
ENDBRANCH   6   9
BRANCH   1  20
ATOM     19  N   UNL     1       1.742   5.087  19.913  0.00  0.00    +0.000 N 
ATOM     20  C   UNL     1       2.052   4.220  20.943  0.00  0.00    +0.000 C 
ATOM     21  O   UNL     1       2.334   4.545  22.095  0.00  0.00    +0.000 OA
ATOM     22  H   UNL     1       1.557   4.669  19.011  0.00  0.00    +0.000 HD
BRANCH  19  26
ATOM     23  C   UNL     1       1.240   9.261  20.204  0.00  0.00    +0.000 A 
ATOM     24  C   UNL     1       1.873   8.725  19.082  0.00  0.00    +0.000 A 
ATOM     25  C   UNL     1       2.044   7.349  18.963  0.00  0.00    +0.000 A 
ATOM     26  C   UNL     1       1.603   6.482  19.974  0.00  0.00    +0.000 A 
ATOM     27  C   UNL     1       1.018   7.028  21.119  0.00  0.00    +0.000 A 
ATOM     28  C   UNL     1       0.837   8.409  21.243  0.00  0.00    +0.000 A 
BRANCH  23  30
ATOM     29  N   UNL     1       0.581  11.384  19.231  0.00  0.00    +0.000 N 
ATOM     30  C   UNL     1       1.008  10.728  20.340  0.00  0.00    +0.000 C 
ATOM     31  O   UNL     1       1.157  11.294  21.409  0.00  0.00    +0.000 OA
ATOM     32  H   UNL     1       0.311  12.351  19.348  0.00  0.00    +0.000 HD
ATOM     33  H   UNL     1       0.227  10.895  18.415  0.00  0.00    +0.000 HD
ENDBRANCH  23  30
ENDBRANCH  19  26
ENDBRANCH   1  20
TORSDOF 4
ENDMDL
MODEL 6
REMARK VINA RESULT:      -7.6      5.201      7.453
REMARK  Name = 
REMARK  4 active torsions:
REMARK  status: ('A' for Active; 'I' for Inactive)
REMARK    1  A    between atoms: C_2  and  C_4
REMARK    2  A    between atoms: C_7  and  N_8
REMARK    3  A    between atoms: C_9  and  C_11
REMARK    4  A    between atoms: C_16  and  C_18
REMARK                            x       y       z     vdW  Elec       q    Type
REMARK                         _______ _______ _______ _____ _____    ______ ____
ROOT
ATOM      1  C   UNL     1      -0.081  10.504  19.699  0.00  0.00    +0.000 C 
ATOM      2  C   UNL     1      -1.165  10.917  18.698  0.00  0.00    +0.000 C 
ATOM      3  C   UNL     1      -0.939  12.281  18.053  0.00  0.00    +0.000 C 
ATOM      4  C   UNL     1      -0.509  13.341  19.057  0.00  0.00    +0.000 C 
ATOM      5  N   UNL     1       0.610  12.890  19.888  0.00  0.00    +0.000 N 
ATOM      6  C   UNL     1       1.824  13.555  20.146  0.00  0.00    +0.000 C 
ATOM      7  O   UNL     1       2.646  13.095  20.938  0.00  0.00    +0.000 OA
ATOM      8  C   UNL     1       0.345  11.647  20.623  0.00  0.00    +0.000 C 
ENDROOT
BRANCH   6   9
ATOM      9  C   UNL     1       2.272  14.723  19.334  0.00  0.00    +0.000 A 
ATOM     10  C   UNL     1       3.319  14.445  18.429  0.00  0.00    +0.000 A 
ATOM     11  C   UNL     1       3.728  15.392  17.501  0.00  0.00    +0.000 A 
ATOM     12  C   UNL     1       2.988  16.558  17.366  0.00  0.00    +0.000 A 
ATOM     13  C   UNL     1       1.957  16.858  18.269  0.00  0.00    +0.000 A 
ATOM     14  C   UNL     1       1.192  18.013  18.089  0.00  0.00    +0.000 A 
ATOM     15  C   UNL     1       0.484  18.557  19.153  0.00  0.00    +0.000 A 
ATOM     16  C   UNL     1       0.412  17.865  20.354  0.00  0.00    +0.000 A 
ATOM     17  C   UNL     1       0.955  16.579  20.444  0.00  0.00    +0.000 A 
ATOM     18  C   UNL     1       1.716  16.028  19.378  0.00  0.00    +0.000 A 
ENDBRANCH   6   9
BRANCH   1  20
ATOM     19  N   UNL     1       1.347   8.527  19.430  0.00  0.00    +0.000 N 
ATOM     20  C   UNL     1       1.117   9.829  19.031  0.00  0.00    +0.000 C 
ATOM     21  O   UNL     1       1.809  10.472  18.242  0.00  0.00    +0.000 OA
ATOM     22  H   UNL     1       0.702   8.141  20.106  0.00  0.00    +0.000 HD
BRANCH  19  26
ATOM     23  C   UNL     1       4.329   5.826  18.177  0.00  0.00    +0.000 A 
ATOM     24  C   UNL     1       4.043   6.942  17.391  0.00  0.00    +0.000 A 
ATOM     25  C   UNL     1       3.066   7.849  17.788  0.00  0.00    +0.000 A 
ATOM     26  C   UNL     1       2.341   7.649  18.972  0.00  0.00    +0.000 A 
ATOM     27  C   UNL     1       2.593   6.502  19.728  0.00  0.00    +0.000 A 
ATOM     28  C   UNL     1       3.578   5.588  19.339  0.00  0.00    +0.000 A 
BRANCH  23  30
ATOM     29  N   UNL     1       5.887   4.068  18.787  0.00  0.00    +0.000 N 
ATOM     30  C   UNL     1       5.397   4.856  17.796  0.00  0.00    +0.000 C 
ATOM     31  O   UNL     1       5.776   4.756  16.643  0.00  0.00    +0.000 OA
ATOM     32  H   UNL     1       6.524   3.332  18.513  0.00  0.00    +0.000 HD
ATOM     33  H   UNL     1       5.422   3.973  19.684  0.00  0.00    +0.000 HD
ENDBRANCH  23  30
ENDBRANCH  19  26
ENDBRANCH   1  20
TORSDOF 4
ENDMDL
MODEL 7
REMARK VINA RESULT:      -7.6      5.496      8.333
REMARK  Name = 
REMARK  4 active torsions:
REMARK  status: ('A' for Active; 'I' for Inactive)
REMARK    1  A    between atoms: C_2  and  C_4
REMARK    2  A    between atoms: C_7  and  N_8
REMARK    3  A    between atoms: C_9  and  C_11
REMARK    4  A    between atoms: C_16  and  C_18
REMARK                            x       y       z     vdW  Elec       q    Type
REMARK                         _______ _______ _______ _____ _____    ______ ____
ROOT
ATOM      1  C   UNL     1      -0.736  11.658  21.053  0.00  0.00    +0.000 C 
ATOM      2  C   UNL     1      -1.600  11.736  19.791  0.00  0.00    +0.000 C 
ATOM      3  C   UNL     1      -1.078  12.701  18.731  0.00  0.00    +0.000 C 
ATOM      4  C   UNL     1      -0.622  14.028  19.319  0.00  0.00    +0.000 C 
ATOM      5  N   UNL     1       0.292  13.845  20.448  0.00  0.00    +0.000 N 
ATOM      6  C   UNL     1       1.551  14.441  20.653  0.00  0.00    +0.000 C 
ATOM      7  O   UNL     1       2.179  14.261  21.697  0.00  0.00    +0.000 OA
ATOM      8  C   UNL     1      -0.260  13.030  21.538  0.00  0.00    +0.000 C 
ENDROOT
BRANCH   6   9
ATOM      9  C   UNL     1       2.281  15.139  19.556  0.00  0.00    +0.000 A 
ATOM     10  C   UNL     1       3.422  14.458  19.079  0.00  0.00    +0.000 A 
ATOM     11  C   UNL     1       4.105  14.910  17.959  0.00  0.00    +0.000 A 
ATOM     12  C   UNL     1       3.559  15.948  17.217  0.00  0.00    +0.000 A 
ATOM     13  C   UNL     1       2.437  16.647  17.686  0.00  0.00    +0.000 A 
ATOM     14  C   UNL     1       1.872  17.658  16.904  0.00  0.00    +0.000 A 
ATOM     15  C   UNL     1       1.070  18.631  17.487  0.00  0.00    +0.000 A 
ATOM     16  C   UNL     1       0.703  18.508  18.821  0.00  0.00    +0.000 A 
ATOM     17  C   UNL     1       1.050  17.352  19.529  0.00  0.00    +0.000 A 
ATOM     18  C   UNL     1       1.902  16.369  18.957  0.00  0.00    +0.000 A 
ENDBRANCH   6   9
BRANCH   1  20
ATOM     19  N   UNL     1       0.321   9.800  19.849  0.00  0.00    +0.000 N 
ATOM     20  C   UNL     1       0.418  10.664  20.923  0.00  0.00    +0.000 C 
ATOM     21  O   UNL     1       1.308  10.658  21.771  0.00  0.00    +0.000 OA
ATOM     22  H   UNL     1      -0.486   9.913  19.249  0.00  0.00    +0.000 HD
BRANCH  19  26
ATOM     23  C   UNL     1       3.064   6.781  18.791  0.00  0.00    +0.000 A 
ATOM     24  C   UNL     1       2.807   7.817  17.893  0.00  0.00    +0.000 A 
ATOM     25  C   UNL     1       1.909   8.827  18.224  0.00  0.00    +0.000 A 
ATOM     26  C   UNL     1       1.234   8.811  19.454  0.00  0.00    +0.000 A 
ATOM     27  C   UNL     1       1.456   7.744  20.327  0.00  0.00    +0.000 A 
ATOM     28  C   UNL     1       2.362   6.729  20.005  0.00  0.00    +0.000 A 
BRANCH  23  30
ATOM     29  N   UNL     1       3.850   5.008  17.333  0.00  0.00    +0.000 N 
ATOM     30  C   UNL     1       4.051   5.706  18.480  0.00  0.00    +0.000 C 
ATOM     31  O   UNL     1       5.008   5.500  19.203  0.00  0.00    +0.000 OA
ATOM     32  H   UNL     1       4.577   4.361  17.059  0.00  0.00    +0.000 HD
ATOM     33  H   UNL     1       3.208   5.322  16.613  0.00  0.00    +0.000 HD
ENDBRANCH  23  30
ENDBRANCH  19  26
ENDBRANCH   1  20
TORSDOF 4
ENDMDL
MODEL 8
REMARK VINA RESULT:      -7.6      7.728      9.438
REMARK  Name = 
REMARK  4 active torsions:
REMARK  status: ('A' for Active; 'I' for Inactive)
REMARK    1  A    between atoms: C_2  and  C_4
REMARK    2  A    between atoms: C_7  and  N_8
REMARK    3  A    between atoms: C_9  and  C_11
REMARK    4  A    between atoms: C_16  and  C_18
REMARK                            x       y       z     vdW  Elec       q    Type
REMARK                         _______ _______ _______ _____ _____    ______ ____
ROOT
ATOM      1  C   UNL     1      10.214  11.533  18.005  0.00  0.00    +0.000 C 
ATOM      2  C   UNL     1      11.674  11.388  18.446  0.00  0.00    +0.000 C 
ATOM      3  C   UNL     1      11.991  12.035  19.791  0.00  0.00    +0.000 C 
ATOM      4  C   UNL     1      11.376  13.420  19.935  0.00  0.00    +0.000 C 
ATOM      5  N   UNL     1       9.951  13.426  19.601  0.00  0.00    +0.000 N 
ATOM      6  C   UNL     1       8.883  13.946  20.358  0.00  0.00    +0.000 C 
ATOM      7  O   UNL     1       7.735  13.961  19.913  0.00  0.00    +0.000 OA
ATOM      8  C   UNL     1       9.651  12.935  18.251  0.00  0.00    +0.000 C 
ENDROOT
BRANCH   6   9
ATOM      9  C   UNL     1       9.038  14.309  21.796  0.00  0.00    +0.000 A 
ATOM     10  C   UNL     1       9.576  15.594  22.025  0.00  0.00    +0.000 A 
ATOM     11  C   UNL     1       9.629  16.126  23.306  0.00  0.00    +0.000 A 
ATOM     12  C   UNL     1       9.001  15.445  24.338  0.00  0.00    +0.000 A 
ATOM     13  C   UNL     1       8.478  14.159  24.132  0.00  0.00    +0.000 A 
ATOM     14  C   UNL     1       7.807  13.509  25.170  0.00  0.00    +0.000 A 
ATOM     15  C   UNL     1       7.665  12.127  25.155  0.00  0.00    +0.000 A 
ATOM     16  C   UNL     1       8.052  11.409  24.032  0.00  0.00    +0.000 A 
ATOM     17  C   UNL     1       8.475  12.095  22.887  0.00  0.00    +0.000 A 
ATOM     18  C   UNL     1       8.663  13.503  22.902  0.00  0.00    +0.000 A 
ENDBRANCH   6   9
BRANCH   1  20
ATOM     19  N   UNL     1       8.891   9.494  17.666  0.00  0.00    +0.000 N 
ATOM     20  C   UNL     1       9.310  10.442  18.580  0.00  0.00    +0.000 C 
ATOM     21  O   UNL     1       8.983  10.493  19.764  0.00  0.00    +0.000 OA
ATOM     22  H   UNL     1       9.227   9.600  16.718  0.00  0.00    +0.000 HD
BRANCH  19  26
ATOM     23  C   UNL     1       6.383   6.170  18.313  0.00  0.00    +0.000 A 
ATOM     24  C   UNL     1       7.630   6.218  18.937  0.00  0.00    +0.000 A 
ATOM     25  C   UNL     1       8.471   7.309  18.742  0.00  0.00    +0.000 A 
ATOM     26  C   UNL     1       8.091   8.366  17.902  0.00  0.00    +0.000 A 
ATOM     27  C   UNL     1       6.865   8.288  17.238  0.00  0.00    +0.000 A 
ATOM     28  C   UNL     1       6.011   7.198  17.434  0.00  0.00    +0.000 A 
BRANCH  23  30
ATOM     29  N   UNL     1       5.998   3.843  18.885  0.00  0.00    +0.000 N 
ATOM     30  C   UNL     1       5.444   5.032  18.535  0.00  0.00    +0.000 C 
ATOM     31  O   UNL     1       4.239   5.182  18.444  0.00  0.00    +0.000 OA
ATOM     32  H   UNL     1       5.363   3.103  19.149  0.00  0.00    +0.000 HD
ATOM     33  H   UNL     1       6.962   3.764  19.193  0.00  0.00    +0.000 HD
ENDBRANCH  23  30
ENDBRANCH  19  26
ENDBRANCH   1  20
TORSDOF 4
ENDMDL
MODEL 9
REMARK VINA RESULT:      -7.5      4.979      8.923
REMARK  Name = 
REMARK  4 active torsions:
REMARK  status: ('A' for Active; 'I' for Inactive)
REMARK    1  A    between atoms: C_2  and  C_4
REMARK    2  A    between atoms: C_7  and  N_8
REMARK    3  A    between atoms: C_9  and  C_11
REMARK    4  A    between atoms: C_16  and  C_18
REMARK                            x       y       z     vdW  Elec       q    Type
REMARK                         _______ _______ _______ _____ _____    ______ ____
ROOT
ATOM      1  C   UNL     1       0.903  13.819  18.232  0.00  0.00    +0.000 C 
ATOM      2  C   UNL     1       1.263  15.014  19.122  0.00  0.00    +0.000 C 
ATOM      3  C   UNL     1       0.465  15.093  20.420  0.00  0.00    +0.000 C 
ATOM      4  C   UNL     1      -1.019  14.828  20.214  0.00  0.00    +0.000 C 
ATOM      5  N   UNL     1      -1.259  13.602  19.451  0.00  0.00    +0.000 N 
ATOM      6  C   UNL     1      -2.113  12.530  19.774  0.00  0.00    +0.000 C 
ATOM      7  O   UNL     1      -2.284  11.593  18.993  0.00  0.00    +0.000 OA
ATOM      8  C   UNL     1      -0.606  13.579  18.136  0.00  0.00    +0.000 C 
ENDROOT
BRANCH   6   9
ATOM      9  C   UNL     1      -2.687  12.363  21.140  0.00  0.00    +0.000 A 
ATOM     10  C   UNL     1      -1.784  11.859  22.102  0.00  0.00    +0.000 A 
ATOM     11  C   UNL     1      -2.132  11.802  23.444  0.00  0.00    +0.000 A 
ATOM     12  C   UNL     1      -3.318  12.394  23.852  0.00  0.00    +0.000 A 
ATOM     13  C   UNL     1      -4.235  12.881  22.909  0.00  0.00    +0.000 A 
ATOM     14  C   UNL     1      -5.402  13.517  23.340  0.00  0.00    +0.000 A 
ATOM     15  C   UNL     1      -6.498  13.619  22.493  0.00  0.00    +0.000 A 
ATOM     16  C   UNL     1      -6.379  13.227  21.166  0.00  0.00    +0.000 A 
ATOM     17  C   UNL     1      -5.128  12.843  20.670  0.00  0.00    +0.000 A 
ATOM     18  C   UNL     1      -4.009  12.697  21.533  0.00  0.00    +0.000 A 
ENDBRANCH   6   9
BRANCH   1  20
ATOM     19  N   UNL     1       0.930  11.381  18.509  0.00  0.00    +0.000 N 
ATOM     20  C   UNL     1       1.664  12.548  18.609  0.00  0.00    +0.000 C 
ATOM     21  O   UNL     1       2.824  12.635  19.008  0.00  0.00    +0.000 OA
ATOM     22  H   UNL     1      -0.024  11.474  18.187  0.00  0.00    +0.000 HD
BRANCH  19  26
ATOM     23  C   UNL     1       2.207   7.460  19.373  0.00  0.00    +0.000 A 
ATOM     24  C   UNL     1       2.407   7.978  18.094  0.00  0.00    +0.000 A 
ATOM     25  C   UNL     1       1.998   9.272  17.788  0.00  0.00    +0.000 A 
ATOM     26  C   UNL     1       1.363  10.069  18.752  0.00  0.00    +0.000 A 
ATOM     27  C   UNL     1       1.117   9.527  20.015  0.00  0.00    +0.000 A 
ATOM     28  C   UNL     1       1.531   8.229  20.332  0.00  0.00    +0.000 A 
BRANCH  23  30
ATOM     29  N   UNL     1       2.171   5.565  20.889  0.00  0.00    +0.000 N 
ATOM     30  C   UNL     1       2.670   6.089  19.741  0.00  0.00    +0.000 C 
ATOM     31  O   UNL     1       3.424   5.464  19.018  0.00  0.00    +0.000 OA
ATOM     32  H   UNL     1       2.388   4.597  21.081  0.00  0.00    +0.000 HD
ATOM     33  H   UNL     1       1.372   5.968  21.366  0.00  0.00    +0.000 HD
ENDBRANCH  23  30
ENDBRANCH  19  26
ENDBRANCH   1  20
TORSDOF 4
ENDMDL
