MODEL 1
REMARK VINA RESULT:      -8.5      0.000      0.000
REMARK  Name = 
REMARK  3 active torsions:
REMARK  status: ('A' for Active; 'I' for Inactive)
REMARK    1  A    between atoms: C_4  and  C_5
REMARK    2  A    between atoms: N_7  and  C_8
REMARK    3  A    between atoms: C_13  and  N_14
REMARK                            x       y       z     vdW  Elec       q    Type
REMARK                         _______ _______ _______ _____ _____    ______ ____
ROOT
ATOM      1  C   UNL     1      -2.881  11.769  19.109  0.00  0.00    +0.000 C 
ATOM      2  O   UNL     1      -3.221  12.661  19.883  0.00  0.00    +0.000 OA
ATOM      3  N   UNL     1      -1.597  11.577  18.626  0.00  0.00    +0.000 N 
ATOM      4  H   UNL     1      -1.462  10.930  17.846  0.00  0.00    +0.000 HD
ENDROOT
BRANCH   1   8
ATOM      5  O   UNL     1      -3.032  11.050  14.975  0.00  0.00    +0.000 OA
ATOM      6  C   UNL     1      -3.640  11.178  16.038  0.00  0.00    +0.000 C 
ATOM      7  C   UNL     1      -3.459  10.209  17.189  0.00  0.00    +0.000 C 
ATOM      8  C   UNL     1      -3.917  10.777  18.538  0.00  0.00    +0.000 C 
ATOM      9  C   UNL     1      -5.267  11.433  18.380  0.00  0.00    +0.000 A 
ATOM     10  C   UNL     1      -6.243  11.368  19.379  0.00  0.00    +0.000 A 
ATOM     11  C   UNL     1      -7.419  12.106  19.250  0.00  0.00    +0.000 A 
ATOM     12  C   UNL     1      -7.611  12.933  18.141  0.00  0.00    +0.000 A 
ATOM     13  C   UNL     1      -6.652  12.982  17.130  0.00  0.00    +0.000 A 
ATOM     14  C   UNL     1      -5.506  12.197  17.234  0.00  0.00    +0.000 A 
ATOM     15  N   UNL     1      -4.616  12.129  16.162  0.00  0.00    +0.000 N 
ATOM     16  H   UNL     1      -4.766  12.699  15.338  0.00  0.00    +0.000 HD
ENDBRANCH   1   8
BRANCH   3  17
ATOM     17  C   UNL     1      -0.433  12.326  18.938  0.00  0.00    +0.000 A 
ATOM     18  C   UNL     1      -0.191  13.593  18.392  0.00  0.00    +0.000 A 
ATOM     19  C   UNL     1       0.943  14.315  18.759  0.00  0.00    +0.000 A 
ATOM     20  C   UNL     1       1.816  13.803  19.708  0.00  0.00    +0.000 A 
ATOM     21  C   UNL     1       1.588  12.541  20.251  0.00  0.00    +0.000 A 
ATOM     22  C   UNL     1       0.500  11.750  19.841  0.00  0.00    +0.000 A 
BRANCH  22  23
ATOM     23  N   UNL     1       0.377  10.380  20.220  0.00  0.00    +0.000 N 
ATOM     24  C   UNL     1       0.902   9.999  21.569  0.00  0.00    +0.000 C 
ATOM     25  C   UNL     1       0.889   8.470  21.622  0.00  0.00    +0.000 C 
ATOM     26  C   UNL     1       1.412   8.256  20.244  0.00  0.00    +0.000 A 
ATOM     27  C   UNL     1       2.329   7.327  19.790  0.00  0.00    +0.000 A 
ATOM     28  C   UNL     1       2.773   7.438  18.472  0.00  0.00    +0.000 A 
ATOM     29  C   UNL     1       2.243   8.414  17.616  0.00  0.00    +0.000 A 
ATOM     30  C   UNL     1       1.340   9.360  18.095  0.00  0.00    +0.000 A 
ATOM     31  C   UNL     1       0.991   9.322  19.436  0.00  0.00    +0.000 A 
ENDBRANCH  22  23
ENDBRANCH   3  17
TORSDOF 3
ENDMDL
MODEL 2
REMARK VINA RESULT:      -7.8      4.090      7.722
REMARK  Name = 
REMARK  3 active torsions:
REMARK  status: ('A' for Active; 'I' for Inactive)
REMARK    1  A    between atoms: C_4  and  C_5
REMARK    2  A    between atoms: N_7  and  C_8
REMARK    3  A    between atoms: C_13  and  N_14
REMARK                            x       y       z     vdW  Elec       q    Type
REMARK                         _______ _______ _______ _____ _____    ______ ____
ROOT
ATOM      1  C   UNL     1       1.483   7.119  20.737  0.00  0.00    +0.000 C 
ATOM      2  O   UNL     1       0.395   6.745  21.169  0.00  0.00    +0.000 OA
ATOM      3  N   UNL     1       2.504   6.284  20.311  0.00  0.00    +0.000 N 
ATOM      4  H   UNL     1       3.429   6.688  20.153  0.00  0.00    +0.000 HD
ENDROOT
BRANCH   1   8
ATOM      5  O   UNL     1       0.278   9.672  23.846  0.00  0.00    +0.000 OA
ATOM      6  C   UNL     1       0.478   9.511  22.641  0.00  0.00    +0.000 C 
ATOM      7  C   UNL     1       1.862   9.238  22.086  0.00  0.00    +0.000 C 
ATOM      8  C   UNL     1       1.842   8.619  20.683  0.00  0.00    +0.000 C 
ATOM      9  C   UNL     1       0.874   9.378  19.809  0.00  0.00    +0.000 A 
ATOM     10  C   UNL     1       1.124   9.606  18.452  0.00  0.00    +0.000 A 
ATOM     11  C   UNL     1       0.140  10.186  17.652  0.00  0.00    +0.000 A 
ATOM     12  C   UNL     1      -1.104  10.511  18.196  0.00  0.00    +0.000 A 
ATOM     13  C   UNL     1      -1.350  10.309  19.553  0.00  0.00    +0.000 A 
ATOM     14  C   UNL     1      -0.344   9.785  20.361  0.00  0.00    +0.000 A 
ATOM     15  N   UNL     1      -0.532   9.718  21.742  0.00  0.00    +0.000 N 
ATOM     16  H   UNL     1      -1.419   9.986  22.149  0.00  0.00    +0.000 HD
ENDBRANCH   1   8
BRANCH   3  17
ATOM     17  C   UNL     1       2.498   4.867  20.256  0.00  0.00    +0.000 A 
ATOM     18  C   UNL     1       1.990   4.080  21.298  0.00  0.00    +0.000 A 
ATOM     19  C   UNL     1       1.961   2.692  21.186  0.00  0.00    +0.000 A 
ATOM     20  C   UNL     1       2.390   2.080  20.016  0.00  0.00    +0.000 A 
ATOM     21  C   UNL     1       2.903   2.853  18.977  0.00  0.00    +0.000 A 
ATOM     22  C   UNL     1       3.025   4.250  19.091  0.00  0.00    +0.000 A 
BRANCH  22  23
ATOM     23  N   UNL     1       3.746   5.025  18.134  0.00  0.00    +0.000 N 
ATOM     24  C   UNL     1       3.833   4.477  16.743  0.00  0.00    +0.000 C 
ATOM     25  C   UNL     1       4.852   5.344  16.001  0.00  0.00    +0.000 C 
ATOM     26  C   UNL     1       5.839   5.420  17.113  0.00  0.00    +0.000 A 
ATOM     27  C   UNL     1       7.220   5.354  17.066  0.00  0.00    +0.000 A 
ATOM     28  C   UNL     1       7.912   5.292  18.276  0.00  0.00    +0.000 A 
ATOM     29  C   UNL     1       7.231   5.375  19.498  0.00  0.00    +0.000 A 
ATOM     30  C   UNL     1       5.838   5.414  19.531  0.00  0.00    +0.000 A 
ATOM     31  C   UNL     1       5.147   5.355  18.331  0.00  0.00    +0.000 A 
ENDBRANCH  22  23
ENDBRANCH   3  17
TORSDOF 3
ENDMDL
MODEL 3
REMARK VINA RESULT:      -7.4      3.157      5.363
REMARK  Name = 
REMARK  3 active torsions:
REMARK  status: ('A' for Active; 'I' for Inactive)
REMARK    1  A    between atoms: C_4  and  C_5
REMARK    2  A    between atoms: N_7  and  C_8
REMARK    3  A    between atoms: C_13  and  N_14
REMARK                            x       y       z     vdW  Elec       q    Type
REMARK                         _______ _______ _______ _____ _____    ______ ____
ROOT
ATOM      1  C   UNL     1      -4.770  11.904  17.793  0.00  0.00    +0.000 C 
ATOM      2  O   UNL     1      -4.285  11.681  16.686  0.00  0.00    +0.000 OA
ATOM      3  N   UNL     1      -4.051  12.008  18.973  0.00  0.00    +0.000 N 
ATOM      4  H   UNL     1      -4.564  12.004  19.858  0.00  0.00    +0.000 HD
ENDROOT
BRANCH   1   8
ATOM      5  O   UNL     1      -6.818  15.135  16.060  0.00  0.00    +0.000 OA
ATOM      6  C   UNL     1      -6.701  14.356  17.007  0.00  0.00    +0.000 C 
ATOM      7  C   UNL     1      -6.925  12.865  16.853  0.00  0.00    +0.000 C 
ATOM      8  C   UNL     1      -6.296  12.037  17.979  0.00  0.00    +0.000 C 
ATOM      9  C   UNL     1      -6.628  12.661  19.313  0.00  0.00    +0.000 A 
ATOM     10  C   UNL     1      -6.886  11.887  20.449  0.00  0.00    +0.000 A 
ATOM     11  C   UNL     1      -7.048  12.506  21.688  0.00  0.00    +0.000 A 
ATOM     12  C   UNL     1      -6.921  13.891  21.803  0.00  0.00    +0.000 A 
ATOM     13  C   UNL     1      -6.688  14.670  20.670  0.00  0.00    +0.000 A 
ATOM     14  C   UNL     1      -6.587  14.053  19.425  0.00  0.00    +0.000 A 
ATOM     15  N   UNL     1      -6.502  14.836  18.272  0.00  0.00    +0.000 N 
ATOM     16  H   UNL     1      -6.446  15.844  18.344  0.00  0.00    +0.000 HD
ENDBRANCH   1   8
BRANCH   3  17
ATOM     17  C   UNL     1      -2.646  11.913  19.144  0.00  0.00    +0.000 A 
ATOM     18  C   UNL     1      -1.907  10.825  18.663  0.00  0.00    +0.000 A 
ATOM     19  C   UNL     1      -0.521  10.791  18.811  0.00  0.00    +0.000 A 
ATOM     20  C   UNL     1       0.142  11.862  19.393  0.00  0.00    +0.000 A 
ATOM     21  C   UNL     1      -0.586  12.946  19.882  0.00  0.00    +0.000 A 
ATOM     22  C   UNL     1      -1.991  12.974  19.824  0.00  0.00    +0.000 A 
BRANCH  22  23
ATOM     23  N   UNL     1      -2.755  13.963  20.511  0.00  0.00    +0.000 N 
ATOM     24  C   UNL     1      -2.104  15.294  20.727  0.00  0.00    +0.000 C 
ATOM     25  C   UNL     1      -3.009  16.066  21.691  0.00  0.00    +0.000 C 
ATOM     26  C   UNL     1      -3.283  14.922  22.604  0.00  0.00    +0.000 A 
ATOM     27  C   UNL     1      -3.361  14.903  23.985  0.00  0.00    +0.000 A 
ATOM     28  C   UNL     1      -3.475  13.663  24.615  0.00  0.00    +0.000 A 
ATOM     29  C   UNL     1      -3.588  12.485  23.865  0.00  0.00    +0.000 A 
ATOM     30  C   UNL     1      -3.481  12.517  22.476  0.00  0.00    +0.000 A 
ATOM     31  C   UNL     1      -3.248  13.736  21.859  0.00  0.00    +0.000 A 
ENDBRANCH  22  23
ENDBRANCH   3  17
TORSDOF 3
ENDMDL
MODEL 4
REMARK VINA RESULT:      -7.3      9.807     12.261
REMARK  Name = 
REMARK  3 active torsions:
REMARK  status: ('A' for Active; 'I' for Inactive)
REMARK    1  A    between atoms: C_4  and  C_5
REMARK    2  A    between atoms: N_7  and  C_8
REMARK    3  A    between atoms: C_13  and  N_14
REMARK                            x       y       z     vdW  Elec       q    Type
REMARK                         _______ _______ _______ _____ _____    ______ ____
ROOT
ATOM      1  C   UNL     1       9.033  12.203  22.188  0.00  0.00    +0.000 C 
ATOM      2  O   UNL     1       8.636  11.078  21.889  0.00  0.00    +0.000 OA
ATOM      3  N   UNL     1       9.880  12.982  21.418  0.00  0.00    +0.000 N 
ATOM      4  H   UNL     1      10.298  13.813  21.842  0.00  0.00    +0.000 HD
ENDROOT
BRANCH   1   8
ATOM      5  O   UNL     1       5.285  11.395  23.901  0.00  0.00    +0.000 OA
ATOM      6  C   UNL     1       6.188  12.206  23.693  0.00  0.00    +0.000 C 
ATOM      7  C   UNL     1       7.580  12.022  24.264  0.00  0.00    +0.000 C 
ATOM      8  C   UNL     1       8.648  12.847  23.537  0.00  0.00    +0.000 C 
ATOM      9  C   UNL     1       8.152  14.259  23.342  0.00  0.00    +0.000 A 
ATOM     10  C   UNL     1       9.005  15.363  23.431  0.00  0.00    +0.000 A 
ATOM     11  C   UNL     1       8.534  16.634  23.104  0.00  0.00    +0.000 A 
ATOM     12  C   UNL     1       7.221  16.802  22.658  0.00  0.00    +0.000 A 
ATOM     13  C   UNL     1       6.359  15.709  22.591  0.00  0.00    +0.000 A 
ATOM     14  C   UNL     1       6.817  14.451  22.976  0.00  0.00    +0.000 A 
ATOM     15  N   UNL     1       5.920  13.384  23.051  0.00  0.00    +0.000 N 
ATOM     16  H   UNL     1       4.957  13.506  22.763  0.00  0.00    +0.000 HD
ENDBRANCH   1   8
BRANCH   3  17
ATOM     17  C   UNL     1      10.428  12.671  20.147  0.00  0.00    +0.000 A 
ATOM     18  C   UNL     1      11.636  11.977  20.002  0.00  0.00    +0.000 A 
ATOM     19  C   UNL     1      12.116  11.651  18.735  0.00  0.00    +0.000 A 
ATOM     20  C   UNL     1      11.373  11.968  17.607  0.00  0.00    +0.000 A 
ATOM     21  C   UNL     1      10.174  12.665  17.740  0.00  0.00    +0.000 A 
ATOM     22  C   UNL     1       9.702  13.083  18.997  0.00  0.00    +0.000 A 
BRANCH  22  23
ATOM     23  N   UNL     1       8.600  13.980  19.130  0.00  0.00    +0.000 N 
ATOM     24  C   UNL     1       7.628  14.034  17.992  0.00  0.00    +0.000 C 
ATOM     25  C   UNL     1       6.713  15.230  18.263  0.00  0.00    +0.000 C 
ATOM     26  C   UNL     1       7.789  16.158  18.709  0.00  0.00    +0.000 A 
ATOM     27  C   UNL     1       7.953  17.503  18.437  0.00  0.00    +0.000 A 
ATOM     28  C   UNL     1       9.140  18.112  18.849  0.00  0.00    +0.000 A 
ATOM     29  C   UNL     1      10.095  17.398  19.584  0.00  0.00    +0.000 A 
ATOM     30  C   UNL     1       9.928  16.036  19.828  0.00  0.00    +0.000 A 
ATOM     31  C   UNL     1       8.805  15.406  19.315  0.00  0.00    +0.000 A 
ENDBRANCH  22  23
ENDBRANCH   3  17
TORSDOF 3
ENDMDL
MODEL 5
REMARK VINA RESULT:      -7.3      1.958      2.630
REMARK  Name = 
REMARK  3 active torsions:
REMARK  status: ('A' for Active; 'I' for Inactive)
REMARK    1  A    between atoms: C_4  and  C_5
REMARK    2  A    between atoms: N_7  and  C_8
REMARK    3  A    between atoms: C_13  and  N_14
REMARK                            x       y       z     vdW  Elec       q    Type
REMARK                         _______ _______ _______ _____ _____    ______ ____
ROOT
ATOM      1  C   UNL     1      -1.721  10.777  17.990  0.00  0.00    +0.000 C 
ATOM      2  O   UNL     1      -0.598  10.308  17.821  0.00  0.00    +0.000 OA
ATOM      3  N   UNL     1      -1.995  12.015  18.550  0.00  0.00    +0.000 N 
ATOM      4  H   UNL     1      -2.959  12.226  18.818  0.00  0.00    +0.000 HD
ENDROOT
BRANCH   1   8
ATOM      5  O   UNL     1      -2.747  10.187  13.961  0.00  0.00    +0.000 OA
ATOM      6  C   UNL     1      -3.120  10.380  15.119  0.00  0.00    +0.000 C 
ATOM      7  C   UNL     1      -2.876   9.368  16.220  0.00  0.00    +0.000 C 
ATOM      8  C   UNL     1      -2.983   9.965  17.628  0.00  0.00    +0.000 C 
ATOM      9  C   UNL     1      -4.224  10.819  17.723  0.00  0.00    +0.000 A 
ATOM     10  C   UNL     1      -4.995  10.877  18.888  0.00  0.00    +0.000 A 
ATOM     11  C   UNL     1      -6.049  11.785  18.979  0.00  0.00    +0.000 A 
ATOM     12  C   UNL     1      -6.317  12.657  17.922  0.00  0.00    +0.000 A 
ATOM     13  C   UNL     1      -5.567  12.587  16.748  0.00  0.00    +0.000 A 
ATOM     14  C   UNL     1      -4.554  11.637  16.639  0.00  0.00    +0.000 A 
ATOM     15  N   UNL     1      -3.899  11.463  15.419  0.00  0.00    +0.000 N 
ATOM     16  H   UNL     1      -4.113  12.068  14.635  0.00  0.00    +0.000 HD
ENDBRANCH   1   8
BRANCH   3  17
ATOM     17  C   UNL     1      -1.065  12.985  19.004  0.00  0.00    +0.000 A 
ATOM     18  C   UNL     1      -0.361  13.816  18.123  0.00  0.00    +0.000 A 
ATOM     19  C   UNL     1       0.509  14.788  18.612  0.00  0.00    +0.000 A 
ATOM     20  C   UNL     1       0.648  14.972  19.981  0.00  0.00    +0.000 A 
ATOM     21  C   UNL     1      -0.041  14.145  20.865  0.00  0.00    +0.000 A 
ATOM     22  C   UNL     1      -0.864  13.100  20.405  0.00  0.00    +0.000 A 
BRANCH  22  23
ATOM     23  N   UNL     1      -1.397  12.114  21.288  0.00  0.00    +0.000 N 
ATOM     24  C   UNL     1      -1.728  12.558  22.680  0.00  0.00    +0.000 C 
ATOM     25  C   UNL     1      -2.026  11.287  23.478  0.00  0.00    +0.000 C 
ATOM     26  C   UNL     1      -0.905  10.480  22.922  0.00  0.00    +0.000 A 
ATOM     27  C   UNL     1      -0.060   9.595  23.565  0.00  0.00    +0.000 A 
ATOM     28  C   UNL     1       1.019   9.082  22.843  0.00  0.00    +0.000 A 
ATOM     29  C   UNL     1       1.189   9.394  21.488  0.00  0.00    +0.000 A 
ATOM     30  C   UNL     1       0.345  10.308  20.860  0.00  0.00    +0.000 A 
ATOM     31  C   UNL     1      -0.654  10.908  21.611  0.00  0.00    +0.000 A 
ENDBRANCH  22  23
ENDBRANCH   3  17
TORSDOF 3
ENDMDL
MODEL 6
REMARK VINA RESULT:      -7.2      6.087      9.941
REMARK  Name = 
REMARK  3 active torsions:
REMARK  status: ('A' for Active; 'I' for Inactive)
REMARK    1  A    between atoms: C_4  and  C_5
REMARK    2  A    between atoms: N_7  and  C_8
REMARK    3  A    between atoms: C_13  and  N_14
REMARK                            x       y       z     vdW  Elec       q    Type
REMARK                         _______ _______ _______ _____ _____    ______ ____
ROOT
ATOM      1  C   UNL     1       4.372   5.960  18.334  0.00  0.00    +0.000 C 
ATOM      2  O   UNL     1       4.114   6.734  17.415  0.00  0.00    +0.000 OA
ATOM      3  N   UNL     1       3.704   5.910  19.547  0.00  0.00    +0.000 N 
ATOM      4  H   UNL     1       4.117   5.367  20.309  0.00  0.00    +0.000 HD
ENDROOT
BRANCH   1   8
ATOM      5  O   UNL     1       8.309   7.352  18.774  0.00  0.00    +0.000 OA
ATOM      6  C   UNL     1       7.527   6.581  18.215  0.00  0.00    +0.000 C 
ATOM      7  C   UNL     1       6.786   5.499  18.975  0.00  0.00    +0.000 C 
ATOM      8  C   UNL     1       5.553   4.972  18.232  0.00  0.00    +0.000 C 
ATOM      9  C   UNL     1       5.908   4.698  16.791  0.00  0.00    +0.000 A 
ATOM     10  C   UNL     1       5.369   3.616  16.089  0.00  0.00    +0.000 A 
ATOM     11  C   UNL     1       5.614   3.484  14.722  0.00  0.00    +0.000 A 
ATOM     12  C   UNL     1       6.370   4.445  14.049  0.00  0.00    +0.000 A 
ATOM     13  C   UNL     1       6.931   5.512  14.749  0.00  0.00    +0.000 A 
ATOM     14  C   UNL     1       6.734   5.608  16.124  0.00  0.00    +0.000 A 
ATOM     15  N   UNL     1       7.411   6.587  16.853  0.00  0.00    +0.000 N 
ATOM     16  H   UNL     1       7.990   7.267  16.376  0.00  0.00    +0.000 HD
ENDBRANCH   1   8
BRANCH   3  17
ATOM     17  C   UNL     1       2.597   6.695  19.960  0.00  0.00    +0.000 A 
ATOM     18  C   UNL     1       2.619   8.095  19.926  0.00  0.00    +0.000 A 
ATOM     19  C   UNL     1       1.494   8.829  20.297  0.00  0.00    +0.000 A 
ATOM     20  C   UNL     1       0.324   8.174  20.656  0.00  0.00    +0.000 A 
ATOM     21  C   UNL     1       0.294   6.781  20.700  0.00  0.00    +0.000 A 
ATOM     22  C   UNL     1       1.436   6.012  20.413  0.00  0.00    +0.000 A 
BRANCH  22  23
ATOM     23  N   UNL     1       1.485   4.609  20.665  0.00  0.00    +0.000 N 
ATOM     24  C   UNL     1       2.528   4.128  21.626  0.00  0.00    +0.000 C 
ATOM     25  C   UNL     1       2.539   2.601  21.523  0.00  0.00    +0.000 C 
ATOM     26  C   UNL     1       2.437   2.540  20.039  0.00  0.00    +0.000 A 
ATOM     27  C   UNL     1       3.080   1.697  19.151  0.00  0.00    +0.000 A 
ATOM     28  C   UNL     1       2.930   1.950  17.786  0.00  0.00    +0.000 A 
ATOM     29  C   UNL     1       2.090   2.976  17.334  0.00  0.00    +0.000 A 
ATOM     30  C   UNL     1       1.469   3.834  18.241  0.00  0.00    +0.000 A 
ATOM     31  C   UNL     1       1.715   3.656  19.593  0.00  0.00    +0.000 A 
ENDBRANCH  22  23
ENDBRANCH   3  17
TORSDOF 3
ENDMDL
MODEL 7
REMARK VINA RESULT:      -7.0      3.146      6.713
REMARK  Name = 
REMARK  3 active torsions:
REMARK  status: ('A' for Active; 'I' for Inactive)
REMARK    1  A    between atoms: C_4  and  C_5
REMARK    2  A    between atoms: N_7  and  C_8
REMARK    3  A    between atoms: C_13  and  N_14
REMARK                            x       y       z     vdW  Elec       q    Type
REMARK                         _______ _______ _______ _____ _____    ______ ____
ROOT
ATOM      1  C   UNL     1       0.241  14.569  19.387  0.00  0.00    +0.000 C 
ATOM      2  O   UNL     1      -0.384  14.357  18.350  0.00  0.00    +0.000 OA
ATOM      3  N   UNL     1       0.679  13.595  20.270  0.00  0.00    +0.000 N 
ATOM      4  H   UNL     1       1.017  13.887  21.189  0.00  0.00    +0.000 HD
ENDROOT
BRANCH   1   8
ATOM      5  O   UNL     1      -2.822  16.983  20.946  0.00  0.00    +0.000 OA
ATOM      6  C   UNL     1      -1.794  16.900  20.272  0.00  0.00    +0.000 C 
ATOM      7  C   UNL     1      -0.465  16.500  20.880  0.00  0.00    +0.000 C 
ATOM      8  C   UNL     1       0.554  16.010  19.845  0.00  0.00    +0.000 C 
ATOM      9  C   UNL     1       0.578  16.958  18.671  0.00  0.00    +0.000 A 
ATOM     10  C   UNL     1       1.761  17.267  17.992  0.00  0.00    +0.000 A 
ATOM     11  C   UNL     1       1.715  18.034  16.829  0.00  0.00    +0.000 A 
ATOM     12  C   UNL     1       0.489  18.469  16.323  0.00  0.00    +0.000 A 
ATOM     13  C   UNL     1      -0.692  18.186  17.009  0.00  0.00    +0.000 A 
ATOM     14  C   UNL     1      -0.635  17.470  18.203  0.00  0.00    +0.000 A 
ATOM     15  N   UNL     1      -1.792  17.311  18.967  0.00  0.00    +0.000 N 
ATOM     16  H   UNL     1      -2.681  17.655  18.625  0.00  0.00    +0.000 HD
ENDBRANCH   1   8
BRANCH   3  17
ATOM     17  C   UNL     1       0.531  12.189  20.151  0.00  0.00    +0.000 A 
ATOM     18  C   UNL     1       1.286  11.432  19.246  0.00  0.00    +0.000 A 
ATOM     19  C   UNL     1       1.144  10.047  19.192  0.00  0.00    +0.000 A 
ATOM     20  C   UNL     1       0.287   9.401  20.073  0.00  0.00    +0.000 A 
ATOM     21  C   UNL     1      -0.474  10.146  20.972  0.00  0.00    +0.000 A 
ATOM     22  C   UNL     1      -0.416  11.552  20.995  0.00  0.00    +0.000 A 
BRANCH  22  23
ATOM     23  N   UNL     1      -1.342  12.333  21.749  0.00  0.00    +0.000 N 
ATOM     24  C   UNL     1      -1.720  11.817  23.103  0.00  0.00    +0.000 C 
ATOM     25  C   UNL     1      -2.893  12.677  23.581  0.00  0.00    +0.000 C 
ATOM     26  C   UNL     1      -3.615  12.702  22.279  0.00  0.00    +0.000 A 
ATOM     27  C   UNL     1      -4.971  12.604  22.027  0.00  0.00    +0.000 A 
ATOM     28  C   UNL     1      -5.382  12.496  20.697  0.00  0.00    +0.000 A 
ATOM     29  C   UNL     1      -4.452  12.566  19.651  0.00  0.00    +0.000 A 
ATOM     30  C   UNL     1      -3.086  12.637  19.921  0.00  0.00    +0.000 A 
ATOM     31  C   UNL     1      -2.672  12.624  21.243  0.00  0.00    +0.000 A 
ENDBRANCH  22  23
ENDBRANCH   3  17
TORSDOF 3
ENDMDL
MODEL 8
REMARK VINA RESULT:      -7.0      3.989      7.440
REMARK  Name = 
REMARK  3 active torsions:
REMARK  status: ('A' for Active; 'I' for Inactive)
REMARK    1  A    between atoms: C_4  and  C_5
REMARK    2  A    between atoms: N_7  and  C_8
REMARK    3  A    between atoms: C_13  and  N_14
REMARK                            x       y       z     vdW  Elec       q    Type
REMARK                         _______ _______ _______ _____ _____    ______ ____
ROOT
ATOM      1  C   UNL     1       1.206   7.534  20.773  0.00  0.00    +0.000 C 
ATOM      2  O   UNL     1       0.037   7.216  20.979  0.00  0.00    +0.000 OA
ATOM      3  N   UNL     1       2.203   6.675  20.338  0.00  0.00    +0.000 N 
ATOM      4  H   UNL     1       3.174   6.993  20.383  0.00  0.00    +0.000 HD
ENDROOT
BRANCH   1   8
ATOM      5  O   UNL     1       0.035   9.505  24.291  0.00  0.00    +0.000 OA
ATOM      6  C   UNL     1       0.296   9.575  23.089  0.00  0.00    +0.000 C 
ATOM      7  C   UNL     1       1.683   9.284  22.551  0.00  0.00    +0.000 C 
ATOM      8  C   UNL     1       1.698   8.970  21.051  0.00  0.00    +0.000 C 
ATOM      9  C   UNL     1       0.859   9.983  20.312  0.00  0.00    +0.000 A 
ATOM     10  C   UNL     1       1.213  10.458  19.045  0.00  0.00    +0.000 A 
ATOM     11  C   UNL     1       0.337  11.283  18.342  0.00  0.00    +0.000 A 
ATOM     12  C   UNL     1      -0.906  11.612  18.886  0.00  0.00    +0.000 A 
ATOM     13  C   UNL     1      -1.255  11.163  20.159  0.00  0.00    +0.000 A 
ATOM     14  C   UNL     1      -0.352  10.388  20.883  0.00  0.00    +0.000 A 
ATOM     15  N   UNL     1      -0.633  10.059  22.210  0.00  0.00    +0.000 N 
ATOM     16  H   UNL     1      -1.517  10.325  22.624  0.00  0.00    +0.000 HD
ENDBRANCH   1   8
BRANCH   3  17
ATOM     17  C   UNL     1       2.082   5.298  20.018  0.00  0.00    +0.000 A 
ATOM     18  C   UNL     1       1.260   4.431  20.748  0.00  0.00    +0.000 A 
ATOM     19  C   UNL     1       1.134   3.094  20.373  0.00  0.00    +0.000 A 
ATOM     20  C   UNL     1       1.785   2.626  19.241  0.00  0.00    +0.000 A 
ATOM     21  C   UNL     1       2.611   3.479  18.512  0.00  0.00    +0.000 A 
ATOM     22  C   UNL     1       2.826   4.811  18.911  0.00  0.00    +0.000 A 
BRANCH  22  23
ATOM     23  N   UNL     1       3.831   5.626  18.310  0.00  0.00    +0.000 N 
ATOM     24  C   UNL     1       3.370   6.869  17.615  0.00  0.00    +0.000 C 
ATOM     25  C   UNL     1       4.581   7.411  16.851  0.00  0.00    +0.000 C 
ATOM     26  C   UNL     1       5.054   6.093  16.343  0.00  0.00    +0.000 A 
ATOM     27  C   UNL     1       5.560   5.765  15.099  0.00  0.00    +0.000 A 
ATOM     28  C   UNL     1       5.786   4.416  14.822  0.00  0.00    +0.000 A 
ATOM     29  C   UNL     1       5.579   3.437  15.804  0.00  0.00    +0.000 A 
ATOM     30  C   UNL     1       5.043   3.780  17.043  0.00  0.00    +0.000 A 
ATOM     31  C   UNL     1       4.707   5.105  17.275  0.00  0.00    +0.000 A 
ENDBRANCH  22  23
ENDBRANCH   3  17
TORSDOF 3
ENDMDL
MODEL 9
REMARK VINA RESULT:      -6.9      2.083      2.351
REMARK  Name = 
REMARK  3 active torsions:
REMARK  status: ('A' for Active; 'I' for Inactive)
REMARK    1  A    between atoms: C_4  and  C_5
REMARK    2  A    between atoms: N_7  and  C_8
REMARK    3  A    between atoms: C_13  and  N_14
REMARK                            x       y       z     vdW  Elec       q    Type
REMARK                         _______ _______ _______ _____ _____    ______ ____
ROOT
ATOM      1  C   UNL     1      -2.836  12.046  18.990  0.00  0.00    +0.000 C 
ATOM      2  O   UNL     1      -2.611  11.772  17.813  0.00  0.00    +0.000 OA
ATOM      3  N   UNL     1      -1.939  12.651  19.855  0.00  0.00    +0.000 N 
ATOM      4  H   UNL     1      -2.155  12.659  20.854  0.00  0.00    +0.000 HD
ENDROOT
BRANCH   1   8
ATOM      5  O   UNL     1      -6.434  12.668  16.917  0.00  0.00    +0.000 OA
ATOM      6  C   UNL     1      -5.830  12.672  17.991  0.00  0.00    +0.000 C 
ATOM      7  C   UNL     1      -5.262  11.405  18.597  0.00  0.00    +0.000 C 
ATOM      8  C   UNL     1      -4.179  11.668  19.650  0.00  0.00    +0.000 C 
ATOM      9  C   UNL     1      -4.642  12.750  20.594  0.00  0.00    +0.000 A 
ATOM     10  C   UNL     1      -4.339  12.721  21.959  0.00  0.00    +0.000 A 
ATOM     11  C   UNL     1      -4.666  13.811  22.766  0.00  0.00    +0.000 A 
ATOM     12  C   UNL     1      -5.266  14.942  22.209  0.00  0.00    +0.000 A 
ATOM     13  C   UNL     1      -5.593  14.966  20.854  0.00  0.00    +0.000 A 
ATOM     14  C   UNL     1      -5.320  13.852  20.064  0.00  0.00    +0.000 A 
ATOM     15  N   UNL     1      -5.776  13.812  18.745  0.00  0.00    +0.000 N 
ATOM     16  H   UNL     1      -6.245  14.614  18.344  0.00  0.00    +0.000 HD
ENDBRANCH   1   8
BRANCH   3  17
ATOM     17  C   UNL     1      -0.623  13.098  19.566  0.00  0.00    +0.000 A 
ATOM     18  C   UNL     1      -0.369  14.341  18.972  0.00  0.00    +0.000 A 
ATOM     19  C   UNL     1       0.940  14.762  18.747  0.00  0.00    +0.000 A 
ATOM     20  C   UNL     1       2.005  13.971  19.157  0.00  0.00    +0.000 A 
ATOM     21  C   UNL     1       1.762  12.730  19.742  0.00  0.00    +0.000 A 
ATOM     22  C   UNL     1       0.455  12.238  19.908  0.00  0.00    +0.000 A 
BRANCH  22  23
ATOM     23  N   UNL     1       0.199  10.890  20.297  0.00  0.00    +0.000 N 
ATOM     24  C   UNL     1       0.631  10.488  21.674  0.00  0.00    +0.000 C 
ATOM     25  C   UNL     1       0.484   8.967  21.745  0.00  0.00    +0.000 C 
ATOM     26  C   UNL     1       1.046   8.687  20.395  0.00  0.00    +0.000 A 
ATOM     27  C   UNL     1       1.899   7.676  19.993  0.00  0.00    +0.000 A 
ATOM     28  C   UNL     1       2.408   7.727  18.695  0.00  0.00    +0.000 A 
ATOM     29  C   UNL     1       2.001   8.730  17.804  0.00  0.00    +0.000 A 
ATOM     30  C   UNL     1       1.162   9.758  18.231  0.00  0.00    +0.000 A 
ATOM     31  C   UNL     1       0.754   9.771  19.555  0.00  0.00    +0.000 A 
ENDBRANCH  22  23
ENDBRANCH   3  17
TORSDOF 3
ENDMDL
