MODEL 1
REMARK VINA RESULT:      -9.2      0.000      0.000
REMARK  Name = 
REMARK  6 active torsions:
REMARK  status: ('A' for Active; 'I' for Inactive)
REMARK    1  A    between atoms: C_1  and  C_2
REMARK    2  A    between atoms: C_5  and  N_6
REMARK    3  A    between atoms: C_7  and  C_9
REMARK    4  A    between atoms: C_9  and  C_10
REMARK    5  A    between atoms: C_10  and  N_11
REMARK    6  A    between atoms: C_24  and  C_25
REMARK                            x       y       z     vdW  Elec       q    Type
REMARK                         _______ _______ _______ _____ _____    ______ ____
ROOT
ATOM      1  N   UNL     1       1.911   8.806  17.834  0.00  0.00    +0.000 N 
ATOM      2  C   UNL     1       2.491   7.795  18.590  0.00  0.00    +0.000 C 
ATOM      3  O   UNL     1       2.212   7.506  19.750  0.00  0.00    +0.000 OA
ATOM      4  H   UNL     1       2.263   8.943  16.895  0.00  0.00    +0.000 HD
ENDROOT
BRANCH   1   9
ATOM      5  C   UNL     1      -2.552  12.092  19.419  0.00  0.00    +0.000 C 
ATOM      6  C   UNL     1      -1.412  11.225  18.956  0.00  0.00    +0.000 A 
ATOM      7  C   UNL     1      -0.186  11.344  19.621  0.00  0.00    +0.000 A 
ATOM      8  C   UNL     1       0.915  10.565  19.259  0.00  0.00    +0.000 A 
ATOM      9  C   UNL     1       0.831   9.638  18.227  0.00  0.00    +0.000 A 
ATOM     10  C   UNL     1      -0.393   9.518  17.547  0.00  0.00    +0.000 A 
ATOM     11  C   UNL     1      -1.524  10.305  17.894  0.00  0.00    +0.000 A 
BRANCH  11  12
ATOM     12  C   UNL     1      -2.794  10.108  17.089  0.00  0.00    +0.000 C 
ATOM     13  F   UNL     1      -2.692   9.255  16.034  0.00  0.00    +0.000 F 
ATOM     14  F   UNL     1      -3.812   9.620  17.853  0.00  0.00    +0.000 F 
ATOM     15  F   UNL     1      -3.257  11.279  16.567  0.00  0.00    +0.000 F 
ENDBRANCH  11  12
ENDBRANCH   1   9
BRANCH   2  16
ATOM     16  C   UNL     1       3.605   7.058  17.868  0.00  0.00    +0.000 C 
BRANCH  16  17
ATOM     17  C   UNL     1       3.114   5.672  17.434  0.00  0.00    +0.000 C 
BRANCH  17  18
ATOM     18  N   UNL     1       3.603   4.600  18.307  0.00  0.00    +0.000 N 
ATOM     19  C   UNL     1       4.944   4.260  18.194  0.00  0.00    +0.000 A 
ATOM     20  O   UNL     1       5.734   4.834  17.442  0.00  0.00    +0.000 OA
ATOM     21  N   UNL     1       5.395   3.246  18.987  0.00  0.00    +0.000 N 
ATOM     22  C   UNL     1       4.700   2.608  19.974  0.00  0.00    +0.000 A 
ATOM     23  O   UNL     1       5.217   1.752  20.682  0.00  0.00    +0.000 OA
ATOM     24  C   UNL     1       3.300   3.023  20.147  0.00  0.00    +0.000 A 
ATOM     25  C   UNL     1       2.541   2.445  21.175  0.00  0.00    +0.000 A 
ATOM     26  C   UNL     1       1.213   2.822  21.347  0.00  0.00    +0.000 A 
ATOM     27  C   UNL     1       0.647   3.751  20.480  0.00  0.00    +0.000 A 
ATOM     28  C   UNL     1       1.413   4.331  19.457  0.00  0.00    +0.000 A 
ATOM     29  C   UNL     1       2.762   3.991  19.289  0.00  0.00    +0.000 A 
ATOM     30  H   UNL     1       6.368   3.002  18.888  0.00  0.00    +0.000 HD
ENDBRANCH  17  18
ENDBRANCH  16  17
ENDBRANCH   2  16
TORSDOF 5
ENDMDL
MODEL 2
REMARK VINA RESULT:      -8.7      4.201      8.671
REMARK  Name = 
REMARK  6 active torsions:
REMARK  status: ('A' for Active; 'I' for Inactive)
REMARK    1  A    between atoms: C_1  and  C_2
REMARK    2  A    between atoms: C_5  and  N_6
REMARK    3  A    between atoms: C_7  and  C_9
REMARK    4  A    between atoms: C_9  and  C_10
REMARK    5  A    between atoms: C_10  and  N_11
REMARK    6  A    between atoms: C_24  and  C_25
REMARK                            x       y       z     vdW  Elec       q    Type
REMARK                         _______ _______ _______ _____ _____    ______ ____
ROOT
ATOM      1  N   UNL     1       1.823   7.985  20.805  0.00  0.00    +0.000 N 
ATOM      2  C   UNL     1       0.633   8.358  21.418  0.00  0.00    +0.000 C 
ATOM      3  O   UNL     1      -0.456   7.810  21.278  0.00  0.00    +0.000 OA
ATOM      4  H   UNL     1       2.641   8.550  20.999  0.00  0.00    +0.000 HD
ENDROOT
BRANCH   1   9
ATOM      5  C   UNL     1       2.533   3.353  17.449  0.00  0.00    +0.000 C 
ATOM      6  C   UNL     1       2.344   4.528  18.370  0.00  0.00    +0.000 A 
ATOM      7  C   UNL     1       2.735   5.792  17.909  0.00  0.00    +0.000 A 
ATOM      8  C   UNL     1       2.579   6.932  18.699  0.00  0.00    +0.000 A 
ATOM      9  C   UNL     1       2.024   6.855  19.972  0.00  0.00    +0.000 A 
ATOM     10  C   UNL     1       1.638   5.591  20.446  0.00  0.00    +0.000 A 
ATOM     11  C   UNL     1       1.793   4.416  19.662  0.00  0.00    +0.000 A 
BRANCH  11  12
ATOM     12  C   UNL     1       1.356   3.098  20.273  0.00  0.00    +0.000 C 
ATOM     13  F   UNL     1       0.945   3.161  21.568  0.00  0.00    +0.000 F 
ATOM     14  F   UNL     1       0.319   2.538  19.589  0.00  0.00    +0.000 F 
ATOM     15  F   UNL     1       2.353   2.168  20.252  0.00  0.00    +0.000 F 
ENDBRANCH  11  12
ENDBRANCH   1   9
BRANCH   2  16
ATOM     16  C   UNL     1       0.757   9.599  22.283  0.00  0.00    +0.000 C 
BRANCH  16  17
ATOM     17  C   UNL     1       0.861  10.844  21.395  0.00  0.00    +0.000 C 
BRANCH  17  18
ATOM     18  N   UNL     1      -0.450  11.401  21.046  0.00  0.00    +0.000 N 
ATOM     19  C   UNL     1      -1.029  12.266  21.963  0.00  0.00    +0.000 A 
ATOM     20  O   UNL     1      -0.486  12.613  23.014  0.00  0.00    +0.000 OA
ATOM     21  N   UNL     1      -2.260  12.765  21.653  0.00  0.00    +0.000 N 
ATOM     22  C   UNL     1      -2.935  12.605  20.477  0.00  0.00    +0.000 A 
ATOM     23  O   UNL     1      -4.011  13.153  20.266  0.00  0.00    +0.000 OA
ATOM     24  C   UNL     1      -2.284  11.751  19.472  0.00  0.00    +0.000 A 
ATOM     25  C   UNL     1      -2.896  11.583  18.222  0.00  0.00    +0.000 A 
ATOM     26  C   UNL     1      -2.297  10.773  17.263  0.00  0.00    +0.000 A 
ATOM     27  C   UNL     1      -1.107  10.118  17.567  0.00  0.00    +0.000 A 
ATOM     28  C   UNL     1      -0.495  10.295  18.817  0.00  0.00    +0.000 A 
ATOM     29  C   UNL     1      -1.066  11.135  19.784  0.00  0.00    +0.000 A 
ATOM     30  H   UNL     1      -2.674  13.384  22.333  0.00  0.00    +0.000 HD
ENDBRANCH  17  18
ENDBRANCH  16  17
ENDBRANCH   2  16
TORSDOF 5
ENDMDL
MODEL 3
REMARK VINA RESULT:      -8.6      0.840      1.117
REMARK  Name = 
REMARK  6 active torsions:
REMARK  status: ('A' for Active; 'I' for Inactive)
REMARK    1  A    between atoms: C_1  and  C_2
REMARK    2  A    between atoms: C_5  and  N_6
REMARK    3  A    between atoms: C_7  and  C_9
REMARK    4  A    between atoms: C_9  and  C_10
REMARK    5  A    between atoms: C_10  and  N_11
REMARK    6  A    between atoms: C_24  and  C_25
REMARK                            x       y       z     vdW  Elec       q    Type
REMARK                         _______ _______ _______ _____ _____    ______ ____
ROOT
ATOM      1  N   UNL     1       1.804   8.637  19.314  0.00  0.00    +0.000 N 
ATOM      2  C   UNL     1       2.526   8.309  18.173  0.00  0.00    +0.000 C 
ATOM      3  O   UNL     1       2.313   8.723  17.038  0.00  0.00    +0.000 OA
ATOM      4  H   UNL     1       2.083   8.196  20.182  0.00  0.00    +0.000 HD
ENDROOT
BRANCH   1   9
ATOM      5  C   UNL     1      -2.584  12.361  19.630  0.00  0.00    +0.000 C 
ATOM      6  C   UNL     1      -1.449  11.382  19.492  0.00  0.00    +0.000 A 
ATOM      7  C   UNL     1      -0.467  11.373  20.491  0.00  0.00    +0.000 A 
ATOM      8  C   UNL     1       0.610  10.486  20.441  0.00  0.00    +0.000 A 
ATOM      9  C   UNL     1       0.743   9.574  19.400  0.00  0.00    +0.000 A 
ATOM     10  C   UNL     1      -0.232   9.582  18.389  0.00  0.00    +0.000 A 
ATOM     11  C   UNL     1      -1.333  10.480  18.415  0.00  0.00    +0.000 A 
BRANCH  11  12
ATOM     12  C   UNL     1      -2.322  10.417  17.268  0.00  0.00    +0.000 C 
ATOM     13  F   UNL     1      -3.609  10.146  17.620  0.00  0.00    +0.000 F 
ATOM     14  F   UNL     1      -2.374  11.589  16.574  0.00  0.00    +0.000 F 
ATOM     15  F   UNL     1      -1.987   9.464  16.353  0.00  0.00    +0.000 F 
ENDBRANCH  11  12
ENDBRANCH   1   9
BRANCH   2  16
ATOM     16  C   UNL     1       3.630   7.297  18.422  0.00  0.00    +0.000 C 
BRANCH  16  17
ATOM     17  C   UNL     1       3.317   5.993  17.681  0.00  0.00    +0.000 C 
BRANCH  17  18
ATOM     18  N   UNL     1       3.736   4.803  18.428  0.00  0.00    +0.000 N 
ATOM     19  C   UNL     1       5.037   4.362  18.230  0.00  0.00    +0.000 A 
ATOM     20  O   UNL     1       5.850   4.937  17.503  0.00  0.00    +0.000 OA
ATOM     21  N   UNL     1       5.421   3.241  18.903  0.00  0.00    +0.000 N 
ATOM     22  C   UNL     1       4.704   2.571  19.852  0.00  0.00    +0.000 A 
ATOM     23  O   UNL     1       5.165   1.608  20.455  0.00  0.00    +0.000 OA
ATOM     24  C   UNL     1       3.353   3.084  20.121  0.00  0.00    +0.000 A 
ATOM     25  C   UNL     1       2.578   2.476  21.119  0.00  0.00    +0.000 A 
ATOM     26  C   UNL     1       1.296   2.945  21.380  0.00  0.00    +0.000 A 
ATOM     27  C   UNL     1       0.787   4.000  20.628  0.00  0.00    +0.000 A 
ATOM     28  C   UNL     1       1.568   4.610  19.635  0.00  0.00    +0.000 A 
ATOM     29  C   UNL     1       2.876   4.174  19.381  0.00  0.00    +0.000 A 
ATOM     30  H   UNL     1       6.365   2.925  18.742  0.00  0.00    +0.000 HD
ENDBRANCH  17  18
ENDBRANCH  16  17
ENDBRANCH   2  16
TORSDOF 5
ENDMDL
MODEL 4
REMARK VINA RESULT:      -8.5      1.070      1.292
REMARK  Name = 
REMARK  6 active torsions:
REMARK  status: ('A' for Active; 'I' for Inactive)
REMARK    1  A    between atoms: C_1  and  C_2
REMARK    2  A    between atoms: C_5  and  N_6
REMARK    3  A    between atoms: C_7  and  C_9
REMARK    4  A    between atoms: C_9  and  C_10
REMARK    5  A    between atoms: C_10  and  N_11
REMARK    6  A    between atoms: C_24  and  C_25
REMARK                            x       y       z     vdW  Elec       q    Type
REMARK                         _______ _______ _______ _____ _____    ______ ____
ROOT
ATOM      1  N   UNL     1       1.567   9.058  17.770  0.00  0.00    +0.000 N 
ATOM      2  C   UNL     1       2.262   8.122  18.525  0.00  0.00    +0.000 C 
ATOM      3  O   UNL     1       2.109   7.900  19.723  0.00  0.00    +0.000 OA
ATOM      4  H   UNL     1       1.820   9.146  16.793  0.00  0.00    +0.000 HD
ENDROOT
BRANCH   1   9
ATOM      5  C   UNL     1      -2.867  12.269  19.577  0.00  0.00    +0.000 C 
ATOM      6  C   UNL     1      -1.738  11.420  19.058  0.00  0.00    +0.000 A 
ATOM      7  C   UNL     1      -0.474  11.582  19.640  0.00  0.00    +0.000 A 
ATOM      8  C   UNL     1       0.620  10.822  19.222  0.00  0.00    +0.000 A 
ATOM      9  C   UNL     1       0.493   9.871  18.215  0.00  0.00    +0.000 A 
ATOM     10  C   UNL     1      -0.768   9.708  17.619  0.00  0.00    +0.000 A 
ATOM     11  C   UNL     1      -1.894  10.475  18.023  0.00  0.00    +0.000 A 
BRANCH  11  12
ATOM     12  C   UNL     1      -3.207  10.232  17.306  0.00  0.00    +0.000 C 
ATOM     13  F   UNL     1      -4.211   9.732  18.077  0.00  0.00    +0.000 F 
ATOM     14  F   UNL     1      -3.707  11.374  16.754  0.00  0.00    +0.000 F 
ATOM     15  F   UNL     1      -3.073   9.354  16.271  0.00  0.00    +0.000 F 
ENDBRANCH  11  12
ENDBRANCH   1   9
BRANCH   2  16
ATOM     16  C   UNL     1       3.332   7.383  17.743  0.00  0.00    +0.000 C 
BRANCH  16  17
ATOM     17  C   UNL     1       4.168   6.518  18.694  0.00  0.00    +0.000 C 
BRANCH  17  18
ATOM     18  N   UNL     1       3.963   5.082  18.480  0.00  0.00    +0.000 N 
ATOM     19  C   UNL     1       4.864   4.437  17.644  0.00  0.00    +0.000 A 
ATOM     20  O   UNL     1       5.832   4.994  17.121  0.00  0.00    +0.000 OA
ATOM     21  N   UNL     1       4.661   3.107  17.422  0.00  0.00    +0.000 N 
ATOM     22  C   UNL     1       3.738   2.307  18.033  0.00  0.00    +0.000 A 
ATOM     23  O   UNL     1       3.678   1.102  17.817  0.00  0.00    +0.000 OA
ATOM     24  C   UNL     1       2.832   2.976  18.979  0.00  0.00    +0.000 A 
ATOM     25  C   UNL     1       1.891   2.208  19.679  0.00  0.00    +0.000 A 
ATOM     26  C   UNL     1       1.023   2.827  20.572  0.00  0.00    +0.000 A 
ATOM     27  C   UNL     1       1.082   4.207  20.740  0.00  0.00    +0.000 A 
ATOM     28  C   UNL     1       2.030   4.970  20.042  0.00  0.00    +0.000 A 
ATOM     29  C   UNL     1       2.937   4.361  19.164  0.00  0.00    +0.000 A 
ATOM     30  H   UNL     1       5.317   2.652  16.806  0.00  0.00    +0.000 HD
ENDBRANCH  17  18
ENDBRANCH  16  17
ENDBRANCH   2  16
TORSDOF 5
ENDMDL
MODEL 5
REMARK VINA RESULT:      -8.4      6.975      8.383
REMARK  Name = 
REMARK  6 active torsions:
REMARK  status: ('A' for Active; 'I' for Inactive)
REMARK    1  A    between atoms: C_1  and  C_2
REMARK    2  A    between atoms: C_5  and  N_6
REMARK    3  A    between atoms: C_7  and  C_9
REMARK    4  A    between atoms: C_9  and  C_10
REMARK    5  A    between atoms: C_10  and  N_11
REMARK    6  A    between atoms: C_24  and  C_25
REMARK                            x       y       z     vdW  Elec       q    Type
REMARK                         _______ _______ _______ _____ _____    ______ ____
ROOT
ATOM      1  N   UNL     1       9.143   9.190  19.197  0.00  0.00    +0.000 N 
ATOM      2  C   UNL     1       8.208   8.846  18.228  0.00  0.00    +0.000 C 
ATOM      3  O   UNL     1       7.585   9.626  17.514  0.00  0.00    +0.000 OA
ATOM      4  H   UNL     1       9.560   8.434  19.727  0.00  0.00    +0.000 HD
ENDROOT
BRANCH   1   9
ATOM      5  C   UNL     1      11.080  14.464  20.485  0.00  0.00    +0.000 C 
ATOM      6  C   UNL     1      10.531  13.095  20.183  0.00  0.00    +0.000 A 
ATOM      7  C   UNL     1      10.976  12.451  19.022  0.00  0.00    +0.000 A 
ATOM      8  C   UNL     1      10.523  11.176  18.681  0.00  0.00    +0.000 A 
ATOM      9  C   UNL     1       9.617  10.495  19.486  0.00  0.00    +0.000 A 
ATOM     10  C   UNL     1       9.157  11.137  20.648  0.00  0.00    +0.000 A 
ATOM     11  C   UNL     1       9.599  12.437  21.011  0.00  0.00    +0.000 A 
BRANCH  11  12
ATOM     12  C   UNL     1       9.031  13.047  22.278  0.00  0.00    +0.000 C 
ATOM     13  F   UNL     1       9.550  14.255  22.630  0.00  0.00    +0.000 F 
ATOM     14  F   UNL     1       7.684  13.240  22.192  0.00  0.00    +0.000 F 
ATOM     15  F   UNL     1       9.216  12.242  23.363  0.00  0.00    +0.000 F 
ENDBRANCH  11  12
ENDBRANCH   1   9
BRANCH   2  16
ATOM     16  C   UNL     1       7.945   7.354  18.139  0.00  0.00    +0.000 C 
BRANCH  16  17
ATOM     17  C   UNL     1       7.190   7.035  16.844  0.00  0.00    +0.000 C 
BRANCH  17  18
ATOM     18  N   UNL     1       6.233   5.935  17.002  0.00  0.00    +0.000 N 
ATOM     19  C   UNL     1       6.729   4.647  16.862  0.00  0.00    +0.000 A 
ATOM     20  O   UNL     1       7.917   4.389  16.658  0.00  0.00    +0.000 OA
ATOM     21  N   UNL     1       5.836   3.623  16.983  0.00  0.00    +0.000 N 
ATOM     22  C   UNL     1       4.525   3.719  17.353  0.00  0.00    +0.000 A 
ATOM     23  O   UNL     1       3.818   2.729  17.502  0.00  0.00    +0.000 OA
ATOM     24  C   UNL     1       4.018   5.081  17.579  0.00  0.00    +0.000 A 
ATOM     25  C   UNL     1       2.695   5.253  18.009  0.00  0.00    +0.000 A 
ATOM     26  C   UNL     1       2.199   6.534  18.220  0.00  0.00    +0.000 A 
ATOM     27  C   UNL     1       3.017   7.634  17.977  0.00  0.00    +0.000 A 
ATOM     28  C   UNL     1       4.342   7.457  17.553  0.00  0.00    +0.000 A 
ATOM     29  C   UNL     1       4.872   6.172  17.368  0.00  0.00    +0.000 A 
ATOM     30  H   UNL     1       6.207   2.692  16.869  0.00  0.00    +0.000 HD
ENDBRANCH  17  18
ENDBRANCH  16  17
ENDBRANCH   2  16
TORSDOF 5
ENDMDL
MODEL 6
REMARK VINA RESULT:      -8.4      2.770      4.708
REMARK  Name = 
REMARK  6 active torsions:
REMARK  status: ('A' for Active; 'I' for Inactive)
REMARK    1  A    between atoms: C_1  and  C_2
REMARK    2  A    between atoms: C_5  and  N_6
REMARK    3  A    between atoms: C_7  and  C_9
REMARK    4  A    between atoms: C_9  and  C_10
REMARK    5  A    between atoms: C_10  and  N_11
REMARK    6  A    between atoms: C_24  and  C_25
REMARK                            x       y       z     vdW  Elec       q    Type
REMARK                         _______ _______ _______ _____ _____    ______ ____
ROOT
ATOM      1  N   UNL     1       3.082   6.186  20.010  0.00  0.00    +0.000 N 
ATOM      2  C   UNL     1       2.671   4.864  19.890  0.00  0.00    +0.000 C 
ATOM      3  O   UNL     1       1.581   4.480  19.478  0.00  0.00    +0.000 OA
ATOM      4  H   UNL     1       4.006   6.351  20.391  0.00  0.00    +0.000 HD
ENDROOT
BRANCH   1   9
ATOM      5  C   UNL     1       0.176  10.914  18.451  0.00  0.00    +0.000 C 
ATOM      6  C   UNL     1       0.905   9.677  18.906  0.00  0.00    +0.000 A 
ATOM      7  C   UNL     1       1.590   8.929  17.941  0.00  0.00    +0.000 A 
ATOM      8  C   UNL     1       2.300   7.777  18.286  0.00  0.00    +0.000 A 
ATOM      9  C   UNL     1       2.357   7.335  19.603  0.00  0.00    +0.000 A 
ATOM     10  C   UNL     1       1.665   8.074  20.576  0.00  0.00    +0.000 A 
ATOM     11  C   UNL     1       0.930   9.245  20.247  0.00  0.00    +0.000 A 
BRANCH  11  12
ATOM     12  C   UNL     1       0.207   9.963  21.370  0.00  0.00    +0.000 C 
ATOM     13  F   UNL     1      -1.121  10.178  21.166  0.00  0.00    +0.000 F 
ATOM     14  F   UNL     1       0.289   9.282  22.548  0.00  0.00    +0.000 F 
ATOM     15  F   UNL     1       0.740  11.193  21.621  0.00  0.00    +0.000 F 
ENDBRANCH  11  12
ENDBRANCH   1   9
BRANCH   2  16
ATOM     16  C   UNL     1       3.697   3.861  20.383  0.00  0.00    +0.000 C 
BRANCH  16  17
ATOM     17  C   UNL     1       4.254   3.061  19.199  0.00  0.00    +0.000 C 
BRANCH  17  18
ATOM     18  N   UNL     1       4.706   3.919  18.100  0.00  0.00    +0.000 N 
ATOM     19  C   UNL     1       3.953   3.896  16.934  0.00  0.00    +0.000 A 
ATOM     20  O   UNL     1       2.921   3.234  16.799  0.00  0.00    +0.000 OA
ATOM     21  N   UNL     1       4.385   4.673  15.901  0.00  0.00    +0.000 N 
ATOM     22  C   UNL     1       5.412   5.572  15.927  0.00  0.00    +0.000 A 
ATOM     23  O   UNL     1       5.683   6.279  14.963  0.00  0.00    +0.000 OA
ATOM     24  C   UNL     1       6.163   5.655  17.189  0.00  0.00    +0.000 A 
ATOM     25  C   UNL     1       7.199   6.593  17.305  0.00  0.00    +0.000 A 
ATOM     26  C   UNL     1       7.923   6.678  18.490  0.00  0.00    +0.000 A 
ATOM     27  C   UNL     1       7.625   5.814  19.539  0.00  0.00    +0.000 A 
ATOM     28  C   UNL     1       6.582   4.882  19.420  0.00  0.00    +0.000 A 
ATOM     29  C   UNL     1       5.819   4.803  18.247  0.00  0.00    +0.000 A 
ATOM     30  H   UNL     1       3.835   4.639  15.056  0.00  0.00    +0.000 HD
ENDBRANCH  17  18
ENDBRANCH  16  17
ENDBRANCH   2  16
TORSDOF 5
ENDMDL
MODEL 7
REMARK VINA RESULT:      -8.4      4.688      9.283
REMARK  Name = 
REMARK  6 active torsions:
REMARK  status: ('A' for Active; 'I' for Inactive)
REMARK    1  A    between atoms: C_1  and  C_2
REMARK    2  A    between atoms: C_5  and  N_6
REMARK    3  A    between atoms: C_7  and  C_9
REMARK    4  A    between atoms: C_9  and  C_10
REMARK    5  A    between atoms: C_10  and  N_11
REMARK    6  A    between atoms: C_24  and  C_25
REMARK                            x       y       z     vdW  Elec       q    Type
REMARK                         _______ _______ _______ _____ _____    ______ ____
ROOT
ATOM      1  N   UNL     1       0.175   9.396  20.827  0.00  0.00    +0.000 N 
ATOM      2  C   UNL     1       0.435   9.773  22.139  0.00  0.00    +0.000 C 
ATOM      3  O   UNL     1       1.486   9.597  22.748  0.00  0.00    +0.000 OA
ATOM      4  H   UNL     1      -0.752   9.586  20.466  0.00  0.00    +0.000 HD
ENDROOT
BRANCH   1   9
ATOM      5  C   UNL     1       3.864   6.935  17.146  0.00  0.00    +0.000 C 
ATOM      6  C   UNL     1       2.919   7.542  18.148  0.00  0.00    +0.000 A 
ATOM      7  C   UNL     1       2.389   8.808  17.865  0.00  0.00    +0.000 A 
ATOM      8  C   UNL     1       1.497   9.432  18.738  0.00  0.00    +0.000 A 
ATOM      9  C   UNL     1       1.096   8.816  19.918  0.00  0.00    +0.000 A 
ATOM     10  C   UNL     1       1.629   7.551  20.215  0.00  0.00    +0.000 A 
ATOM     11  C   UNL     1       2.544   6.900  19.345  0.00  0.00    +0.000 A 
BRANCH  11  12
ATOM     12  C   UNL     1       3.072   5.542  19.764  0.00  0.00    +0.000 C 
ATOM     13  F   UNL     1       4.422   5.458  19.911  0.00  0.00    +0.000 F 
ATOM     14  F   UNL     1       2.551   5.138  20.958  0.00  0.00    +0.000 F 
ATOM     15  F   UNL     1       2.742   4.564  18.872  0.00  0.00    +0.000 F 
ENDBRANCH  11  12
ENDBRANCH   1   9
BRANCH   2  16
ATOM     16  C   UNL     1      -0.755  10.406  22.838  0.00  0.00    +0.000 C 
BRANCH  16  17
ATOM     17  C   UNL     1      -0.813  11.903  22.514  0.00  0.00    +0.000 C 
BRANCH  17  18
ATOM     18  N   UNL     1      -2.039  12.281  21.803  0.00  0.00    +0.000 N 
ATOM     19  C   UNL     1      -1.974  12.324  20.418  0.00  0.00    +0.000 A 
ATOM     20  O   UNL     1      -0.968  12.025  19.770  0.00  0.00    +0.000 OA
ATOM     21  N   UNL     1      -3.104  12.701  19.756  0.00  0.00    +0.000 N 
ATOM     22  C   UNL     1      -4.337  12.921  20.301  0.00  0.00    +0.000 A 
ATOM     23  O   UNL     1      -5.314  13.189  19.611  0.00  0.00    +0.000 OA
ATOM     24  C   UNL     1      -4.425  12.798  21.764  0.00  0.00    +0.000 A 
ATOM     25  C   UNL     1      -5.671  12.962  22.387  0.00  0.00    +0.000 A 
ATOM     26  C   UNL     1      -5.769  12.856  23.770  0.00  0.00    +0.000 A 
ATOM     27  C   UNL     1      -4.623  12.612  24.522  0.00  0.00    +0.000 A 
ATOM     28  C   UNL     1      -3.381  12.443  23.892  0.00  0.00    +0.000 A 
ATOM     29  C   UNL     1      -3.266  12.512  22.497  0.00  0.00    +0.000 A 
ATOM     30  H   UNL     1      -3.041  12.738  18.750  0.00  0.00    +0.000 HD
ENDBRANCH  17  18
ENDBRANCH  16  17
ENDBRANCH   2  16
TORSDOF 5
ENDMDL
MODEL 8
REMARK VINA RESULT:      -8.4      1.874      2.191
REMARK  Name = 
REMARK  6 active torsions:
REMARK  status: ('A' for Active; 'I' for Inactive)
REMARK    1  A    between atoms: C_1  and  C_2
REMARK    2  A    between atoms: C_5  and  N_6
REMARK    3  A    between atoms: C_7  and  C_9
REMARK    4  A    between atoms: C_9  and  C_10
REMARK    5  A    between atoms: C_10  and  N_11
REMARK    6  A    between atoms: C_24  and  C_25
REMARK                            x       y       z     vdW  Elec       q    Type
REMARK                         _______ _______ _______ _____ _____    ______ ____
ROOT
ATOM      1  N   UNL     1       2.331   7.790  19.560  0.00  0.00    +0.000 N 
ATOM      2  C   UNL     1       2.664   7.954  18.220  0.00  0.00    +0.000 C 
ATOM      3  O   UNL     1       2.194   8.790  17.454  0.00  0.00    +0.000 OA
ATOM      4  H   UNL     1       2.786   7.038  20.062  0.00  0.00    +0.000 HD
ENDROOT
BRANCH   1   9
ATOM      5  C   UNL     1      -1.316  11.109  22.545  0.00  0.00    +0.000 C 
ATOM      6  C   UNL     1      -0.362  10.283  21.725  0.00  0.00    +0.000 A 
ATOM      7  C   UNL     1       0.335   9.254  22.371  0.00  0.00    +0.000 A 
ATOM      8  C   UNL     1       1.228   8.435  21.677  0.00  0.00    +0.000 A 
ATOM      9  C   UNL     1       1.453   8.608  20.316  0.00  0.00    +0.000 A 
ATOM     10  C   UNL     1       0.765   9.644  19.661  0.00  0.00    +0.000 A 
ATOM     11  C   UNL     1      -0.143  10.493  20.349  0.00  0.00    +0.000 A 
BRANCH  11  12
ATOM     12  C   UNL     1      -0.824  11.590  19.553  0.00  0.00    +0.000 C 
ATOM     13  F   UNL     1      -0.495  11.645  18.234  0.00  0.00    +0.000 F 
ATOM     14  F   UNL     1      -2.182  11.476  19.585  0.00  0.00    +0.000 F 
ATOM     15  F   UNL     1      -0.550  12.830  20.049  0.00  0.00    +0.000 F 
ENDBRANCH  11  12
ENDBRANCH   1   9
BRANCH   2  16
ATOM     16  C   UNL     1       3.666   6.933  17.714  0.00  0.00    +0.000 C 
BRANCH  16  17
ATOM     17  C   UNL     1       2.971   5.584  17.497  0.00  0.00    +0.000 C 
BRANCH  17  18
ATOM     18  N   UNL     1       3.513   4.524  18.354  0.00  0.00    +0.000 N 
ATOM     19  C   UNL     1       4.841   4.174  18.154  0.00  0.00    +0.000 A 
ATOM     20  O   UNL     1       5.580   4.729  17.339  0.00  0.00    +0.000 OA
ATOM     21  N   UNL     1       5.341   3.170  18.931  0.00  0.00    +0.000 N 
ATOM     22  C   UNL     1       4.712   2.554  19.975  0.00  0.00    +0.000 A 
ATOM     23  O   UNL     1       5.273   1.707  20.661  0.00  0.00    +0.000 OA
ATOM     24  C   UNL     1       3.330   2.981  20.238  0.00  0.00    +0.000 A 
ATOM     25  C   UNL     1       2.640   2.426  21.325  0.00  0.00    +0.000 A 
ATOM     26  C   UNL     1       1.330   2.814  21.582  0.00  0.00    +0.000 A 
ATOM     27  C   UNL     1       0.710   3.733  20.740  0.00  0.00    +0.000 A 
ATOM     28  C   UNL     1       1.407   4.290  19.657  0.00  0.00    +0.000 A 
ATOM     29  C   UNL     1       2.739   3.937  19.402  0.00  0.00    +0.000 A 
ATOM     30  H   UNL     1       6.303   2.918  18.769  0.00  0.00    +0.000 HD
ENDBRANCH  17  18
ENDBRANCH  16  17
ENDBRANCH   2  16
TORSDOF 5
ENDMDL
MODEL 9
REMARK VINA RESULT:      -8.3      4.728      9.026
REMARK  Name = 
REMARK  6 active torsions:
REMARK  status: ('A' for Active; 'I' for Inactive)
REMARK    1  A    between atoms: C_1  and  C_2
REMARK    2  A    between atoms: C_5  and  N_6
REMARK    3  A    between atoms: C_7  and  C_9
REMARK    4  A    between atoms: C_9  and  C_10
REMARK    5  A    between atoms: C_10  and  N_11
REMARK    6  A    between atoms: C_24  and  C_25
REMARK                            x       y       z     vdW  Elec       q    Type
REMARK                         _______ _______ _______ _____ _____    ______ ____
ROOT
ATOM      1  N   UNL     1       2.661   6.222  19.934  0.00  0.00    +0.000 N 
ATOM      2  C   UNL     1       2.039   7.462  19.848  0.00  0.00    +0.000 C 
ATOM      3  O   UNL     1       2.131   8.256  18.917  0.00  0.00    +0.000 OA
ATOM      4  H   UNL     1       2.510   5.685  20.779  0.00  0.00    +0.000 HD
ENDROOT
BRANCH   1   9
ATOM      5  C   UNL     1       5.943   3.681  15.934  0.00  0.00    +0.000 C 
ATOM      6  C   UNL     1       5.128   4.382  16.987  0.00  0.00    +0.000 A 
ATOM      7  C   UNL     1       3.744   4.165  16.997  0.00  0.00    +0.000 A 
ATOM      8  C   UNL     1       2.922   4.769  17.950  0.00  0.00    +0.000 A 
ATOM      9  C   UNL     1       3.449   5.603  18.929  0.00  0.00    +0.000 A 
ATOM     10  C   UNL     1       4.834   5.834  18.922  0.00  0.00    +0.000 A 
ATOM     11  C   UNL     1       5.689   5.236  17.957  0.00  0.00    +0.000 A 
BRANCH  11  12
ATOM     12  C   UNL     1       7.168   5.561  18.028  0.00  0.00    +0.000 C 
ATOM     13  F   UNL     1       7.565   6.243  19.137  0.00  0.00    +0.000 F 
ATOM     14  F   UNL     1       7.940   4.438  17.996  0.00  0.00    +0.000 F 
ATOM     15  F   UNL     1       7.579   6.317  16.970  0.00  0.00    +0.000 F 
ENDBRANCH  11  12
ENDBRANCH   1   9
BRANCH   2  16
ATOM     16  C   UNL     1       1.231   7.823  21.082  0.00  0.00    +0.000 C 
BRANCH  16  17
ATOM     17  C   UNL     1       1.562   9.255  21.519  0.00  0.00    +0.000 C 
BRANCH  17  18
ATOM     18  N   UNL     1       0.363  10.066  21.754  0.00  0.00    +0.000 N 
ATOM     19  C   UNL     1      -0.137  10.085  23.048  0.00  0.00    +0.000 A 
ATOM     20  O   UNL     1       0.392   9.501  23.996  0.00  0.00    +0.000 OA
ATOM     21  N   UNL     1      -1.267  10.817  23.265  0.00  0.00    +0.000 N 
ATOM     22  C   UNL     1      -1.894  11.639  22.371  0.00  0.00    +0.000 A 
ATOM     23  O   UNL     1      -2.869  12.313  22.682  0.00  0.00    +0.000 OA
ATOM     24  C   UNL     1      -1.317  11.679  21.019  0.00  0.00    +0.000 A 
ATOM     25  C   UNL     1      -1.878  12.538  20.064  0.00  0.00    +0.000 A 
ATOM     26  C   UNL     1      -1.348  12.583  18.780  0.00  0.00    +0.000 A 
ATOM     27  C   UNL     1      -0.280  11.754  18.450  0.00  0.00    +0.000 A 
ATOM     28  C   UNL     1       0.282  10.900  19.411  0.00  0.00    +0.000 A 
ATOM     29  C   UNL     1      -0.215  10.866  20.722  0.00  0.00    +0.000 A 
ATOM     30  H   UNL     1      -1.626  10.815  24.207  0.00  0.00    +0.000 HD
ENDBRANCH  17  18
ENDBRANCH  16  17
ENDBRANCH   2  16
TORSDOF 5
ENDMDL
