MODEL 1
REMARK VINA RESULT:      -8.7      0.000      0.000
REMARK  Name = 
REMARK  5 active torsions:
REMARK  status: ('A' for Active; 'I' for Inactive)
REMARK    1  A    between atoms: C_2  and  C_4
REMARK    2  A    between atoms: N_7  and  C_8
REMARK    3  A    between atoms: C_8  and  C_9
REMARK    4  A    between atoms: C_13  and  N_14
REMARK    5  A    between atoms: C_15  and  C_17
REMARK                            x       y       z     vdW  Elec       q    Type
REMARK                         _______ _______ _______ _____ _____    ______ ____
ROOT
ATOM      1  C   UNL     1       4.720   5.761  16.920  0.00  0.00    +0.000 A 
ATOM      2  C   UNL     1       5.429   4.787  16.194  0.00  0.00    +0.000 A 
ATOM      3  C   UNL     1       6.778   4.941  15.926  0.00  0.00    +0.000 A 
ATOM      4  C   UNL     1       7.432   6.103  16.325  0.00  0.00    +0.000 A 
ATOM      5  C   UNL     1       6.757   7.169  16.944  0.00  0.00    +0.000 A 
ATOM      6  C   UNL     1       5.404   6.953  17.308  0.00  0.00    +0.000 A 
ENDROOT
BRANCH   5   7
ATOM      7  N   UNL     1       7.441   8.428  17.169  0.00  0.00    +0.000 N 
ATOM      8  C   UNL     1       8.306   8.612  18.248  0.00  0.00    +0.000 C 
ATOM      9  O   UNL     1       8.610   7.702  19.026  0.00  0.00    +0.000 OA
ATOM     10  H   UNL     1       7.408   9.120  16.432  0.00  0.00    +0.000 HD
BRANCH   8  11
ATOM     11  C   UNL     1       8.975   9.940  18.538  0.00  0.00    +0.000 C 
ATOM     12  C   UNL     1       9.412  10.928  17.731  0.00  0.00    +0.000 C 
ATOM     13  C   UNL     1      10.141  12.052  18.403  0.00  0.00    +0.000 A 
ATOM     14  C   UNL     1      11.072  12.876  17.756  0.00  0.00    +0.000 A 
ATOM     15  C   UNL     1      11.736  13.886  18.472  0.00  0.00    +0.000 A 
ATOM     16  C   UNL     1      11.455  14.129  19.823  0.00  0.00    +0.000 A 
ATOM     17  C   UNL     1      10.524  13.321  20.469  0.00  0.00    +0.000 A 
ATOM     18  C   UNL     1       9.925  12.275  19.770  0.00  0.00    +0.000 A 
ATOM     19  O   UNL     1       9.117  11.431  20.493  0.00  0.00    +0.000 OA
ATOM     20  C   UNL     1       9.283  10.086  20.028  0.00  0.00    +0.000 C 
ENDBRANCH   8  11
ENDBRANCH   5   7
BRANCH   1  21
ATOM     21  C   UNL     1       3.292   5.382  17.317  0.00  0.00    +0.000 C 
BRANCH  21  25
ATOM     22  C   UNL     1       2.227   1.933  19.765  0.00  0.00    +0.000 C 
ATOM     23  C   UNL     1       3.661   2.117  19.255  0.00  0.00    +0.000 C 
ATOM     24  C   UNL     1       3.972   3.552  18.801  0.00  0.00    +0.000 C 
ATOM     25  N   UNL     1       3.012   4.003  17.780  0.00  0.00    +0.000 NA
ATOM     26  C   UNL     1       1.653   3.991  18.381  0.00  0.00    +0.000 C 
ATOM     27  C   UNL     1       1.230   2.583  18.802  0.00  0.00    +0.000 C 
BRANCH  22  29
ATOM     28  N   UNL     1       0.809   2.936  21.489  0.00  0.00    +0.000 N 
ATOM     29  C   UNL     1       2.039   2.418  21.200  0.00  0.00    +0.000 C 
ATOM     30  O   UNL     1       2.913   2.395  22.061  0.00  0.00    +0.000 OA
ATOM     31  H   UNL     1       0.703   3.367  22.399  0.00  0.00    +0.000 HD
ATOM     32  H   UNL     1       0.151   3.193  20.766  0.00  0.00    +0.000 HD
ENDBRANCH  22  29
ENDBRANCH  21  25
ENDBRANCH   1  21
TORSDOF 5
ENDMDL
MODEL 2
REMARK VINA RESULT:      -8.6      4.955      8.091
REMARK  Name = 
REMARK  5 active torsions:
REMARK  status: ('A' for Active; 'I' for Inactive)
REMARK    1  A    between atoms: C_2  and  C_4
REMARK    2  A    between atoms: N_7  and  C_8
REMARK    3  A    between atoms: C_8  and  C_9
REMARK    4  A    between atoms: C_13  and  N_14
REMARK    5  A    between atoms: C_15  and  C_17
REMARK                            x       y       z     vdW  Elec       q    Type
REMARK                         _______ _______ _______ _____ _____    ______ ____
ROOT
ATOM      1  C   UNL     1       3.203   3.345  18.916  0.00  0.00    +0.000 A 
ATOM      2  C   UNL     1       3.462   2.427  19.951  0.00  0.00    +0.000 A 
ATOM      3  C   UNL     1       2.902   2.595  21.206  0.00  0.00    +0.000 A 
ATOM      4  C   UNL     1       2.121   3.717  21.469  0.00  0.00    +0.000 A 
ATOM      5  C   UNL     1       1.925   4.733  20.518  0.00  0.00    +0.000 A 
ATOM      6  C   UNL     1       2.413   4.497  19.208  0.00  0.00    +0.000 A 
ENDROOT
BRANCH   5   7
ATOM      7  N   UNL     1       1.263   5.966  20.901  0.00  0.00    +0.000 N 
ATOM      8  C   UNL     1       1.731   7.212  20.482  0.00  0.00    +0.000 C 
ATOM      9  O   UNL     1       2.676   7.343  19.699  0.00  0.00    +0.000 OA
ATOM     10  H   UNL     1       0.355   5.895  21.341  0.00  0.00    +0.000 HD
BRANCH   8  11
ATOM     11  C   UNL     1       1.094   8.512  20.927  0.00  0.00    +0.000 C 
ATOM     12  C   UNL     1       0.623   8.927  22.121  0.00  0.00    +0.000 C 
ATOM     13  C   UNL     1      -0.056  10.264  22.132  0.00  0.00    +0.000 A 
ATOM     14  C   UNL     1      -1.011  10.646  23.083  0.00  0.00    +0.000 A 
ATOM     15  C   UNL     1      -1.623  11.908  22.998  0.00  0.00    +0.000 A 
ATOM     16  C   UNL     1      -1.266  12.827  22.004  0.00  0.00    +0.000 A 
ATOM     17  C   UNL     1      -0.310  12.459  21.062  0.00  0.00    +0.000 A 
ATOM     18  C   UNL     1       0.238  11.179  21.111  0.00  0.00    +0.000 A 
ATOM     19  O   UNL     1       1.076  10.825  20.081  0.00  0.00    +0.000 OA
ATOM     20  C   UNL     1       0.869   9.449  19.740  0.00  0.00    +0.000 C 
ENDBRANCH   8  11
ENDBRANCH   5   7
BRANCH   1  21
ATOM     21  C   UNL     1       3.719   2.944  17.532  0.00  0.00    +0.000 C 
BRANCH  21  25
ATOM     22  C   UNL     1       7.037   5.629  16.636  0.00  0.00    +0.000 C 
ATOM     23  C   UNL     1       6.172   5.052  15.510  0.00  0.00    +0.000 C 
ATOM     24  C   UNL     1       4.820   4.503  15.993  0.00  0.00    +0.000 C 
ATOM     25  N   UNL     1       5.007   3.497  17.052  0.00  0.00    +0.000 NA
ATOM     26  C   UNL     1       5.680   4.152  18.202  0.00  0.00    +0.000 C 
ATOM     27  C   UNL     1       7.069   4.671  17.830  0.00  0.00    +0.000 C 
BRANCH  22  29
ATOM     28  N   UNL     1       7.645   7.904  17.303  0.00  0.00    +0.000 N 
ATOM     29  C   UNL     1       6.620   7.041  17.044  0.00  0.00    +0.000 C 
ATOM     30  O   UNL     1       5.457   7.411  17.176  0.00  0.00    +0.000 OA
ATOM     31  H   UNL     1       7.390   8.806  17.685  0.00  0.00    +0.000 HD
ATOM     32  H   UNL     1       8.595   7.585  17.441  0.00  0.00    +0.000 HD
ENDBRANCH  22  29
ENDBRANCH  21  25
ENDBRANCH   1  21
TORSDOF 5
ENDMDL
MODEL 3
REMARK VINA RESULT:      -8.5      5.470      8.325
REMARK  Name = 
REMARK  5 active torsions:
REMARK  status: ('A' for Active; 'I' for Inactive)
REMARK    1  A    between atoms: C_2  and  C_4
REMARK    2  A    between atoms: N_7  and  C_8
REMARK    3  A    between atoms: C_8  and  C_9
REMARK    4  A    between atoms: C_13  and  N_14
REMARK    5  A    between atoms: C_15  and  C_17
REMARK                            x       y       z     vdW  Elec       q    Type
REMARK                         _______ _______ _______ _____ _____    ______ ____
ROOT
ATOM      1  C   UNL     1       3.645   3.979  19.724  0.00  0.00    +0.000 A 
ATOM      2  C   UNL     1       2.893   2.800  19.886  0.00  0.00    +0.000 A 
ATOM      3  C   UNL     1       1.567   2.851  20.278  0.00  0.00    +0.000 A 
ATOM      4  C   UNL     1       0.982   4.078  20.577  0.00  0.00    +0.000 A 
ATOM      5  C   UNL     1       1.709   5.280  20.556  0.00  0.00    +0.000 A 
ATOM      6  C   UNL     1       3.033   5.227  20.050  0.00  0.00    +0.000 A 
ENDROOT
BRANCH   5   7
ATOM      7  N   UNL     1       1.107   6.502  21.056  0.00  0.00    +0.000 N 
ATOM      8  C   UNL     1       1.353   7.739  20.461  0.00  0.00    +0.000 C 
ATOM      9  O   UNL     1       2.023   7.866  19.431  0.00  0.00    +0.000 OA
ATOM     10  H   UNL     1       0.370   6.416  21.744  0.00  0.00    +0.000 HD
BRANCH   8  11
ATOM     11  C   UNL     1       0.788   9.033  21.010  0.00  0.00    +0.000 C 
ATOM     12  C   UNL     1       0.187   9.334  22.179  0.00  0.00    +0.000 C 
ATOM     13  C   UNL     1      -0.350  10.728  22.304  0.00  0.00    +0.000 A 
ATOM     14  C   UNL     1      -1.395  11.088  23.165  0.00  0.00    +0.000 A 
ATOM     15  C   UNL     1      -1.860  12.413  23.193  0.00  0.00    +0.000 A 
ATOM     16  C   UNL     1      -1.269  13.411  22.408  0.00  0.00    +0.000 A 
ATOM     17  C   UNL     1      -0.223  13.063  21.558  0.00  0.00    +0.000 A 
ATOM     18  C   UNL     1       0.182  11.732  21.483  0.00  0.00    +0.000 A 
ATOM     19  O   UNL     1       1.125  11.425  20.532  0.00  0.00    +0.000 OA
ATOM     20  C   UNL     1       0.838  10.144  19.960  0.00  0.00    +0.000 C 
ENDBRANCH   8  11
ENDBRANCH   5   7
BRANCH   1  21
ATOM     21  C   UNL     1       5.031   3.801  19.102  0.00  0.00    +0.000 C 
BRANCH  21  25
ATOM     22  C   UNL     1       6.599   5.905  15.618  0.00  0.00    +0.000 C 
ATOM     23  C   UNL     1       7.470   5.694  16.862  0.00  0.00    +0.000 C 
ATOM     24  C   UNL     1       6.950   4.590  17.796  0.00  0.00    +0.000 C 
ATOM     25  N   UNL     1       5.556   4.847  18.194  0.00  0.00    +0.000 NA
ATOM     26  C   UNL     1       4.716   4.852  16.969  0.00  0.00    +0.000 C 
ATOM     27  C   UNL     1       5.120   5.969  16.006  0.00  0.00    +0.000 C 
BRANCH  22  29
ATOM     28  N   UNL     1       7.664   5.288  13.503  0.00  0.00    +0.000 N 
ATOM     29  C   UNL     1       6.862   4.871  14.526  0.00  0.00    +0.000 C 
ATOM     30  O   UNL     1       6.380   3.742  14.507  0.00  0.00    +0.000 OA
ATOM     31  H   UNL     1       7.755   4.659  12.715  0.00  0.00    +0.000 HD
ATOM     32  H   UNL     1       7.881   6.264  13.354  0.00  0.00    +0.000 HD
ENDBRANCH  22  29
ENDBRANCH  21  25
ENDBRANCH   1  21
TORSDOF 5
ENDMDL
MODEL 4
REMARK VINA RESULT:      -8.5      1.008      1.377
REMARK  Name = 
REMARK  5 active torsions:
REMARK  status: ('A' for Active; 'I' for Inactive)
REMARK    1  A    between atoms: C_2  and  C_4
REMARK    2  A    between atoms: N_7  and  C_8
REMARK    3  A    between atoms: C_8  and  C_9
REMARK    4  A    between atoms: C_13  and  N_14
REMARK    5  A    between atoms: C_15  and  C_17
REMARK                            x       y       z     vdW  Elec       q    Type
REMARK                         _______ _______ _______ _____ _____    ______ ____
ROOT
ATOM      1  C   UNL     1       4.551   5.522  16.898  0.00  0.00    +0.000 A 
ATOM      2  C   UNL     1       5.299   4.580  16.167  0.00  0.00    +0.000 A 
ATOM      3  C   UNL     1       6.647   4.778  15.922  0.00  0.00    +0.000 A 
ATOM      4  C   UNL     1       7.261   5.952  16.348  0.00  0.00    +0.000 A 
ATOM      5  C   UNL     1       6.545   6.987  16.973  0.00  0.00    +0.000 A 
ATOM      6  C   UNL     1       5.194   6.726  17.314  0.00  0.00    +0.000 A 
ENDROOT
BRANCH   5   7
ATOM      7  N   UNL     1       7.189   8.263  17.228  0.00  0.00    +0.000 N 
ATOM      8  C   UNL     1       8.129   8.420  18.246  0.00  0.00    +0.000 C 
ATOM      9  O   UNL     1       8.535   7.479  18.935  0.00  0.00    +0.000 OA
ATOM     10  H   UNL     1       7.065   8.997  16.544  0.00  0.00    +0.000 HD
BRANCH   8  11
ATOM     11  C   UNL     1       8.759   9.759  18.571  0.00  0.00    +0.000 C 
ATOM     12  C   UNL     1       9.691  10.126  19.474  0.00  0.00    +0.000 C 
ATOM     13  C   UNL     1       9.971  11.595  19.573  0.00  0.00    +0.000 A 
ATOM     14  C   UNL     1      10.488  12.216  20.717  0.00  0.00    +0.000 A 
ATOM     15  C   UNL     1      10.687  13.607  20.734  0.00  0.00    +0.000 A 
ATOM     16  C   UNL     1      10.426  14.396  19.607  0.00  0.00    +0.000 A 
ATOM     17  C   UNL     1       9.922  13.784  18.463  0.00  0.00    +0.000 A 
ATOM     18  C   UNL     1       9.658  12.416  18.480  0.00  0.00    +0.000 A 
ATOM     19  O   UNL     1       9.040  11.892  17.371  0.00  0.00    +0.000 OA
ATOM     20  C   UNL     1       8.103  10.884  17.770  0.00  0.00    +0.000 C 
ENDBRANCH   8  11
ENDBRANCH   5   7
BRANCH   1  21
ATOM     21  C   UNL     1       3.129   5.095  17.267  0.00  0.00    +0.000 C 
BRANCH  21  25
ATOM     22  C   UNL     1       2.121   2.092  20.265  0.00  0.00    +0.000 C 
ATOM     23  C   UNL     1       3.578   2.317  19.843  0.00  0.00    +0.000 C 
ATOM     24  C   UNL     1       3.811   3.662  19.136  0.00  0.00    +0.000 C 
ATOM     25  N   UNL     1       2.920   3.809  17.973  0.00  0.00    +0.000 NA
ATOM     26  C   UNL     1       1.516   3.777  18.456  0.00  0.00    +0.000 C 
ATOM     27  C   UNL     1       1.171   2.441  19.117  0.00  0.00    +0.000 C 
BRANCH  22  29
ATOM     28  N   UNL     1       2.235   4.096  21.665  0.00  0.00    +0.000 N 
ATOM     29  C   UNL     1       1.756   2.822  21.555  0.00  0.00    +0.000 C 
ATOM     30  O   UNL     1       1.108   2.329  22.473  0.00  0.00    +0.000 OA
ATOM     31  H   UNL     1       2.102   4.553  22.558  0.00  0.00    +0.000 HD
ATOM     32  H   UNL     1       2.961   4.451  21.057  0.00  0.00    +0.000 HD
ENDBRANCH  22  29
ENDBRANCH  21  25
ENDBRANCH   1  21
TORSDOF 5
ENDMDL
MODEL 5
REMARK VINA RESULT:      -8.4      1.322      1.952
REMARK  Name = 
REMARK  5 active torsions:
REMARK  status: ('A' for Active; 'I' for Inactive)
REMARK    1  A    between atoms: C_2  and  C_4
REMARK    2  A    between atoms: N_7  and  C_8
REMARK    3  A    between atoms: C_8  and  C_9
REMARK    4  A    between atoms: C_13  and  N_14
REMARK    5  A    between atoms: C_15  and  C_17
REMARK                            x       y       z     vdW  Elec       q    Type
REMARK                         _______ _______ _______ _____ _____    ______ ____
ROOT
ATOM      1  C   UNL     1       4.716   4.811  16.576  0.00  0.00    +0.000 A 
ATOM      2  C   UNL     1       5.534   3.984  15.784  0.00  0.00    +0.000 A 
ATOM      3  C   UNL     1       6.856   4.314  15.543  0.00  0.00    +0.000 A 
ATOM      4  C   UNL     1       7.371   5.508  16.039  0.00  0.00    +0.000 A 
ATOM      5  C   UNL     1       6.576   6.437  16.732  0.00  0.00    +0.000 A 
ATOM      6  C   UNL     1       5.257   6.039  17.063  0.00  0.00    +0.000 A 
ENDROOT
BRANCH   5   7
ATOM      7  N   UNL     1       7.110   7.745  17.062  0.00  0.00    +0.000 N 
ATOM      8  C   UNL     1       7.985   7.933  18.132  0.00  0.00    +0.000 C 
ATOM      9  O   UNL     1       8.425   6.999  18.809  0.00  0.00    +0.000 OA
ATOM     10  H   UNL     1       6.966   8.493  16.396  0.00  0.00    +0.000 HD
BRANCH   8  11
ATOM     11  C   UNL     1       8.497   9.301  18.534  0.00  0.00    +0.000 C 
ATOM     12  C   UNL     1       9.336   9.703  19.510  0.00  0.00    +0.000 C 
ATOM     13  C   UNL     1       9.506  11.184  19.664  0.00  0.00    +0.000 A 
ATOM     14  C   UNL     1       9.897  11.805  20.857  0.00  0.00    +0.000 A 
ATOM     15  C   UNL     1       9.999  13.205  20.922  0.00  0.00    +0.000 A 
ATOM     16  C   UNL     1       9.764  14.007  19.798  0.00  0.00    +0.000 A 
ATOM     17  C   UNL     1       9.385  13.396  18.606  0.00  0.00    +0.000 A 
ATOM     18  C   UNL     1       9.215  12.014  18.571  0.00  0.00    +0.000 A 
ATOM     19  O   UNL     1       8.714  11.481  17.409  0.00  0.00    +0.000 OA
ATOM     20  C   UNL     1       7.822  10.402  17.715  0.00  0.00    +0.000 C 
ENDBRANCH   8  11
ENDBRANCH   5   7
BRANCH   1  21
ATOM     21  C   UNL     1       3.340   4.240  16.927  0.00  0.00    +0.000 C 
BRANCH  21  25
ATOM     22  C   UNL     1       1.930   4.250  21.055  0.00  0.00    +0.000 C 
ATOM     23  C   UNL     1       0.937   4.164  19.889  0.00  0.00    +0.000 C 
ATOM     24  C   UNL     1       1.584   3.735  18.562  0.00  0.00    +0.000 C 
ATOM     25  N   UNL     1       2.702   4.625  18.207  0.00  0.00    +0.000 NA
ATOM     26  C   UNL     1       3.729   4.530  19.276  0.00  0.00    +0.000 C 
ATOM     27  C   UNL     1       3.192   5.004  20.627  0.00  0.00    +0.000 C 
BRANCH  22  29
ATOM     28  N   UNL     1       1.241   2.305  22.369  0.00  0.00    +0.000 N 
ATOM     29  C   UNL     1       2.254   2.888  21.663  0.00  0.00    +0.000 C 
ATOM     30  O   UNL     1       3.344   2.331  21.580  0.00  0.00    +0.000 OA
ATOM     31  H   UNL     1       1.472   1.459  22.875  0.00  0.00    +0.000 HD
ATOM     32  H   UNL     1       0.424   2.822  22.664  0.00  0.00    +0.000 HD
ENDBRANCH  22  29
ENDBRANCH  21  25
ENDBRANCH   1  21
TORSDOF 5
ENDMDL
MODEL 6
REMARK VINA RESULT:      -8.3      8.019      9.222
REMARK  Name = 
REMARK  5 active torsions:
REMARK  status: ('A' for Active; 'I' for Inactive)
REMARK    1  A    between atoms: C_2  and  C_4
REMARK    2  A    between atoms: N_7  and  C_8
REMARK    3  A    between atoms: C_8  and  C_9
REMARK    4  A    between atoms: C_13  and  N_14
REMARK    5  A    between atoms: C_15  and  C_17
REMARK                            x       y       z     vdW  Elec       q    Type
REMARK                         _______ _______ _______ _____ _____    ______ ____
ROOT
ATOM      1  C   UNL     1       1.831   7.957  19.484  0.00  0.00    +0.000 A 
ATOM      2  C   UNL     1       2.183   8.422  18.203  0.00  0.00    +0.000 A 
ATOM      3  C   UNL     1       1.843   9.700  17.794  0.00  0.00    +0.000 A 
ATOM      4  C   UNL     1       1.090  10.517  18.633  0.00  0.00    +0.000 A 
ATOM      5  C   UNL     1       0.602  10.070  19.872  0.00  0.00    +0.000 A 
ATOM      6  C   UNL     1       1.047   8.803  20.325  0.00  0.00    +0.000 A 
ENDROOT
BRANCH   5   7
ATOM      7  N   UNL     1      -0.332  10.890  20.622  0.00  0.00    +0.000 N 
ATOM      8  C   UNL     1       0.094  11.980  21.382  0.00  0.00    +0.000 C 
ATOM      9  O   UNL     1       1.266  12.367  21.401  0.00  0.00    +0.000 OA
ATOM     10  H   UNL     1      -1.319  10.757  20.448  0.00  0.00    +0.000 HD
BRANCH   8  11
ATOM     11  C   UNL     1      -0.857  12.804  22.226  0.00  0.00    +0.000 C 
ATOM     12  C   UNL     1      -2.119  12.582  22.647  0.00  0.00    +0.000 C 
ATOM     13  C   UNL     1      -2.778  13.712  23.378  0.00  0.00    +0.000 A 
ATOM     14  C   UNL     1      -4.165  13.890  23.453  0.00  0.00    +0.000 A 
ATOM     15  C   UNL     1      -4.698  14.998  24.132  0.00  0.00    +0.000 A 
ATOM     16  C   UNL     1      -3.871  15.919  24.787  0.00  0.00    +0.000 A 
ATOM     17  C   UNL     1      -2.491  15.744  24.725  0.00  0.00    +0.000 A 
ATOM     18  C   UNL     1      -1.970  14.683  23.988  0.00  0.00    +0.000 A 
ATOM     19  O   UNL     1      -0.604  14.635  23.853  0.00  0.00    +0.000 OA
ATOM     20  C   UNL     1      -0.263  14.178  22.539  0.00  0.00    +0.000 C 
ENDBRANCH   8  11
ENDBRANCH   5   7
BRANCH   1  21
ATOM     21  C   UNL     1       2.433   6.609  19.886  0.00  0.00    +0.000 C 
BRANCH  21  25
ATOM     22  C   UNL     1       3.623   2.965  17.805  0.00  0.00    +0.000 C 
ATOM     23  C   UNL     1       4.457   4.245  17.680  0.00  0.00    +0.000 C 
ATOM     24  C   UNL     1       4.170   5.276  18.784  0.00  0.00    +0.000 C 
ATOM     25  N   UNL     1       2.738   5.610  18.835  0.00  0.00    +0.000 NA
ATOM     26  C   UNL     1       1.981   4.372  19.149  0.00  0.00    +0.000 C 
ATOM     27  C   UNL     1       2.153   3.308  18.063  0.00  0.00    +0.000 C 
BRANCH  22  29
ATOM     28  N   UNL     1       4.047   0.669  18.535  0.00  0.00    +0.000 N 
ATOM     29  C   UNL     1       4.177   1.993  18.843  0.00  0.00    +0.000 C 
ATOM     30  O   UNL     1       4.681   2.329  19.910  0.00  0.00    +0.000 OA
ATOM     31  H   UNL     1       4.302   0.010  19.260  0.00  0.00    +0.000 HD
ATOM     32  H   UNL     1       3.435   0.345  17.799  0.00  0.00    +0.000 HD
ENDBRANCH  22  29
ENDBRANCH  21  25
ENDBRANCH   1  21
TORSDOF 5
ENDMDL
MODEL 7
REMARK VINA RESULT:      -8.3      7.141      9.290
REMARK  Name = 
REMARK  5 active torsions:
REMARK  status: ('A' for Active; 'I' for Inactive)
REMARK    1  A    between atoms: C_2  and  C_4
REMARK    2  A    between atoms: N_7  and  C_8
REMARK    3  A    between atoms: C_8  and  C_9
REMARK    4  A    between atoms: C_13  and  N_14
REMARK    5  A    between atoms: C_15  and  C_17
REMARK                            x       y       z     vdW  Elec       q    Type
REMARK                         _______ _______ _______ _____ _____    ______ ____
ROOT
ATOM      1  C   UNL     1       2.846   7.269  18.729  0.00  0.00    +0.000 A 
ATOM      2  C   UNL     1       2.851   6.138  19.566  0.00  0.00    +0.000 A 
ATOM      3  C   UNL     1       1.958   6.027  20.617  0.00  0.00    +0.000 A 
ATOM      4  C   UNL     1       1.083   7.074  20.892  0.00  0.00    +0.000 A 
ATOM      5  C   UNL     1       1.110   8.281  20.174  0.00  0.00    +0.000 A 
ATOM      6  C   UNL     1       1.952   8.339  19.035  0.00  0.00    +0.000 A 
ENDROOT
BRANCH   5   7
ATOM      7  N   UNL     1       0.310   9.408  20.618  0.00  0.00    +0.000 N 
ATOM      8  C   UNL     1       0.483   9.980  21.878  0.00  0.00    +0.000 C 
ATOM      9  O   UNL     1       1.374   9.628  22.657  0.00  0.00    +0.000 OA
ATOM     10  H   UNL     1      -0.264   9.878  19.930  0.00  0.00    +0.000 HD
BRANCH   8  11
ATOM     11  C   UNL     1      -0.388  11.111  22.385  0.00  0.00    +0.000 C 
ATOM     12  C   UNL     1      -1.477  11.128  23.180  0.00  0.00    +0.000 C 
ATOM     13  C   UNL     1      -2.142  12.460  23.358  0.00  0.00    +0.000 A 
ATOM     14  C   UNL     1      -3.491  12.620  23.698  0.00  0.00    +0.000 A 
ATOM     15  C   UNL     1      -4.042  13.907  23.811  0.00  0.00    +0.000 A 
ATOM     16  C   UNL     1      -3.257  15.054  23.638  0.00  0.00    +0.000 A 
ATOM     17  C   UNL     1      -1.913  14.904  23.310  0.00  0.00    +0.000 A 
ATOM     18  C   UNL     1      -1.394  13.624  23.129  0.00  0.00    +0.000 A 
ATOM     19  O   UNL     1      -0.099  13.539  22.678  0.00  0.00    +0.000 OA
ATOM     20  C   UNL     1       0.025  12.445  21.762  0.00  0.00    +0.000 C 
ENDBRANCH   8  11
ENDBRANCH   5   7
BRANCH   1  21
ATOM     21  C   UNL     1       3.743   7.182  17.492  0.00  0.00    +0.000 C 
BRANCH  21  25
ATOM     22  C   UNL     1       6.866   4.468  16.112  0.00  0.00    +0.000 C 
ATOM     23  C   UNL     1       5.521   3.924  16.609  0.00  0.00    +0.000 C 
ATOM     24  C   UNL     1       4.405   4.981  16.638  0.00  0.00    +0.000 C 
ATOM     25  N   UNL     1       4.804   6.149  17.440  0.00  0.00    +0.000 NA
ATOM     26  C   UNL     1       6.003   6.759  16.809  0.00  0.00    +0.000 C 
ATOM     27  C   UNL     1       7.192   5.797  16.798  0.00  0.00    +0.000 C 
BRANCH  22  29
ATOM     28  N   UNL     1       7.816   5.503  14.108  0.00  0.00    +0.000 N 
ATOM     29  C   UNL     1       6.940   4.574  14.590  0.00  0.00    +0.000 C 
ATOM     30  O   UNL     1       6.254   3.916  13.814  0.00  0.00    +0.000 OA
ATOM     31  H   UNL     1       7.795   5.669  13.109  0.00  0.00    +0.000 HD
ATOM     32  H   UNL     1       8.216   6.222  14.696  0.00  0.00    +0.000 HD
ENDBRANCH  22  29
ENDBRANCH  21  25
ENDBRANCH   1  21
TORSDOF 5
ENDMDL
MODEL 8
REMARK VINA RESULT:      -8.2      5.240      8.090
REMARK  Name = 
REMARK  5 active torsions:
REMARK  status: ('A' for Active; 'I' for Inactive)
REMARK    1  A    between atoms: C_2  and  C_4
REMARK    2  A    between atoms: N_7  and  C_8
REMARK    3  A    between atoms: C_8  and  C_9
REMARK    4  A    between atoms: C_13  and  N_14
REMARK    5  A    between atoms: C_15  and  C_17
REMARK                            x       y       z     vdW  Elec       q    Type
REMARK                         _______ _______ _______ _____ _____    ______ ____
ROOT
ATOM      1  C   UNL     1       3.023   4.000  18.685  0.00  0.00    +0.000 A 
ATOM      2  C   UNL     1       3.336   2.996  19.620  0.00  0.00    +0.000 A 
ATOM      3  C   UNL     1       2.855   3.057  20.916  0.00  0.00    +0.000 A 
ATOM      4  C   UNL     1       2.103   4.155  21.323  0.00  0.00    +0.000 A 
ATOM      5  C   UNL     1       1.859   5.250  20.477  0.00  0.00    +0.000 A 
ATOM      6  C   UNL     1       2.264   5.126  19.124  0.00  0.00    +0.000 A 
ENDROOT
BRANCH   5   7
ATOM      7  N   UNL     1       1.233   6.449  21.004  0.00  0.00    +0.000 N 
ATOM      8  C   UNL     1       1.470   7.706  20.448  0.00  0.00    +0.000 C 
ATOM      9  O   UNL     1       2.150   7.872  19.431  0.00  0.00    +0.000 OA
ATOM     10  H   UNL     1       0.489   6.333  21.680  0.00  0.00    +0.000 HD
BRANCH   8  11
ATOM     11  C   UNL     1       0.880   8.976  21.027  0.00  0.00    +0.000 C 
ATOM     12  C   UNL     1       0.241   9.230  22.187  0.00  0.00    +0.000 C 
ATOM     13  C   UNL     1      -0.308  10.615  22.347  0.00  0.00    +0.000 A 
ATOM     14  C   UNL     1      -1.381  10.938  23.187  0.00  0.00    +0.000 A 
ATOM     15  C   UNL     1      -1.855  12.259  23.250  0.00  0.00    +0.000 A 
ATOM     16  C   UNL     1      -1.245  13.288  22.523  0.00  0.00    +0.000 A 
ATOM     17  C   UNL     1      -0.171  12.978  21.693  0.00  0.00    +0.000 A 
ATOM     18  C   UNL     1       0.244  11.653  21.581  0.00  0.00    +0.000 A 
ATOM     19  O   UNL     1       1.219  11.386  20.651  0.00  0.00    +0.000 OA
ATOM     20  C   UNL     1       0.957  10.125  20.022  0.00  0.00    +0.000 C 
ENDBRANCH   8  11
ENDBRANCH   5   7
BRANCH   1  21
ATOM     21  C   UNL     1       3.449   3.718  17.243  0.00  0.00    +0.000 C 
BRANCH  21  25
ATOM     22  C   UNL     1       7.121   6.014  16.722  0.00  0.00    +0.000 C 
ATOM     23  C   UNL     1       5.752   6.665  16.491  0.00  0.00    +0.000 C 
ATOM     24  C   UNL     1       4.587   5.886  17.123  0.00  0.00    +0.000 C 
ATOM     25  N   UNL     1       4.568   4.491  16.655  0.00  0.00    +0.000 NA
ATOM     26  C   UNL     1       5.838   3.843  17.070  0.00  0.00    +0.000 C 
ATOM     27  C   UNL     1       7.055   4.513  16.430  0.00  0.00    +0.000 C 
BRANCH  22  29
ATOM     28  N   UNL     1       7.718   5.244  18.967  0.00  0.00    +0.000 N 
ATOM     29  C   UNL     1       7.692   6.305  18.108  0.00  0.00    +0.000 C 
ATOM     30  O   UNL     1       8.081   7.407  18.482  0.00  0.00    +0.000 OA
ATOM     31  H   UNL     1       7.983   5.444  19.924  0.00  0.00    +0.000 HD
ATOM     32  H   UNL     1       7.196   4.396  18.791  0.00  0.00    +0.000 HD
ENDBRANCH  22  29
ENDBRANCH  21  25
ENDBRANCH   1  21
TORSDOF 5
ENDMDL
MODEL 9
REMARK VINA RESULT:      -8.2      5.273      7.192
REMARK  Name = 
REMARK  5 active torsions:
REMARK  status: ('A' for Active; 'I' for Inactive)
REMARK    1  A    between atoms: C_2  and  C_4
REMARK    2  A    between atoms: N_7  and  C_8
REMARK    3  A    between atoms: C_8  and  C_9
REMARK    4  A    between atoms: C_13  and  N_14
REMARK    5  A    between atoms: C_15  and  C_17
REMARK                            x       y       z     vdW  Elec       q    Type
REMARK                         _______ _______ _______ _____ _____    ______ ____
ROOT
ATOM      1  C   UNL     1       2.850   5.092  18.523  0.00  0.00    +0.000 A 
ATOM      2  C   UNL     1       2.404   4.421  19.676  0.00  0.00    +0.000 A 
ATOM      3  C   UNL     1       1.740   5.102  20.682  0.00  0.00    +0.000 A 
ATOM      4  C   UNL     1       1.564   6.479  20.584  0.00  0.00    +0.000 A 
ATOM      5  C   UNL     1       2.094   7.228  19.519  0.00  0.00    +0.000 A 
ATOM      6  C   UNL     1       2.675   6.506  18.446  0.00  0.00    +0.000 A 
ENDROOT
BRANCH   5   7
ATOM      7  N   UNL     1       2.047   8.678  19.558  0.00  0.00    +0.000 N 
ATOM      8  C   UNL     1       1.431   9.420  18.550  0.00  0.00    +0.000 C 
ATOM      9  O   UNL     1       0.819   8.899  17.612  0.00  0.00    +0.000 OA
ATOM     10  H   UNL     1       2.324   9.134  20.417  0.00  0.00    +0.000 HD
BRANCH   8  11
ATOM     11  C   UNL     1       1.433  10.935  18.538  0.00  0.00    +0.000 C 
ATOM     12  C   UNL     1       2.331  11.836  18.091  0.00  0.00    +0.000 C 
ATOM     13  C   UNL     1       2.017  13.274  18.373  0.00  0.00    +0.000 A 
ATOM     14  C   UNL     1       2.986  14.283  18.454  0.00  0.00    +0.000 A 
ATOM     15  C   UNL     1       2.606  15.601  18.757  0.00  0.00    +0.000 A 
ATOM     16  C   UNL     1       1.262  15.951  18.936  0.00  0.00    +0.000 A 
ATOM     17  C   UNL     1       0.293  14.956  18.847  0.00  0.00    +0.000 A 
ATOM     18  C   UNL     1       0.686  13.639  18.619  0.00  0.00    +0.000 A 
ATOM     19  O   UNL     1      -0.298  12.681  18.672  0.00  0.00    +0.000 OA
ATOM     20  C   UNL     1       0.217  11.491  19.280  0.00  0.00    +0.000 C 
ENDBRANCH   8  11
ENDBRANCH   5   7
BRANCH   1  21
ATOM     21  C   UNL     1       3.390   4.197  17.405  0.00  0.00    +0.000 C 
BRANCH  21  25
ATOM     22  C   UNL     1       7.480   5.631  16.914  0.00  0.00    +0.000 C 
ATOM     23  C   UNL     1       6.504   5.630  15.731  0.00  0.00    +0.000 C 
ATOM     24  C   UNL     1       5.029   5.521  16.151  0.00  0.00    +0.000 C 
ATOM     25  N   UNL     1       4.806   4.332  16.991  0.00  0.00    +0.000 NA
ATOM     26  C   UNL     1       5.630   4.469  18.219  0.00  0.00    +0.000 C 
ATOM     27  C   UNL     1       7.125   4.516  17.900  0.00  0.00    +0.000 C 
BRANCH  22  29
ATOM     28  N   UNL     1       8.195   6.991  18.819  0.00  0.00    +0.000 N 
ATOM     29  C   UNL     1       7.584   6.992  17.598  0.00  0.00    +0.000 C 
ATOM     30  O   UNL     1       7.135   8.037  17.137  0.00  0.00    +0.000 OA
ATOM     31  H   UNL     1       8.170   7.860  19.337  0.00  0.00    +0.000 HD
ATOM     32  H   UNL     1       8.359   6.138  19.336  0.00  0.00    +0.000 HD
ENDBRANCH  22  29
ENDBRANCH  21  25
ENDBRANCH   1  21
TORSDOF 5
ENDMDL
