MODEL 1
REMARK VINA RESULT:      -8.3      0.000      0.000
REMARK  Name = 
REMARK  7 active torsions:
REMARK  status: ('A' for Active; 'I' for Inactive)
REMARK    1  A    between atoms: C_2  and  C_3
REMARK    2  A    between atoms: C_3  and  S_4
REMARK    3  A    between atoms: S_4  and  C_5
REMARK    4  A    between atoms: N_9  and  C_10
REMARK    5  A    between atoms: N_16  and  C_17
REMARK    6  A    between atoms: N_16  and  C_24
REMARK    7  A    between atoms: C_17  and  C_18
REMARK                            x       y       z     vdW  Elec       q    Type
REMARK                         _______ _______ _______ _____ _____    ______ ____
ROOT
ATOM      1  O   UNL     1       2.920   8.342  17.829  0.00  0.00    +0.000 OA
ATOM      2  C   UNL     1       2.585   7.528  18.697  0.00  0.00    +0.000 C 
ATOM      3  N   UNL     1       3.074   6.218  18.699  0.00  0.00    +0.000 N 
ENDROOT
BRANCH   3   4
ATOM      4  C   UNL     1       2.395   5.150  19.345  0.00  0.00    +0.000 A 
ATOM      5  C   UNL     1       1.543   4.303  18.623  0.00  0.00    +0.000 A 
ATOM      6  C   UNL     1       0.923   3.227  19.259  0.00  0.00    +0.000 A 
ATOM      7  C   UNL     1       1.142   2.998  20.617  0.00  0.00    +0.000 A 
ATOM      8  C   UNL     1       1.994   3.837  21.337  0.00  0.00    +0.000 A 
ATOM      9  C   UNL     1       2.635   4.900  20.699  0.00  0.00    +0.000 A 
ENDBRANCH   3   4
BRANCH   2  10
ATOM     10  C   UNL     1       1.625   7.930  19.828  0.00  0.00    +0.000 C 
BRANCH  10  11
ATOM     11  S   UNL     1       0.796   9.488  19.393  0.00  0.00    +0.000 S 
BRANCH  11  12
ATOM     12  C   UNL     1       0.103   9.981  20.903  0.00  0.00    +0.000 A 
ATOM     13  N   UNL     1      -0.272   9.174  21.871  0.00  0.00    +0.000 NA
ATOM     14  N   UNL     1      -0.501   9.974  22.958  0.00  0.00    +0.000 NA
ATOM     15  N   UNL     1      -0.246  11.246  22.683  0.00  0.00    +0.000 NA
ATOM     16  N   UNL     1       0.049  11.292  21.356  0.00  0.00    +0.000 N 
BRANCH  16  17
ATOM     17  C   UNL     1       0.242  12.531  20.693  0.00  0.00    +0.000 A 
ATOM     18  C   UNL     1       1.355  13.321  21.017  0.00  0.00    +0.000 A 
ATOM     19  C   UNL     1       1.584  14.520  20.337  0.00  0.00    +0.000 A 
ATOM     20  C   UNL     1       0.686  14.956  19.364  0.00  0.00    +0.000 A 
ATOM     21  C   UNL     1      -0.447  14.200  19.073  0.00  0.00    +0.000 A 
ATOM     22  C   UNL     1      -0.671  12.991  19.734  0.00  0.00    +0.000 A 
ENDBRANCH  16  17
ENDBRANCH  11  12
ENDBRANCH  10  11
ENDBRANCH   2  10
BRANCH   3  23
ATOM     23  C   UNL     1       3.979   5.812  17.613  0.00  0.00    +0.000 C 
BRANCH  23  24
ATOM     24  C   UNL     1       5.456   6.015  17.878  0.00  0.00    +0.000 A 
ATOM     25  C   UNL     1       6.171   6.990  17.161  0.00  0.00    +0.000 A 
ATOM     26  C   UNL     1       7.485   7.311  17.510  0.00  0.00    +0.000 A 
ATOM     27  C   UNL     1       8.104   6.655  18.572  0.00  0.00    +0.000 A 
ATOM     28  C   UNL     1       7.418   5.663  19.266  0.00  0.00    +0.000 A 
ATOM     29  C   UNL     1       6.104   5.338  18.922  0.00  0.00    +0.000 A 
ENDBRANCH  23  24
ENDBRANCH   3  23
TORSDOF 7
ENDMDL
MODEL 2
REMARK VINA RESULT:      -8.3      1.883      2.694
REMARK  Name = 
REMARK  7 active torsions:
REMARK  status: ('A' for Active; 'I' for Inactive)
REMARK    1  A    between atoms: C_2  and  C_3
REMARK    2  A    between atoms: C_3  and  S_4
REMARK    3  A    between atoms: S_4  and  C_5
REMARK    4  A    between atoms: N_9  and  C_10
REMARK    5  A    between atoms: N_16  and  C_17
REMARK    6  A    between atoms: N_16  and  C_24
REMARK    7  A    between atoms: C_17  and  C_18
REMARK                            x       y       z     vdW  Elec       q    Type
REMARK                         _______ _______ _______ _____ _____    ______ ____
ROOT
ATOM      1  O   UNL     1       3.294   8.268  17.162  0.00  0.00    +0.000 OA
ATOM      2  C   UNL     1       2.831   7.553  18.057  0.00  0.00    +0.000 C 
ATOM      3  N   UNL     1       3.295   6.251  18.268  0.00  0.00    +0.000 N 
ENDROOT
BRANCH   3   4
ATOM      4  C   UNL     1       2.518   5.259  18.924  0.00  0.00    +0.000 A 
ATOM      5  C   UNL     1       2.442   5.217  20.323  0.00  0.00    +0.000 A 
ATOM      6  C   UNL     1       1.635   4.269  20.953  0.00  0.00    +0.000 A 
ATOM      7  C   UNL     1       0.910   3.354  20.190  0.00  0.00    +0.000 A 
ATOM      8  C   UNL     1       0.979   3.396  18.798  0.00  0.00    +0.000 A 
ATOM      9  C   UNL     1       1.767   4.358  18.164  0.00  0.00    +0.000 A 
ENDBRANCH   3   4
BRANCH   2  10
ATOM     10  C   UNL     1       1.727   8.074  18.992  0.00  0.00    +0.000 C 
BRANCH  10  11
ATOM     11  S   UNL     1       1.240   9.748  18.479  0.00  0.00    +0.000 S 
BRANCH  11  12
ATOM     12  C   UNL     1       0.380  10.332  19.866  0.00  0.00    +0.000 A 
ATOM     13  N   UNL     1       0.890  10.497  21.067  0.00  0.00    +0.000 NA
ATOM     14  N   UNL     1      -0.038  11.217  21.772  0.00  0.00    +0.000 NA
ATOM     15  N   UNL     1      -1.087  11.518  21.018  0.00  0.00    +0.000 NA
ATOM     16  N   UNL     1      -0.891  10.888  19.830  0.00  0.00    +0.000 N 
BRANCH  16  17
ATOM     17  C   UNL     1      -1.896  10.886  18.829  0.00  0.00    +0.000 A 
ATOM     18  C   UNL     1      -1.797   9.992  17.753  0.00  0.00    +0.000 A 
ATOM     19  C   UNL     1      -2.804   9.947  16.786  0.00  0.00    +0.000 A 
ATOM     20  C   UNL     1      -3.890  10.817  16.864  0.00  0.00    +0.000 A 
ATOM     21  C   UNL     1      -3.969  11.740  17.902  0.00  0.00    +0.000 A 
ATOM     22  C   UNL     1      -2.976  11.778  18.884  0.00  0.00    +0.000 A 
ENDBRANCH  16  17
ENDBRANCH  11  12
ENDBRANCH  10  11
ENDBRANCH   2  10
BRANCH   3  23
ATOM     23  C   UNL     1       4.337   5.730  17.370  0.00  0.00    +0.000 C 
BRANCH  23  24
ATOM     24  C   UNL     1       5.764   6.026  17.777  0.00  0.00    +0.000 A 
ATOM     25  C   UNL     1       6.463   7.083  17.170  0.00  0.00    +0.000 A 
ATOM     26  C   UNL     1       7.714   7.481  17.651  0.00  0.00    +0.000 A 
ATOM     27  C   UNL     1       8.285   6.822  18.737  0.00  0.00    +0.000 A 
ATOM     28  C   UNL     1       7.617   5.751  19.324  0.00  0.00    +0.000 A 
ATOM     29  C   UNL     1       6.368   5.349  18.847  0.00  0.00    +0.000 A 
ENDBRANCH  23  24
ENDBRANCH   3  23
TORSDOF 7
ENDMDL
MODEL 3
REMARK VINA RESULT:      -8.3      0.279      1.284
REMARK  Name = 
REMARK  7 active torsions:
REMARK  status: ('A' for Active; 'I' for Inactive)
REMARK    1  A    between atoms: C_2  and  C_3
REMARK    2  A    between atoms: C_3  and  S_4
REMARK    3  A    between atoms: S_4  and  C_5
REMARK    4  A    between atoms: N_9  and  C_10
REMARK    5  A    between atoms: N_16  and  C_17
REMARK    6  A    between atoms: N_16  and  C_24
REMARK    7  A    between atoms: C_17  and  C_18
REMARK                            x       y       z     vdW  Elec       q    Type
REMARK                         _______ _______ _______ _____ _____    ______ ____
ROOT
ATOM      1  O   UNL     1       2.844   8.232  17.770  0.00  0.00    +0.000 OA
ATOM      2  C   UNL     1       2.546   7.422  18.655  0.00  0.00    +0.000 C 
ATOM      3  N   UNL     1       3.085   6.132  18.679  0.00  0.00    +0.000 N 
ENDROOT
BRANCH   3   4
ATOM      4  C   UNL     1       2.451   5.051  19.348  0.00  0.00    +0.000 A 
ATOM      5  C   UNL     1       2.685   4.817  20.710  0.00  0.00    +0.000 A 
ATOM      6  C   UNL     1       2.017   3.783  21.368  0.00  0.00    +0.000 A 
ATOM      7  C   UNL     1       1.124   2.974  20.667  0.00  0.00    +0.000 A 
ATOM      8  C   UNL     1       0.886   3.207  19.313  0.00  0.00    +0.000 A 
ATOM      9  C   UNL     1       1.534   4.255  18.657  0.00  0.00    +0.000 A 
ENDBRANCH   3   4
BRANCH   2  10
ATOM     10  C   UNL     1       1.577   7.808  19.785  0.00  0.00    +0.000 C 
BRANCH  10  11
ATOM     11  S   UNL     1       1.003   9.514  19.534  0.00  0.00    +0.000 S 
BRANCH  11  12
ATOM     12  C   UNL     1       0.212   9.870  21.034  0.00  0.00    +0.000 A 
ATOM     13  N   UNL     1      -0.121   8.988  21.950  0.00  0.00    +0.000 NA
ATOM     14  N   UNL     1      -0.464   9.713  23.060  0.00  0.00    +0.000 NA
ATOM     15  N   UNL     1      -0.320  11.014  22.849  0.00  0.00    +0.000 NA
ATOM     16  N   UNL     1       0.018  11.149  21.539  0.00  0.00    +0.000 N 
BRANCH  16  17
ATOM     17  C   UNL     1       0.118  12.429  20.937  0.00  0.00    +0.000 A 
ATOM     18  C   UNL     1      -1.009  12.989  20.317  0.00  0.00    +0.000 A 
ATOM     19  C   UNL     1      -0.937  14.270  19.763  0.00  0.00    +0.000 A 
ATOM     20  C   UNL     1       0.262  14.979  19.788  0.00  0.00    +0.000 A 
ATOM     21  C   UNL     1       1.397  14.408  20.359  0.00  0.00    +0.000 A 
ATOM     22  C   UNL     1       1.328  13.137  20.933  0.00  0.00    +0.000 A 
ENDBRANCH  16  17
ENDBRANCH  11  12
ENDBRANCH  10  11
ENDBRANCH   2  10
BRANCH   3  23
ATOM     23  C   UNL     1       3.999   5.740  17.594  0.00  0.00    +0.000 C 
BRANCH  23  24
ATOM     24  C   UNL     1       5.467   6.004  17.845  0.00  0.00    +0.000 A 
ATOM     25  C   UNL     1       6.123   7.041  17.161  0.00  0.00    +0.000 A 
ATOM     26  C   UNL     1       7.427   7.411  17.504  0.00  0.00    +0.000 A 
ATOM     27  C   UNL     1       8.094   6.743  18.528  0.00  0.00    +0.000 A 
ATOM     28  C   UNL     1       7.467   5.691  19.189  0.00  0.00    +0.000 A 
ATOM     29  C   UNL     1       6.165   5.316  18.851  0.00  0.00    +0.000 A 
ENDBRANCH  23  24
ENDBRANCH   3  23
TORSDOF 7
ENDMDL
MODEL 4
REMARK VINA RESULT:      -8.3      1.983      2.696
REMARK  Name = 
REMARK  7 active torsions:
REMARK  status: ('A' for Active; 'I' for Inactive)
REMARK    1  A    between atoms: C_2  and  C_3
REMARK    2  A    between atoms: C_3  and  S_4
REMARK    3  A    between atoms: S_4  and  C_5
REMARK    4  A    between atoms: N_9  and  C_10
REMARK    5  A    between atoms: N_16  and  C_17
REMARK    6  A    between atoms: N_16  and  C_24
REMARK    7  A    between atoms: C_17  and  C_18
REMARK                            x       y       z     vdW  Elec       q    Type
REMARK                         _______ _______ _______ _____ _____    ______ ____
ROOT
ATOM      1  O   UNL     1       2.212   8.434  18.711  0.00  0.00    +0.000 OA
ATOM      2  C   UNL     1       2.166   7.482  19.496  0.00  0.00    +0.000 C 
ATOM      3  N   UNL     1       2.570   6.199  19.115  0.00  0.00    +0.000 N 
ENDROOT
BRANCH   3   4
ATOM      4  C   UNL     1       2.114   5.025  19.775  0.00  0.00    +0.000 A 
ATOM      5  C   UNL     1       1.230   4.144  19.138  0.00  0.00    +0.000 A 
ATOM      6  C   UNL     1       0.830   2.970  19.778  0.00  0.00    +0.000 A 
ATOM      7  C   UNL     1       1.302   2.677  21.056  0.00  0.00    +0.000 A 
ATOM      8  C   UNL     1       2.187   3.550  21.690  0.00  0.00    +0.000 A 
ATOM      9  C   UNL     1       2.607   4.713  21.044  0.00  0.00    +0.000 A 
ENDBRANCH   3   4
BRANCH   2  10
ATOM     10  C   UNL     1       1.677   7.672  20.941  0.00  0.00    +0.000 C 
BRANCH  10  11
ATOM     11  S   UNL     1       0.000   8.372  20.926  0.00  0.00    +0.000 S 
BRANCH  11  12
ATOM     12  C   UNL     1       0.303  10.078  20.960  0.00  0.00    +0.000 A 
ATOM     13  N   UNL     1       1.153  10.687  21.758  0.00  0.00    +0.000 NA
ATOM     14  N   UNL     1       1.273  11.962  21.273  0.00  0.00    +0.000 NA
ATOM     15  N   UNL     1       0.539  12.134  20.182  0.00  0.00    +0.000 NA
ATOM     16  N   UNL     1      -0.162  10.982  20.014  0.00  0.00    +0.000 N 
BRANCH  16  17
ATOM     17  C   UNL     1      -1.156  10.871  19.009  0.00  0.00    +0.000 A 
ATOM     18  C   UNL     1      -0.921  10.054  17.893  0.00  0.00    +0.000 A 
ATOM     19  C   UNL     1      -1.912   9.898  16.920  0.00  0.00    +0.000 A 
ATOM     20  C   UNL     1      -3.120  10.584  17.033  0.00  0.00    +0.000 A 
ATOM     21  C   UNL     1      -3.339  11.435  18.113  0.00  0.00    +0.000 A 
ATOM     22  C   UNL     1      -2.362  11.580  19.100  0.00  0.00    +0.000 A 
ENDBRANCH  16  17
ENDBRANCH  11  12
ENDBRANCH  10  11
ENDBRANCH   2  10
BRANCH   3  23
ATOM     23  C   UNL     1       3.022   5.995  17.730  0.00  0.00    +0.000 C 
BRANCH  23  24
ATOM     24  C   UNL     1       4.473   5.596  17.564  0.00  0.00    +0.000 A 
ATOM     25  C   UNL     1       5.398   5.871  18.586  0.00  0.00    +0.000 A 
ATOM     26  C   UNL     1       6.698   5.359  18.528  0.00  0.00    +0.000 A 
ATOM     27  C   UNL     1       7.091   4.576  17.445  0.00  0.00    +0.000 A 
ATOM     28  C   UNL     1       6.193   4.327  16.411  0.00  0.00    +0.000 A 
ATOM     29  C   UNL     1       4.894   4.836  16.463  0.00  0.00    +0.000 A 
ENDBRANCH  23  24
ENDBRANCH   3  23
TORSDOF 7
ENDMDL
MODEL 5
REMARK VINA RESULT:      -8.2      1.956      2.873
REMARK  Name = 
REMARK  7 active torsions:
REMARK  status: ('A' for Active; 'I' for Inactive)
REMARK    1  A    between atoms: C_2  and  C_3
REMARK    2  A    between atoms: C_3  and  S_4
REMARK    3  A    between atoms: S_4  and  C_5
REMARK    4  A    between atoms: N_9  and  C_10
REMARK    5  A    between atoms: N_16  and  C_17
REMARK    6  A    between atoms: N_16  and  C_24
REMARK    7  A    between atoms: C_17  and  C_18
REMARK                            x       y       z     vdW  Elec       q    Type
REMARK                         _______ _______ _______ _____ _____    ______ ____
ROOT
ATOM      1  O   UNL     1       2.037   8.574  18.848  0.00  0.00    +0.000 OA
ATOM      2  C   UNL     1       2.049   7.585  19.589  0.00  0.00    +0.000 C 
ATOM      3  N   UNL     1       2.536   6.349  19.152  0.00  0.00    +0.000 N 
ENDROOT
BRANCH   3   4
ATOM      4  C   UNL     1       2.152   5.120  19.754  0.00  0.00    +0.000 A 
ATOM      5  C   UNL     1       2.595   4.785  21.041  0.00  0.00    +0.000 A 
ATOM      6  C   UNL     1       2.170   3.598  21.640  0.00  0.00    +0.000 A 
ATOM      7  C   UNL     1       1.312   2.740  20.955  0.00  0.00    +0.000 A 
ATOM      8  C   UNL     1       0.865   3.074  19.676  0.00  0.00    +0.000 A 
ATOM      9  C   UNL     1       1.269   4.270  19.083  0.00  0.00    +0.000 A 
ENDBRANCH   3   4
BRANCH   2  10
ATOM     10  C   UNL     1       1.541   7.677  21.037  0.00  0.00    +0.000 C 
BRANCH  10  11
ATOM     11  S   UNL     1      -0.105   8.447  21.054  0.00  0.00    +0.000 S 
BRANCH  11  12
ATOM     12  C   UNL     1       0.269  10.138  20.997  0.00  0.00    +0.000 A 
ATOM     13  N   UNL     1       1.153  10.751  21.754  0.00  0.00    +0.000 NA
ATOM     14  N   UNL     1       1.320  11.993  21.203  0.00  0.00    +0.000 NA
ATOM     15  N   UNL     1       0.580  12.140  20.112  0.00  0.00    +0.000 NA
ATOM     16  N   UNL     1      -0.170  11.011  20.011  0.00  0.00    +0.000 N 
BRANCH  16  17
ATOM     17  C   UNL     1      -1.181  10.892  19.024  0.00  0.00    +0.000 A 
ATOM     18  C   UNL     1      -2.380  11.605  19.174  0.00  0.00    +0.000 A 
ATOM     19  C   UNL     1      -3.365  11.534  18.185  0.00  0.00    +0.000 A 
ATOM     20  C   UNL     1      -3.177  10.723  17.067  0.00  0.00    +0.000 A 
ATOM     21  C   UNL     1      -2.011   9.975  16.936  0.00  0.00    +0.000 A 
ATOM     22  C   UNL     1      -1.014  10.056  17.911  0.00  0.00    +0.000 A 
ENDBRANCH  16  17
ENDBRANCH  11  12
ENDBRANCH  10  11
ENDBRANCH   2  10
BRANCH   3  23
ATOM     23  C   UNL     1       3.007   6.239  17.763  0.00  0.00    +0.000 C 
BRANCH  23  24
ATOM     24  C   UNL     1       4.373   5.614  17.581  0.00  0.00    +0.000 A 
ATOM     25  C   UNL     1       4.525   4.480  16.764  0.00  0.00    +0.000 A 
ATOM     26  C   UNL     1       5.796   3.994  16.446  0.00  0.00    +0.000 A 
ATOM     27  C   UNL     1       6.930   4.629  16.946  0.00  0.00    +0.000 A 
ATOM     28  C   UNL     1       6.791   5.732  17.784  0.00  0.00    +0.000 A 
ATOM     29  C   UNL     1       5.524   6.221  18.107  0.00  0.00    +0.000 A 
ENDBRANCH  23  24
ENDBRANCH   3  23
TORSDOF 7
ENDMDL
MODEL 6
REMARK VINA RESULT:      -8.2      1.862      2.892
REMARK  Name = 
REMARK  7 active torsions:
REMARK  status: ('A' for Active; 'I' for Inactive)
REMARK    1  A    between atoms: C_2  and  C_3
REMARK    2  A    between atoms: C_3  and  S_4
REMARK    3  A    between atoms: S_4  and  C_5
REMARK    4  A    between atoms: N_9  and  C_10
REMARK    5  A    between atoms: N_16  and  C_17
REMARK    6  A    between atoms: N_16  and  C_24
REMARK    7  A    between atoms: C_17  and  C_18
REMARK                            x       y       z     vdW  Elec       q    Type
REMARK                         _______ _______ _______ _____ _____    ______ ____
ROOT
ATOM      1  O   UNL     1       3.037   8.468  17.158  0.00  0.00    +0.000 OA
ATOM      2  C   UNL     1       2.562   7.726  18.025  0.00  0.00    +0.000 C 
ATOM      3  N   UNL     1       3.074   6.445  18.253  0.00  0.00    +0.000 N 
ENDROOT
BRANCH   3   4
ATOM      4  C   UNL     1       2.311   5.413  18.863  0.00  0.00    +0.000 A 
ATOM      5  C   UNL     1       1.639   4.463  18.083  0.00  0.00    +0.000 A 
ATOM      6  C   UNL     1       0.935   3.425  18.695  0.00  0.00    +0.000 A 
ATOM      7  C   UNL     1       0.890   3.339  20.086  0.00  0.00    +0.000 A 
ATOM      8  C   UNL     1       1.562   4.281  20.865  0.00  0.00    +0.000 A 
ATOM      9  C   UNL     1       2.287   5.306  20.256  0.00  0.00    +0.000 A 
ENDBRANCH   3   4
BRANCH   2  10
ATOM     10  C   UNL     1       1.391   8.190  18.906  0.00  0.00    +0.000 C 
BRANCH  10  11
ATOM     11  S   UNL     1       0.548   9.587  18.106  0.00  0.00    +0.000 S 
BRANCH  11  12
ATOM     12  C   UNL     1       1.422  10.954  18.713  0.00  0.00    +0.000 A 
ATOM     13  N   UNL     1       2.249  11.703  18.017  0.00  0.00    +0.000 NA
ATOM     14  N   UNL     1       2.499  12.804  18.792  0.00  0.00    +0.000 NA
ATOM     15  N   UNL     1       1.821  12.756  19.930  0.00  0.00    +0.000 NA
ATOM     16  N   UNL     1       1.202  11.546  19.949  0.00  0.00    +0.000 N 
BRANCH  16  17
ATOM     17  C   UNL     1       0.494  11.105  21.096  0.00  0.00    +0.000 A 
ATOM     18  C   UNL     1      -0.587  11.863  21.573  0.00  0.00    +0.000 A 
ATOM     19  C   UNL     1      -1.323  11.415  22.673  0.00  0.00    +0.000 A 
ATOM     20  C   UNL     1      -0.963  10.237  23.325  0.00  0.00    +0.000 A 
ATOM     21  C   UNL     1       0.138   9.507  22.887  0.00  0.00    +0.000 A 
ATOM     22  C   UNL     1       0.867   9.937  21.776  0.00  0.00    +0.000 A 
ENDBRANCH  16  17
ENDBRANCH  11  12
ENDBRANCH  10  11
ENDBRANCH   2  10
BRANCH   3  23
ATOM     23  C   UNL     1       4.182   5.978  17.406  0.00  0.00    +0.000 C 
BRANCH  23  24
ATOM     24  C   UNL     1       5.574   6.285  17.915  0.00  0.00    +0.000 A 
ATOM     25  C   UNL     1       6.136   5.503  18.939  0.00  0.00    +0.000 A 
ATOM     26  C   UNL     1       7.477   5.659  19.301  0.00  0.00    +0.000 A 
ATOM     27  C   UNL     1       8.269   6.603  18.652  0.00  0.00    +0.000 A 
ATOM     28  C   UNL     1       7.714   7.406  17.660  0.00  0.00    +0.000 A 
ATOM     29  C   UNL     1       6.374   7.256  17.295  0.00  0.00    +0.000 A 
ENDBRANCH  23  24
ENDBRANCH   3  23
TORSDOF 7
ENDMDL
MODEL 7
REMARK VINA RESULT:      -8.2      2.666      8.527
REMARK  Name = 
REMARK  7 active torsions:
REMARK  status: ('A' for Active; 'I' for Inactive)
REMARK    1  A    between atoms: C_2  and  C_3
REMARK    2  A    between atoms: C_3  and  S_4
REMARK    3  A    between atoms: S_4  and  C_5
REMARK    4  A    between atoms: N_9  and  C_10
REMARK    5  A    between atoms: N_16  and  C_17
REMARK    6  A    between atoms: N_16  and  C_24
REMARK    7  A    between atoms: C_17  and  C_18
REMARK                            x       y       z     vdW  Elec       q    Type
REMARK                         _______ _______ _______ _____ _____    ______ ____
ROOT
ATOM      1  O   UNL     1       1.809   9.716  17.513  0.00  0.00    +0.000 OA
ATOM      2  C   UNL     1       1.341   9.396  18.611  0.00  0.00    +0.000 C 
ATOM      3  N   UNL     1       0.224  10.045  19.148  0.00  0.00    +0.000 N 
ENDROOT
BRANCH   3   4
ATOM      4  C   UNL     1      -0.057  10.058  20.540  0.00  0.00    +0.000 A 
ATOM      5  C   UNL     1      -0.279  11.267  21.215  0.00  0.00    +0.000 A 
ATOM      6  C   UNL     1      -0.604  11.262  22.572  0.00  0.00    +0.000 A 
ATOM      7  C   UNL     1      -0.700  10.054  23.261  0.00  0.00    +0.000 A 
ATOM      8  C   UNL     1      -0.485   8.849  22.592  0.00  0.00    +0.000 A 
ATOM      9  C   UNL     1      -0.183   8.849  21.229  0.00  0.00    +0.000 A 
ENDBRANCH   3   4
BRANCH   2  10
ATOM     10  C   UNL     1       1.960   8.253  19.432  0.00  0.00    +0.000 C 
BRANCH  10  11
ATOM     11  S   UNL     1       2.623   6.990  18.305  0.00  0.00    +0.000 S 
BRANCH  11  12
ATOM     12  C   UNL     1       2.896   5.646  19.365  0.00  0.00    +0.000 A 
ATOM     13  N   UNL     1       2.105   5.274  20.347  0.00  0.00    +0.000 NA
ATOM     14  N   UNL     1       2.547   4.038  20.736  0.00  0.00    +0.000 NA
ATOM     15  N   UNL     1       3.571   3.637  19.995  0.00  0.00    +0.000 NA
ATOM     16  N   UNL     1       3.875   4.680  19.177  0.00  0.00    +0.000 N 
BRANCH  16  17
ATOM     17  C   UNL     1       5.018   4.641  18.338  0.00  0.00    +0.000 A 
ATOM     18  C   UNL     1       6.255   5.076  18.836  0.00  0.00    +0.000 A 
ATOM     19  C   UNL     1       7.398   4.998  18.036  0.00  0.00    +0.000 A 
ATOM     20  C   UNL     1       7.306   4.527  16.727  0.00  0.00    +0.000 A 
ATOM     21  C   UNL     1       6.073   4.141  16.211  0.00  0.00    +0.000 A 
ATOM     22  C   UNL     1       4.929   4.196  17.011  0.00  0.00    +0.000 A 
ENDBRANCH  16  17
ENDBRANCH  11  12
ENDBRANCH  10  11
ENDBRANCH   2  10
BRANCH   3  23
ATOM     23  C   UNL     1      -0.369  11.154  18.385  0.00  0.00    +0.000 C 
BRANCH  23  24
ATOM     24  C   UNL     1      -1.773  10.921  17.870  0.00  0.00    +0.000 A 
ATOM     25  C   UNL     1      -2.844  11.671  18.383  0.00  0.00    +0.000 A 
ATOM     26  C   UNL     1      -4.113  11.594  17.802  0.00  0.00    +0.000 A 
ATOM     27  C   UNL     1      -4.328  10.761  16.707  0.00  0.00    +0.000 A 
ATOM     28  C   UNL     1      -3.283   9.987  16.211  0.00  0.00    +0.000 A 
ATOM     29  C   UNL     1      -2.013  10.059  16.789  0.00  0.00    +0.000 A 
ENDBRANCH  23  24
ENDBRANCH   3  23
TORSDOF 7
ENDMDL
MODEL 8
REMARK VINA RESULT:      -8.1      1.886      2.975
REMARK  Name = 
REMARK  7 active torsions:
REMARK  status: ('A' for Active; 'I' for Inactive)
REMARK    1  A    between atoms: C_2  and  C_3
REMARK    2  A    between atoms: C_3  and  S_4
REMARK    3  A    between atoms: S_4  and  C_5
REMARK    4  A    between atoms: N_9  and  C_10
REMARK    5  A    between atoms: N_16  and  C_17
REMARK    6  A    between atoms: N_16  and  C_24
REMARK    7  A    between atoms: C_17  and  C_18
REMARK                            x       y       z     vdW  Elec       q    Type
REMARK                         _______ _______ _______ _____ _____    ______ ____
ROOT
ATOM      1  O   UNL     1       3.039   8.552  17.070  0.00  0.00    +0.000 OA
ATOM      2  C   UNL     1       2.578   7.804  17.939  0.00  0.00    +0.000 C 
ATOM      3  N   UNL     1       3.120   6.537  18.176  0.00  0.00    +0.000 N 
ENDROOT
BRANCH   3   4
ATOM      4  C   UNL     1       2.379   5.491  18.789  0.00  0.00    +0.000 A 
ATOM      5  C   UNL     1       2.196   5.462  20.178  0.00  0.00    +0.000 A 
ATOM      6  C   UNL     1       1.423   4.458  20.762  0.00  0.00    +0.000 A 
ATOM      7  C   UNL     1       0.841   3.474  19.965  0.00  0.00    +0.000 A 
ATOM      8  C   UNL     1       1.017   3.502  18.581  0.00  0.00    +0.000 A 
ATOM      9  C   UNL     1       1.769   4.519  17.991  0.00  0.00    +0.000 A 
ENDBRANCH   3   4
BRANCH   2  10
ATOM     10  C   UNL     1       1.393   8.245  18.814  0.00  0.00    +0.000 C 
BRANCH  10  11
ATOM     11  S   UNL     1       0.576   9.677  18.049  0.00  0.00    +0.000 S 
BRANCH  11  12
ATOM     12  C   UNL     1       1.461  11.012  18.709  0.00  0.00    +0.000 A 
ATOM     13  N   UNL     1       2.324  11.757  18.052  0.00  0.00    +0.000 NA
ATOM     14  N   UNL     1       2.574  12.837  18.855  0.00  0.00    +0.000 NA
ATOM     15  N   UNL     1       1.863  12.781  19.972  0.00  0.00    +0.000 NA
ATOM     16  N   UNL     1       1.218  11.585  19.950  0.00  0.00    +0.000 N 
BRANCH  16  17
ATOM     17  C   UNL     1       0.467  11.138  21.067  0.00  0.00    +0.000 A 
ATOM     18  C   UNL     1       0.825   9.940  21.704  0.00  0.00    +0.000 A 
ATOM     19  C   UNL     1       0.125   9.513  22.835  0.00  0.00    +0.000 A 
ATOM     20  C   UNL     1      -0.957  10.252  23.310  0.00  0.00    +0.000 A 
ATOM     21  C   UNL     1      -1.348  11.415  22.653  0.00  0.00    +0.000 A 
ATOM     22  C   UNL     1      -0.640  11.859  21.534  0.00  0.00    +0.000 A 
ENDBRANCH  16  17
ENDBRANCH  11  12
ENDBRANCH  10  11
ENDBRANCH   2  10
BRANCH   3  23
ATOM     23  C   UNL     1       4.242   6.091  17.335  0.00  0.00    +0.000 C 
BRANCH  23  24
ATOM     24  C   UNL     1       5.624   6.346  17.895  0.00  0.00    +0.000 A 
ATOM     25  C   UNL     1       6.132   5.523  18.915  0.00  0.00    +0.000 A 
ATOM     26  C   UNL     1       7.465   5.631  19.323  0.00  0.00    +0.000 A 
ATOM     27  C   UNL     1       8.303   6.568  18.723  0.00  0.00    +0.000 A 
ATOM     28  C   UNL     1       7.802   7.412  17.735  0.00  0.00    +0.000 A 
ATOM     29  C   UNL     1       6.471   7.309  17.325  0.00  0.00    +0.000 A 
ENDBRANCH  23  24
ENDBRANCH   3  23
TORSDOF 7
ENDMDL
MODEL 9
REMARK VINA RESULT:      -8.1      3.304      7.777
REMARK  Name = 
REMARK  7 active torsions:
REMARK  status: ('A' for Active; 'I' for Inactive)
REMARK    1  A    between atoms: C_2  and  C_3
REMARK    2  A    between atoms: C_3  and  S_4
REMARK    3  A    between atoms: S_4  and  C_5
REMARK    4  A    between atoms: N_9  and  C_10
REMARK    5  A    between atoms: N_16  and  C_17
REMARK    6  A    between atoms: N_16  and  C_24
REMARK    7  A    between atoms: C_17  and  C_18
REMARK                            x       y       z     vdW  Elec       q    Type
REMARK                         _______ _______ _______ _____ _____    ______ ____
ROOT
ATOM      1  O   UNL     1       4.162   6.941  17.491  0.00  0.00    +0.000 OA
ATOM      2  C   UNL     1       3.440   5.998  17.832  0.00  0.00    +0.000 C 
ATOM      3  N   UNL     1       2.648   6.061  18.982  0.00  0.00    +0.000 N 
ENDROOT
BRANCH   3   4
ATOM      4  C   UNL     1       2.190   4.899  19.661  0.00  0.00    +0.000 A 
ATOM      5  C   UNL     1       2.594   4.633  20.976  0.00  0.00    +0.000 A 
ATOM      6  C   UNL     1       2.098   3.515  21.648  0.00  0.00    +0.000 A 
ATOM      7  C   UNL     1       1.206   2.656  21.008  0.00  0.00    +0.000 A 
ATOM      8  C   UNL     1       0.798   2.922  19.701  0.00  0.00    +0.000 A 
ATOM      9  C   UNL     1       1.274   4.051  19.033  0.00  0.00    +0.000 A 
ENDBRANCH   3   4
BRANCH   2  10
ATOM     10  C   UNL     1       3.368   4.714  16.989  0.00  0.00    +0.000 C 
BRANCH  10  11
ATOM     11  S   UNL     1       4.815   3.674  17.346  0.00  0.00    +0.000 S 
BRANCH  11  12
ATOM     12  C   UNL     1       5.873   4.032  16.022  0.00  0.00    +0.000 A 
ATOM     13  N   UNL     1       5.808   3.493  14.824  0.00  0.00    +0.000 NA
ATOM     14  N   UNL     1       6.635   4.243  14.031  0.00  0.00    +0.000 NA
ATOM     15  N   UNL     1       7.180   5.242  14.712  0.00  0.00    +0.000 NA
ATOM     16  N   UNL     1       6.787   5.077  16.003  0.00  0.00    +0.000 N 
BRANCH  16  17
ATOM     17  C   UNL     1       7.304   5.901  17.036  0.00  0.00    +0.000 A 
ATOM     18  C   UNL     1       7.630   5.331  18.275  0.00  0.00    +0.000 A 
ATOM     19  C   UNL     1       8.185   6.122  19.284  0.00  0.00    +0.000 A 
ATOM     20  C   UNL     1       8.378   7.487  19.079  0.00  0.00    +0.000 A 
ATOM     21  C   UNL     1       8.010   8.068  17.868  0.00  0.00    +0.000 A 
ATOM     22  C   UNL     1       7.474   7.279  16.847  0.00  0.00    +0.000 A 
ENDBRANCH  16  17
ENDBRANCH  11  12
ENDBRANCH  10  11
ENDBRANCH   2  10
BRANCH   3  23
ATOM     23  C   UNL     1       2.719   7.275  19.810  0.00  0.00    +0.000 C 
BRANCH  23  24
ATOM     24  C   UNL     1       1.583   8.259  19.633  0.00  0.00    +0.000 A 
ATOM     25  C   UNL     1       0.800   8.635  20.738  0.00  0.00    +0.000 A 
ATOM     26  C   UNL     1      -0.136   9.668  20.630  0.00  0.00    +0.000 A 
ATOM     27  C   UNL     1      -0.307  10.329  19.417  0.00  0.00    +0.000 A 
ATOM     28  C   UNL     1       0.438   9.942  18.307  0.00  0.00    +0.000 A 
ATOM     29  C   UNL     1       1.374   8.911  18.408  0.00  0.00    +0.000 A 
ENDBRANCH  23  24
ENDBRANCH   3  23
TORSDOF 7
ENDMDL
