MODEL 1
REMARK VINA RESULT:      -8.8      0.000      0.000
REMARK  Name = 
REMARK  5 active torsions:
REMARK  status: ('A' for Active; 'I' for Inactive)
REMARK    1  A    between atoms: C_1  and  C_2
REMARK    2  A    between atoms: C_10  and  C_11
REMARK    3  A    between atoms: N_13  and  C_14
REMARK    4  A    between atoms: C_14  and  C_15
REMARK    5  A    between atoms: C_18  and  N_19
REMARK                            x       y       z     vdW  Elec       q    Type
REMARK                         _______ _______ _______ _____ _____    ______ ____
ROOT
ATOM      1  C   UNL     1       3.998   6.612  17.605  0.00  0.00    +0.000 C 
ATOM      2  O   UNL     1       4.579   7.016  16.603  0.00  0.00    +0.000 OA
ATOM      3  N   UNL     1       2.980   7.322  18.202  0.00  0.00    +0.000 N 
ATOM      4  H   UNL     1       2.394   6.842  18.867  0.00  0.00    +0.000 HD
ENDROOT
BRANCH   1  14
ATOM      5  C   UNL     1       6.894   5.533  18.823  0.00  0.00    +0.000 C 
ATOM      6  C   UNL     1       5.551   4.897  18.746  0.00  0.00    +0.000 A 
ATOM      7  N   UNL     1       5.386   3.604  19.185  0.00  0.00    +0.000 N 
ATOM      8  C   UNL     1       4.103   3.170  18.976  0.00  0.00    +0.000 A 
ATOM      9  C   UNL     1       3.513   1.934  19.263  0.00  0.00    +0.000 A 
ATOM     10  C   UNL     1       2.165   1.768  18.938  0.00  0.00    +0.000 A 
ATOM     11  C   UNL     1       1.440   2.797  18.345  0.00  0.00    +0.000 A 
ATOM     12  C   UNL     1       2.051   4.024  18.058  0.00  0.00    +0.000 A 
ATOM     13  C   UNL     1       3.412   4.222  18.379  0.00  0.00    +0.000 A 
ATOM     14  C   UNL     1       4.325   5.327  18.235  0.00  0.00    +0.000 A 
ATOM     15  H   UNL     1       6.115   3.029  19.585  0.00  0.00    +0.000 HD
ENDBRANCH   1  14
BRANCH   3  16
ATOM     16  C   UNL     1       2.555   8.609  17.704  0.00  0.00    +0.000 C 
BRANCH  16  17
ATOM     17  C   UNL     1       1.648   9.331  18.666  0.00  0.00    +0.000 A 
ATOM     18  C   UNL     1       1.167  10.612  18.379  0.00  0.00    +0.000 A 
ATOM     19  C   UNL     1       0.295  11.267  19.262  0.00  0.00    +0.000 A 
ATOM     20  C   UNL     1      -0.102  10.676  20.467  0.00  0.00    +0.000 A 
ATOM     21  C   UNL     1       0.396   9.394  20.750  0.00  0.00    +0.000 A 
ATOM     22  C   UNL     1       1.258   8.731  19.865  0.00  0.00    +0.000 A 
BRANCH  20  23
ATOM     23  N   UNL     1      -0.961  11.342  21.389  0.00  0.00    +0.000 N 
ATOM     24  C   UNL     1      -2.046  12.192  20.952  0.00  0.00    +0.000 C 
ATOM     25  C   UNL     1      -2.509  12.899  22.207  0.00  0.00    +0.000 C 
ATOM     26  C   UNL     1      -2.204  11.908  23.311  0.00  0.00    +0.000 C 
ATOM     27  C   UNL     1      -1.021  11.134  22.775  0.00  0.00    +0.000 C 
ATOM     28  O   UNL     1      -0.314  10.438  23.490  0.00  0.00    +0.000 OA
ENDBRANCH  20  23
ENDBRANCH  16  17
ENDBRANCH   3  16
TORSDOF 4
ENDMDL
MODEL 2
REMARK VINA RESULT:      -8.7      2.803      8.758
REMARK  Name = 
REMARK  5 active torsions:
REMARK  status: ('A' for Active; 'I' for Inactive)
REMARK    1  A    between atoms: C_1  and  C_2
REMARK    2  A    between atoms: C_10  and  C_11
REMARK    3  A    between atoms: N_13  and  C_14
REMARK    4  A    between atoms: C_14  and  C_15
REMARK    5  A    between atoms: C_18  and  N_19
REMARK                            x       y       z     vdW  Elec       q    Type
REMARK                         _______ _______ _______ _____ _____    ______ ____
ROOT
ATOM      1  C   UNL     1      -0.330  11.024  19.856  0.00  0.00    +0.000 C 
ATOM      2  O   UNL     1       0.697  11.669  19.664  0.00  0.00    +0.000 OA
ATOM      3  N   UNL     1      -0.348   9.885  20.630  0.00  0.00    +0.000 N 
ATOM      4  H   UNL     1      -1.243   9.538  20.939  0.00  0.00    +0.000 HD
ENDROOT
BRANCH   1  14
ATOM      5  C   UNL     1      -2.631  13.066  21.109  0.00  0.00    +0.000 C 
ATOM      6  C   UNL     1      -2.574  12.295  19.837  0.00  0.00    +0.000 A 
ATOM      7  N   UNL     1      -3.648  12.323  18.978  0.00  0.00    +0.000 N 
ATOM      8  C   UNL     1      -3.439  11.507  17.898  0.00  0.00    +0.000 A 
ATOM      9  C   UNL     1      -4.265  11.236  16.801  0.00  0.00    +0.000 A 
ATOM     10  C   UNL     1      -3.787  10.350  15.832  0.00  0.00    +0.000 A 
ATOM     11  C   UNL     1      -2.537   9.754  15.963  0.00  0.00    +0.000 A 
ATOM     12  C   UNL     1      -1.729  10.031  17.072  0.00  0.00    +0.000 A 
ATOM     13  C   UNL     1      -2.183  10.927  18.066  0.00  0.00    +0.000 A 
ATOM     14  C   UNL     1      -1.623  11.428  19.295  0.00  0.00    +0.000 A 
ATOM     15  H   UNL     1      -4.497  12.852  19.127  0.00  0.00    +0.000 HD
ENDBRANCH   1  14
BRANCH   3  16
ATOM     16  C   UNL     1       0.849   9.356  21.238  0.00  0.00    +0.000 C 
BRANCH  16  17
ATOM     17  C   UNL     1       1.421   8.191  20.473  0.00  0.00    +0.000 A 
ATOM     18  C   UNL     1       1.452   6.910  21.030  0.00  0.00    +0.000 A 
ATOM     19  C   UNL     1       1.955   5.821  20.301  0.00  0.00    +0.000 A 
ATOM     20  C   UNL     1       2.464   5.982  19.007  0.00  0.00    +0.000 A 
ATOM     21  C   UNL     1       2.439   7.276  18.463  0.00  0.00    +0.000 A 
ATOM     22  C   UNL     1       1.926   8.365  19.183  0.00  0.00    +0.000 A 
BRANCH  20  23
ATOM     23  N   UNL     1       3.008   4.893  18.267  0.00  0.00    +0.000 N 
ATOM     24  C   UNL     1       4.433   4.720  18.087  0.00  0.00    +0.000 C 
ATOM     25  C   UNL     1       4.559   3.637  17.039  0.00  0.00    +0.000 C 
ATOM     26  C   UNL     1       3.321   2.791  17.246  0.00  0.00    +0.000 C 
ATOM     27  C   UNL     1       2.310   3.771  17.796  0.00  0.00    +0.000 C 
ATOM     28  O   UNL     1       1.112   3.530  17.826  0.00  0.00    +0.000 OA
ENDBRANCH  20  23
ENDBRANCH  16  17
ENDBRANCH   3  16
TORSDOF 4
ENDMDL
MODEL 3
REMARK VINA RESULT:      -8.7      2.700      8.843
REMARK  Name = 
REMARK  5 active torsions:
REMARK  status: ('A' for Active; 'I' for Inactive)
REMARK    1  A    between atoms: C_1  and  C_2
REMARK    2  A    between atoms: C_10  and  C_11
REMARK    3  A    between atoms: N_13  and  C_14
REMARK    4  A    between atoms: C_14  and  C_15
REMARK    5  A    between atoms: C_18  and  N_19
REMARK                            x       y       z     vdW  Elec       q    Type
REMARK                         _______ _______ _______ _____ _____    ______ ____
ROOT
ATOM      1  C   UNL     1      -0.549  11.066  19.951  0.00  0.00    +0.000 C 
ATOM      2  O   UNL     1       0.386  11.842  20.122  0.00  0.00    +0.000 OA
ATOM      3  N   UNL     1      -0.503   9.756  20.371  0.00  0.00    +0.000 N 
ATOM      4  H   UNL     1      -1.369   9.242  20.414  0.00  0.00    +0.000 HD
ENDROOT
BRANCH   1  14
ATOM      5  C   UNL     1      -2.913  13.125  21.050  0.00  0.00    +0.000 C 
ATOM      6  C   UNL     1      -2.778  12.353  19.785  0.00  0.00    +0.000 A 
ATOM      7  N   UNL     1      -3.793  12.389  18.856  0.00  0.00    +0.000 N 
ATOM      8  C   UNL     1      -3.519  11.571  17.792  0.00  0.00    +0.000 A 
ATOM      9  C   UNL     1      -4.272  11.306  16.643  0.00  0.00    +0.000 A 
ATOM     10  C   UNL     1      -3.738  10.416  15.708  0.00  0.00    +0.000 A 
ATOM     11  C   UNL     1      -2.503   9.812  15.920  0.00  0.00    +0.000 A 
ATOM     12  C   UNL     1      -1.768  10.083  17.081  0.00  0.00    +0.000 A 
ATOM     13  C   UNL     1      -2.281  10.982  18.042  0.00  0.00    +0.000 A 
ATOM     14  C   UNL     1      -1.800  11.479  19.306  0.00  0.00    +0.000 A 
ATOM     15  H   UNL     1      -4.646  12.924  18.949  0.00  0.00    +0.000 HD
ENDBRANCH   1  14
BRANCH   3  16
ATOM     16  C   UNL     1       0.666   9.200  21.009  0.00  0.00    +0.000 C 
BRANCH  16  17
ATOM     17  C   UNL     1       1.505   8.376  20.068  0.00  0.00    +0.000 A 
ATOM     18  C   UNL     1       2.002   7.127  20.450  0.00  0.00    +0.000 A 
ATOM     19  C   UNL     1       2.754   6.348  19.558  0.00  0.00    +0.000 A 
ATOM     20  C   UNL     1       3.054   6.802  18.268  0.00  0.00    +0.000 A 
ATOM     21  C   UNL     1       2.559   8.063  17.899  0.00  0.00    +0.000 A 
ATOM     22  C   UNL     1       1.797   8.839  18.783  0.00  0.00    +0.000 A 
BRANCH  20  23
ATOM     23  N   UNL     1       3.845   6.037  17.362  0.00  0.00    +0.000 N 
ATOM     24  C   UNL     1       5.008   6.587  16.703  0.00  0.00    +0.000 C 
ATOM     25  C   UNL     1       5.373   5.564  15.650  0.00  0.00    +0.000 C 
ATOM     26  C   UNL     1       4.909   4.253  16.247  0.00  0.00    +0.000 C 
ATOM     27  C   UNL     1       3.752   4.656  17.132  0.00  0.00    +0.000 C 
ATOM     28  O   UNL     1       2.942   3.847  17.563  0.00  0.00    +0.000 OA
ENDBRANCH  20  23
ENDBRANCH  16  17
ENDBRANCH   3  16
TORSDOF 4
ENDMDL
MODEL 4
REMARK VINA RESULT:      -8.6      3.315      4.253
REMARK  Name = 
REMARK  5 active torsions:
REMARK  status: ('A' for Active; 'I' for Inactive)
REMARK    1  A    between atoms: C_1  and  C_2
REMARK    2  A    between atoms: C_10  and  C_11
REMARK    3  A    between atoms: N_13  and  C_14
REMARK    4  A    between atoms: C_14  and  C_15
REMARK    5  A    between atoms: C_18  and  N_19
REMARK                            x       y       z     vdW  Elec       q    Type
REMARK                         _______ _______ _______ _____ _____    ______ ____
ROOT
ATOM      1  C   UNL     1       4.672   4.392  16.783  0.00  0.00    +0.000 C 
ATOM      2  O   UNL     1       4.362   3.222  16.985  0.00  0.00    +0.000 OA
ATOM      3  N   UNL     1       3.983   5.442  17.347  0.00  0.00    +0.000 N 
ATOM      4  H   UNL     1       4.417   6.353  17.337  0.00  0.00    +0.000 HD
ENDROOT
BRANCH   1  14
ATOM      5  C   UNL     1       7.268   6.339  17.494  0.00  0.00    +0.000 C 
ATOM      6  C   UNL     1       6.902   5.581  16.267  0.00  0.00    +0.000 A 
ATOM      7  N   UNL     1       7.692   5.683  15.145  0.00  0.00    +0.000 N 
ATOM      8  C   UNL     1       7.164   4.969  14.102  0.00  0.00    +0.000 A 
ATOM      9  C   UNL     1       7.634   4.807  12.793  0.00  0.00    +0.000 A 
ATOM     10  C   UNL     1       6.881   4.009  11.928  0.00  0.00    +0.000 A 
ATOM     11  C   UNL     1       5.702   3.406  12.356  0.00  0.00    +0.000 A 
ATOM     12  C   UNL     1       5.245   3.588  13.666  0.00  0.00    +0.000 A 
ATOM     13  C   UNL     1       5.987   4.385  14.565  0.00  0.00    +0.000 A 
ATOM     14  C   UNL     1       5.816   4.765  15.945  0.00  0.00    +0.000 A 
ATOM     15  H   UNL     1       8.539   6.231  15.079  0.00  0.00    +0.000 HD
ENDBRANCH   1  14
BRANCH   3  16
ATOM     16  C   UNL     1       2.826   5.234  18.185  0.00  0.00    +0.000 C 
BRANCH  16  17
ATOM     17  C   UNL     1       2.308   6.513  18.788  0.00  0.00    +0.000 A 
ATOM     18  C   UNL     1       1.968   6.587  20.141  0.00  0.00    +0.000 A 
ATOM     19  C   UNL     1       1.518   7.790  20.706  0.00  0.00    +0.000 A 
ATOM     20  C   UNL     1       1.370   8.947  19.933  0.00  0.00    +0.000 A 
ATOM     21  C   UNL     1       1.704   8.859  18.572  0.00  0.00    +0.000 A 
ATOM     22  C   UNL     1       2.165   7.662  18.006  0.00  0.00    +0.000 A 
BRANCH  20  23
ATOM     23  N   UNL     1       0.883  10.168  20.484  0.00  0.00    +0.000 N 
ATOM     24  C   UNL     1       1.121  11.446  19.851  0.00  0.00    +0.000 C 
ATOM     25  C   UNL     1       0.690  12.470  20.879  0.00  0.00    +0.000 C 
ATOM     26  C   UNL     1      -0.400  11.762  21.656  0.00  0.00    +0.000 C 
ATOM     27  C   UNL     1      -0.021  10.303  21.548  0.00  0.00    +0.000 C 
ATOM     28  O   UNL     1      -0.500   9.446  22.277  0.00  0.00    +0.000 OA
ENDBRANCH  20  23
ENDBRANCH  16  17
ENDBRANCH   3  16
TORSDOF 4
ENDMDL
MODEL 5
REMARK VINA RESULT:      -8.6      2.660      8.928
REMARK  Name = 
REMARK  5 active torsions:
REMARK  status: ('A' for Active; 'I' for Inactive)
REMARK    1  A    between atoms: C_1  and  C_2
REMARK    2  A    between atoms: C_10  and  C_11
REMARK    3  A    between atoms: N_13  and  C_14
REMARK    4  A    between atoms: C_14  and  C_15
REMARK    5  A    between atoms: C_18  and  N_19
REMARK                            x       y       z     vdW  Elec       q    Type
REMARK                         _______ _______ _______ _____ _____    ______ ____
ROOT
ATOM      1  C   UNL     1      -0.881  11.500  19.926  0.00  0.00    +0.000 C 
ATOM      2  O   UNL     1      -0.106  12.406  20.214  0.00  0.00    +0.000 OA
ATOM      3  N   UNL     1      -0.608  10.181  20.211  0.00  0.00    +0.000 N 
ATOM      4  H   UNL     1      -1.368   9.520  20.166  0.00  0.00    +0.000 HD
ENDROOT
BRANCH   1  14
ATOM      5  C   UNL     1      -3.514  13.189  21.043  0.00  0.00    +0.000 C 
ATOM      6  C   UNL     1      -3.264  12.472  19.763  0.00  0.00    +0.000 A 
ATOM      7  N   UNL     1      -4.267  12.389  18.825  0.00  0.00    +0.000 N 
ATOM      8  C   UNL     1      -3.875  11.640  17.747  0.00  0.00    +0.000 A 
ATOM      9  C   UNL     1      -4.576  11.300  16.584  0.00  0.00    +0.000 A 
ATOM     10  C   UNL     1      -3.918  10.513  15.636  0.00  0.00    +0.000 A 
ATOM     11  C   UNL     1      -2.613  10.080  15.849  0.00  0.00    +0.000 A 
ATOM     12  C   UNL     1      -1.932  10.423  17.023  0.00  0.00    +0.000 A 
ATOM     13  C   UNL     1      -2.570  11.221  17.997  0.00  0.00    +0.000 A 
ATOM     14  C   UNL     1      -2.172  11.752  19.276  0.00  0.00    +0.000 A 
ATOM     15  H   UNL     1      -5.187  12.799  18.919  0.00  0.00    +0.000 HD
ENDBRANCH   1  14
BRANCH   3  16
ATOM     16  C   UNL     1       0.628   9.776  20.836  0.00  0.00    +0.000 C 
BRANCH  16  17
ATOM     17  C   UNL     1       1.367   8.732  20.040  0.00  0.00    +0.000 A 
ATOM     18  C   UNL     1       1.688   8.944  18.696  0.00  0.00    +0.000 A 
ATOM     19  C   UNL     1       2.406   7.984  17.967  0.00  0.00    +0.000 A 
ATOM     20  C   UNL     1       2.801   6.773  18.549  0.00  0.00    +0.000 A 
ATOM     21  C   UNL     1       2.463   6.566  19.896  0.00  0.00    +0.000 A 
ATOM     22  C   UNL     1       1.756   7.528  20.631  0.00  0.00    +0.000 A 
BRANCH  20  23
ATOM     23  N   UNL     1       3.501   5.774  17.813  0.00  0.00    +0.000 N 
ATOM     24  C   UNL     1       2.931   4.471  17.552  0.00  0.00    +0.000 C 
ATOM     25  C   UNL     1       4.080   3.652  17.004  0.00  0.00    +0.000 C 
ATOM     26  C   UNL     1       4.956   4.677  16.316  0.00  0.00    +0.000 C 
ATOM     27  C   UNL     1       4.693   5.947  17.093  0.00  0.00    +0.000 C 
ATOM     28  O   UNL     1       5.423   6.925  17.018  0.00  0.00    +0.000 OA
ENDBRANCH  20  23
ENDBRANCH  16  17
ENDBRANCH   3  16
TORSDOF 4
ENDMDL
MODEL 6
REMARK VINA RESULT:      -8.6      1.149      1.282
REMARK  Name = 
REMARK  5 active torsions:
REMARK  status: ('A' for Active; 'I' for Inactive)
REMARK    1  A    between atoms: C_1  and  C_2
REMARK    2  A    between atoms: C_10  and  C_11
REMARK    3  A    between atoms: N_13  and  C_14
REMARK    4  A    between atoms: C_14  and  C_15
REMARK    5  A    between atoms: C_18  and  N_19
REMARK                            x       y       z     vdW  Elec       q    Type
REMARK                         _______ _______ _______ _____ _____    ______ ____
ROOT
ATOM      1  C   UNL     1       3.883   6.472  17.739  0.00  0.00    +0.000 C 
ATOM      2  O   UNL     1       4.968   6.998  17.510  0.00  0.00    +0.000 OA
ATOM      3  N   UNL     1       2.713   7.194  17.793  0.00  0.00    +0.000 N 
ATOM      4  H   UNL     1       1.842   6.688  17.751  0.00  0.00    +0.000 HD
ENDROOT
BRANCH   1  14
ATOM      5  C   UNL     1       5.312   3.953  16.111  0.00  0.00    +0.000 C 
ATOM      6  C   UNL     1       4.361   3.984  17.255  0.00  0.00    +0.000 A 
ATOM      7  N   UNL     1       3.883   2.802  17.772  0.00  0.00    +0.000 N 
ATOM      8  C   UNL     1       2.976   3.031  18.772  0.00  0.00    +0.000 A 
ATOM      9  C   UNL     1       2.250   2.124  19.554  0.00  0.00    +0.000 A 
ATOM     10  C   UNL     1       1.383   2.647  20.517  0.00  0.00    +0.000 A 
ATOM     11  C   UNL     1       1.246   4.021  20.684  0.00  0.00    +0.000 A 
ATOM     12  C   UNL     1       1.974   4.912  19.886  0.00  0.00    +0.000 A 
ATOM     13  C   UNL     1       2.861   4.412  18.907  0.00  0.00    +0.000 A 
ATOM     14  C   UNL     1       3.745   5.026  17.949  0.00  0.00    +0.000 A 
ATOM     15  H   UNL     1       4.139   1.879  17.446  0.00  0.00    +0.000 HD
ENDBRANCH   1  14
BRANCH   3  16
ATOM     16  C   UNL     1       2.692   8.627  17.619  0.00  0.00    +0.000 C 
BRANCH  16  17
ATOM     17  C   UNL     1       1.787   9.317  18.606  0.00  0.00    +0.000 A 
ATOM     18  C   UNL     1       1.437  10.661  18.446  0.00  0.00    +0.000 A 
ATOM     19  C   UNL     1       0.567  11.291  19.349  0.00  0.00    +0.000 A 
ATOM     20  C   UNL     1       0.041  10.607  20.451  0.00  0.00    +0.000 A 
ATOM     21  C   UNL     1       0.409   9.261  20.609  0.00  0.00    +0.000 A 
ATOM     22  C   UNL     1       1.269   8.625  19.703  0.00  0.00    +0.000 A 
BRANCH  20  23
ATOM     23  N   UNL     1      -0.817  11.242  21.395  0.00  0.00    +0.000 N 
ATOM     24  C   UNL     1      -1.905  12.102  20.987  0.00  0.00    +0.000 C 
ATOM     25  C   UNL     1      -2.368  12.768  22.265  0.00  0.00    +0.000 C 
ATOM     26  C   UNL     1      -2.058  11.744  23.336  0.00  0.00    +0.000 C 
ATOM     27  C   UNL     1      -0.874  10.991  22.774  0.00  0.00    +0.000 C 
ATOM     28  O   UNL     1      -0.164  10.275  23.466  0.00  0.00    +0.000 OA
ENDBRANCH  20  23
ENDBRANCH  16  17
ENDBRANCH   3  16
TORSDOF 4
ENDMDL
MODEL 7
REMARK VINA RESULT:      -8.6      3.398      4.289
REMARK  Name = 
REMARK  5 active torsions:
REMARK  status: ('A' for Active; 'I' for Inactive)
REMARK    1  A    between atoms: C_1  and  C_2
REMARK    2  A    between atoms: C_10  and  C_11
REMARK    3  A    between atoms: N_13  and  C_14
REMARK    4  A    between atoms: C_14  and  C_15
REMARK    5  A    between atoms: C_18  and  N_19
REMARK                            x       y       z     vdW  Elec       q    Type
REMARK                         _______ _______ _______ _____ _____    ______ ____
ROOT
ATOM      1  C   UNL     1       4.897   4.146  16.820  0.00  0.00    +0.000 C 
ATOM      2  O   UNL     1       4.626   2.955  16.938  0.00  0.00    +0.000 OA
ATOM      3  N   UNL     1       4.231   5.125  17.521  0.00  0.00    +0.000 N 
ATOM      4  H   UNL     1       4.645   6.044  17.561  0.00  0.00    +0.000 HD
ENDROOT
BRANCH   1  14
ATOM      5  C   UNL     1       7.378   6.261  17.458  0.00  0.00    +0.000 C 
ATOM      6  C   UNL     1       7.008   5.505  16.230  0.00  0.00    +0.000 A 
ATOM      7  N   UNL     1       7.734   5.689  15.076  0.00  0.00    +0.000 N 
ATOM      8  C   UNL     1       7.208   4.962  14.040  0.00  0.00    +0.000 A 
ATOM      9  C   UNL     1       7.625   4.863  12.707  0.00  0.00    +0.000 A 
ATOM     10  C   UNL     1       6.890   4.031  11.859  0.00  0.00    +0.000 A 
ATOM     11  C   UNL     1       5.780   3.334  12.325  0.00  0.00    +0.000 A 
ATOM     12  C   UNL     1       5.375   3.454  13.660  0.00  0.00    +0.000 A 
ATOM     13  C   UNL     1       6.101   4.283  14.543  0.00  0.00    +0.000 A 
ATOM     14  C   UNL     1       5.970   4.619  15.938  0.00  0.00    +0.000 A 
ATOM     15  H   UNL     1       8.535   6.299  14.984  0.00  0.00    +0.000 HD
ENDBRANCH   1  14
BRANCH   3  16
ATOM     16  C   UNL     1       3.143   4.815  18.417  0.00  0.00    +0.000 C 
BRANCH  16  17
ATOM     17  C   UNL     1       2.501   6.048  18.999  0.00  0.00    +0.000 A 
ATOM     18  C   UNL     1       2.536   7.268  18.319  0.00  0.00    +0.000 A 
ATOM     19  C   UNL     1       1.907   8.405  18.849  0.00  0.00    +0.000 A 
ATOM     20  C   UNL     1       1.248   8.365  20.083  0.00  0.00    +0.000 A 
ATOM     21  C   UNL     1       1.229   7.137  20.763  0.00  0.00    +0.000 A 
ATOM     22  C   UNL     1       1.845   5.995  20.231  0.00  0.00    +0.000 A 
BRANCH  20  23
ATOM     23  N   UNL     1       0.633   9.520  20.650  0.00  0.00    +0.000 N 
ATOM     24  C   UNL     1      -0.430  10.232  19.977  0.00  0.00    +0.000 C 
ATOM     25  C   UNL     1      -0.594  11.512  20.767  0.00  0.00    +0.000 C 
ATOM     26  C   UNL     1      -0.188  11.121  22.173  0.00  0.00    +0.000 C 
ATOM     27  C   UNL     1       0.804  10.001  21.956  0.00  0.00    +0.000 C 
ATOM     28  O   UNL     1       1.560   9.616  22.836  0.00  0.00    +0.000 OA
ENDBRANCH  20  23
ENDBRANCH  16  17
ENDBRANCH   3  16
TORSDOF 4
ENDMDL
MODEL 8
REMARK VINA RESULT:      -8.5      3.392      4.319
REMARK  Name = 
REMARK  5 active torsions:
REMARK  status: ('A' for Active; 'I' for Inactive)
REMARK    1  A    between atoms: C_1  and  C_2
REMARK    2  A    between atoms: C_10  and  C_11
REMARK    3  A    between atoms: N_13  and  C_14
REMARK    4  A    between atoms: C_14  and  C_15
REMARK    5  A    between atoms: C_18  and  N_19
REMARK                            x       y       z     vdW  Elec       q    Type
REMARK                         _______ _______ _______ _____ _____    ______ ____
ROOT
ATOM      1  C   UNL     1       4.680   4.653  16.944  0.00  0.00    +0.000 C 
ATOM      2  O   UNL     1       4.214   3.528  17.096  0.00  0.00    +0.000 OA
ATOM      3  N   UNL     1       4.190   5.748  17.618  0.00  0.00    +0.000 N 
ATOM      4  H   UNL     1       4.751   6.585  17.633  0.00  0.00    +0.000 HD
ENDROOT
BRANCH   1  14
ATOM      5  C   UNL     1       7.400   6.487  17.465  0.00  0.00    +0.000 C 
ATOM      6  C   UNL     1       6.952   5.686  16.294  0.00  0.00    +0.000 A 
ATOM      7  N   UNL     1       7.708   5.683  15.144  0.00  0.00    +0.000 N 
ATOM      8  C   UNL     1       7.106   4.945  14.159  0.00  0.00    +0.000 A 
ATOM      9  C   UNL     1       7.522   4.687  12.847  0.00  0.00    +0.000 A 
ATOM     10  C   UNL     1       6.698   3.887  12.052  0.00  0.00    +0.000 A 
ATOM     11  C   UNL     1       5.504   3.374  12.549  0.00  0.00    +0.000 A 
ATOM     12  C   UNL     1       5.102   3.651  13.861  0.00  0.00    +0.000 A 
ATOM     13  C   UNL     1       5.917   4.453  14.690  0.00  0.00    +0.000 A 
ATOM     14  C   UNL     1       5.814   4.915  16.051  0.00  0.00    +0.000 A 
ATOM     15  H   UNL     1       8.580   6.179  15.021  0.00  0.00    +0.000 HD
ENDBRANCH   1  14
BRANCH   3  16
ATOM     16  C   UNL     1       3.068   5.649  18.521  0.00  0.00    +0.000 C 
BRANCH  16  17
ATOM     17  C   UNL     1       2.407   6.979  18.774  0.00  0.00    +0.000 A 
ATOM     18  C   UNL     1       1.962   7.332  20.051  0.00  0.00    +0.000 A 
ATOM     19  C   UNL     1       1.378   8.586  20.288  0.00  0.00    +0.000 A 
ATOM     20  C   UNL     1       1.198   9.513  19.255  0.00  0.00    +0.000 A 
ATOM     21  C   UNL     1       1.638   9.143  17.974  0.00  0.00    +0.000 A 
ATOM     22  C   UNL     1       2.233   7.897  17.735  0.00  0.00    +0.000 A 
BRANCH  20  23
ATOM     23  N   UNL     1       0.576  10.777  19.474  0.00  0.00    +0.000 N 
ATOM     24  C   UNL     1      -0.650  10.911  20.228  0.00  0.00    +0.000 C 
ATOM     25  C   UNL     1      -1.097  12.336  19.985  0.00  0.00    +0.000 C 
ATOM     26  C   UNL     1       0.200  13.086  19.765  0.00  0.00    +0.000 C 
ATOM     27  C   UNL     1       1.123  12.038  19.189  0.00  0.00    +0.000 C 
ATOM     28  O   UNL     1       2.168  12.324  18.622  0.00  0.00    +0.000 OA
ENDBRANCH  20  23
ENDBRANCH  16  17
ENDBRANCH   3  16
TORSDOF 4
ENDMDL
MODEL 9
REMARK VINA RESULT:      -8.5      2.566      8.819
REMARK  Name = 
REMARK  5 active torsions:
REMARK  status: ('A' for Active; 'I' for Inactive)
REMARK    1  A    between atoms: C_1  and  C_2
REMARK    2  A    between atoms: C_10  and  C_11
REMARK    3  A    between atoms: N_13  and  C_14
REMARK    4  A    between atoms: C_14  and  C_15
REMARK    5  A    between atoms: C_18  and  N_19
REMARK                            x       y       z     vdW  Elec       q    Type
REMARK                         _______ _______ _______ _____ _____    ______ ____
ROOT
ATOM      1  C   UNL     1      -0.495  11.059  20.033  0.00  0.00    +0.000 C 
ATOM      2  O   UNL     1       0.470  11.807  20.148  0.00  0.00    +0.000 OA
ATOM      3  N   UNL     1      -0.495   9.777  20.534  0.00  0.00    +0.000 N 
ATOM      4  H   UNL     1      -1.380   9.300  20.616  0.00  0.00    +0.000 HD
ENDROOT
BRANCH   1  14
ATOM      5  C   UNL     1      -2.833  13.173  21.082  0.00  0.00    +0.000 C 
ATOM      6  C   UNL     1      -2.703  12.377  19.832  0.00  0.00    +0.000 A 
ATOM      7  N   UNL     1      -3.712  12.412  18.897  0.00  0.00    +0.000 N 
ATOM      8  C   UNL     1      -3.445  11.571  17.849  0.00  0.00    +0.000 A 
ATOM      9  C   UNL     1      -4.197  11.298  16.700  0.00  0.00    +0.000 A 
ATOM     10  C   UNL     1      -3.671  10.383  15.784  0.00  0.00    +0.000 A 
ATOM     11  C   UNL     1      -2.447   9.764  16.014  0.00  0.00    +0.000 A 
ATOM     12  C   UNL     1      -1.714  10.044  17.174  0.00  0.00    +0.000 A 
ATOM     13  C   UNL     1      -2.218  10.968  18.116  0.00  0.00    +0.000 A 
ATOM     14  C   UNL     1      -1.736  11.480  19.374  0.00  0.00    +0.000 A 
ATOM     15  H   UNL     1      -4.558  12.961  18.975  0.00  0.00    +0.000 HD
ENDBRANCH   1  14
BRANCH   3  16
ATOM     16  C   UNL     1       0.658   9.217  21.196  0.00  0.00    +0.000 C 
BRANCH  16  17
ATOM     17  C   UNL     1       1.428   8.267  20.316  0.00  0.00    +0.000 A 
ATOM     18  C   UNL     1       1.803   7.001  20.776  0.00  0.00    +0.000 A 
ATOM     19  C   UNL     1       2.490   6.107  19.941  0.00  0.00    +0.000 A 
ATOM     20  C   UNL     1       2.846   6.457  18.633  0.00  0.00    +0.000 A 
ATOM     21  C   UNL     1       2.475   7.736  18.186  0.00  0.00    +0.000 A 
ATOM     22  C   UNL     1       1.778   8.628  19.013  0.00  0.00    +0.000 A 
BRANCH  20  23
ATOM     23  N   UNL     1       3.573   5.573  17.784  0.00  0.00    +0.000 N 
ATOM     24  C   UNL     1       3.087   4.252  17.455  0.00  0.00    +0.000 C 
ATOM     25  C   UNL     1       4.257   3.568  16.783  0.00  0.00    +0.000 C 
ATOM     26  C   UNL     1       5.011   4.707  16.129  0.00  0.00    +0.000 C 
ATOM     27  C   UNL     1       4.702   5.891  17.015  0.00  0.00    +0.000 C 
ATOM     28  O   UNL     1       5.350   6.928  16.975  0.00  0.00    +0.000 OA
ENDBRANCH  20  23
ENDBRANCH  16  17
ENDBRANCH   3  16
TORSDOF 4
ENDMDL
