MODEL 1
REMARK VINA RESULT:      -7.0      0.000      0.000
REMARK  Name = 
REMARK  7 active torsions:
REMARK  status: ('A' for Active; 'I' for Inactive)
REMARK    1  A    between atoms: C_1  and  O_2
REMARK    2  A    between atoms: O_2  and  C_3
REMARK    3  A    between atoms: C_7  and  C_8
REMARK    4  A    between atoms: C_9  and  C_10
REMARK    5  A    between atoms: C_10  and  O_12
REMARK    6  A    between atoms: N_21  and  C_22
REMARK    7  A    between atoms: C_22  and  C_23
REMARK                            x       y       z     vdW  Elec       q    Type
REMARK                         _______ _______ _______ _____ _____    ______ ____
ROOT
ATOM      1  C   UNL     1       0.482  11.649  18.506  0.00  0.00    +0.000 C 
ATOM      2  C   UNL     1      -1.029  11.927  18.690  0.00  0.00    +0.000 C 
ATOM      3  C   UNL     1      -1.413  12.146  20.145  0.00  0.00    +0.000 A 
ATOM      4  C   UNL     1      -2.738  12.415  20.526  0.00  0.00    +0.000 A 
ATOM      5  C   UNL     1      -3.040  12.789  21.840  0.00  0.00    +0.000 A 
ATOM      6  C   UNL     1      -2.035  12.869  22.801  0.00  0.00    +0.000 A 
ATOM      7  C   UNL     1      -0.710  12.652  22.435  0.00  0.00    +0.000 A 
ATOM      8  C   UNL     1      -0.395  12.360  21.102  0.00  0.00    +0.000 A 
ATOM      9  C   UNL     1       1.025  12.597  20.670  0.00  0.00    +0.000 C 
ATOM     10  O   UNL     1       1.889  12.900  21.482  0.00  0.00    +0.000 OA
ATOM     11  N   UNL     1       1.220  12.669  19.283  0.00  0.00    +0.000 N 
ENDROOT
BRANCH   1  16
ATOM     12  C   UNL     1       1.553   8.137  19.889  0.00  0.00    +0.000 A 
ATOM     13  C   UNL     1       2.336   7.700  18.821  0.00  0.00    +0.000 A 
ATOM     14  C   UNL     1       2.573   8.544  17.747  0.00  0.00    +0.000 A 
ATOM     15  C   UNL     1       1.990   9.811  17.719  0.00  0.00    +0.000 A 
ATOM     16  C   UNL     1       1.131  10.270  18.744  0.00  0.00    +0.000 A 
ATOM     17  C   UNL     1       0.938   9.411  19.841  0.00  0.00    +0.000 A 
BRANCH  12  19
ATOM     18  C   UNL     1       1.576   5.979  20.890  0.00  0.00    +0.000 C 
ATOM     19  O   UNL     1       1.300   7.379  21.008  0.00  0.00    +0.000 OA
ENDBRANCH  12  19
ENDBRANCH   1  16
BRANCH   2  20
ATOM     20  C   UNL     1      -1.859  11.083  17.765  0.00  0.00    +0.000 C 
ATOM     21  O   UNL     1      -2.276   9.978  18.110  0.00  0.00    +0.000 OA
BRANCH  20  22
ATOM     22  O   UNL     1      -2.107  11.558  16.534  0.00  0.00    +0.000 OA
ATOM     23  H   UNL     1      -1.639  11.110  15.804  0.00  0.00    +0.000 HD
ENDBRANCH  20  22
ENDBRANCH   2  20
BRANCH  11  24
ATOM     24  C   UNL     1       1.151  14.040  18.762  0.00  0.00    +0.000 C 
BRANCH  24  25
ATOM     25  C   UNL     1       2.427  14.837  18.736  0.00  0.00    +0.000 A 
ATOM     26  C   UNL     1       3.558  14.459  18.006  0.00  0.00    +0.000 A 
ATOM     27  C   UNL     1       4.669  15.301  17.949  0.00  0.00    +0.000 A 
ATOM     28  C   UNL     1       4.655  16.512  18.630  0.00  0.00    +0.000 A 
ATOM     29  F   UNL     1       5.705  17.338  18.534  0.00  0.00    +0.000 F 
ATOM     30  C   UNL     1       3.566  16.884  19.405  0.00  0.00    +0.000 A 
ATOM     31  C   UNL     1       2.456  16.045  19.463  0.00  0.00    +0.000 A 
ENDBRANCH  24  25
ENDBRANCH  11  24
TORSDOF 6
ENDMDL
MODEL 2
REMARK VINA RESULT:      -7.0      2.977      6.172
REMARK  Name = 
REMARK  7 active torsions:
REMARK  status: ('A' for Active; 'I' for Inactive)
REMARK    1  A    between atoms: C_1  and  O_2
REMARK    2  A    between atoms: O_2  and  C_3
REMARK    3  A    between atoms: C_7  and  C_8
REMARK    4  A    between atoms: C_9  and  C_10
REMARK    5  A    between atoms: C_10  and  O_12
REMARK    6  A    between atoms: N_21  and  C_22
REMARK    7  A    between atoms: C_22  and  C_23
REMARK                            x       y       z     vdW  Elec       q    Type
REMARK                         _______ _______ _______ _____ _____    ______ ____
ROOT
ATOM      1  C   UNL     1      -0.818  11.196  19.607  0.00  0.00    +0.000 C 
ATOM      2  C   UNL     1       0.706  11.255  19.348  0.00  0.00    +0.000 C 
ATOM      3  C   UNL     1       1.182  12.642  18.945  0.00  0.00    +0.000 A 
ATOM      4  C   UNL     1       2.533  12.907  18.666  0.00  0.00    +0.000 A 
ATOM      5  C   UNL     1       2.976  14.220  18.473  0.00  0.00    +0.000 A 
ATOM      6  C   UNL     1       2.078  15.284  18.522  0.00  0.00    +0.000 A 
ATOM      7  C   UNL     1       0.744  15.048  18.842  0.00  0.00    +0.000 A 
ATOM      8  C   UNL     1       0.314  13.745  19.118  0.00  0.00    +0.000 A 
ATOM      9  C   UNL     1      -0.965  13.599  19.894  0.00  0.00    +0.000 C 
ATOM     10  O   UNL     1      -1.661  14.572  20.150  0.00  0.00    +0.000 OA
ATOM     11  N   UNL     1      -1.165  12.339  20.479  0.00  0.00    +0.000 N 
ENDROOT
BRANCH   1  16
ATOM     12  C   UNL     1      -2.819  10.350  16.340  0.00  0.00    +0.000 A 
ATOM     13  C   UNL     1      -4.056  10.893  16.683  0.00  0.00    +0.000 A 
ATOM     14  C   UNL     1      -4.203  11.577  17.880  0.00  0.00    +0.000 A 
ATOM     15  C   UNL     1      -3.124  11.679  18.757  0.00  0.00    +0.000 A 
ATOM     16  C   UNL     1      -1.871  11.083  18.484  0.00  0.00    +0.000 A 
ATOM     17  C   UNL     1      -1.735  10.429  17.248  0.00  0.00    +0.000 A 
BRANCH  12  19
ATOM     18  C   UNL     1      -3.447  10.023  14.069  0.00  0.00    +0.000 C 
ATOM     19  O   UNL     1      -2.578   9.691  15.157  0.00  0.00    +0.000 OA
ENDBRANCH  12  19
ENDBRANCH   1  16
BRANCH   2  20
ATOM     20  C   UNL     1       1.193  10.013  18.655  0.00  0.00    +0.000 C 
ATOM     21  O   UNL     1       1.223   8.928  19.235  0.00  0.00    +0.000 OA
BRANCH  20  22
ATOM     22  O   UNL     1       1.627  10.129  17.389  0.00  0.00    +0.000 OA
ATOM     23  H   UNL     1       1.000   9.843  16.698  0.00  0.00    +0.000 HD
ENDBRANCH  20  22
ENDBRANCH   2  20
BRANCH  11  24
ATOM     24  C   UNL     1      -0.671  12.261  21.859  0.00  0.00    +0.000 C 
BRANCH  24  25
ATOM     25  C   UNL     1      -1.404  13.058  22.904  0.00  0.00    +0.000 A 
ATOM     26  C   UNL     1      -0.880  14.206  23.507  0.00  0.00    +0.000 A 
ATOM     27  C   UNL     1      -1.660  14.950  24.393  0.00  0.00    +0.000 A 
ATOM     28  C   UNL     1      -2.955  14.542  24.686  0.00  0.00    +0.000 A 
ATOM     29  F   UNL     1      -3.716  15.284  25.500  0.00  0.00    +0.000 F 
ATOM     30  C   UNL     1      -3.478  13.377  24.142  0.00  0.00    +0.000 A 
ATOM     31  C   UNL     1      -2.701  12.633  23.257  0.00  0.00    +0.000 A 
ENDBRANCH  24  25
ENDBRANCH  11  24
TORSDOF 6
ENDMDL
MODEL 3
REMARK VINA RESULT:      -6.9      3.042      6.171
REMARK  Name = 
REMARK  7 active torsions:
REMARK  status: ('A' for Active; 'I' for Inactive)
REMARK    1  A    between atoms: C_1  and  O_2
REMARK    2  A    between atoms: O_2  and  C_3
REMARK    3  A    between atoms: C_7  and  C_8
REMARK    4  A    between atoms: C_9  and  C_10
REMARK    5  A    between atoms: C_10  and  O_12
REMARK    6  A    between atoms: N_21  and  C_22
REMARK    7  A    between atoms: C_22  and  C_23
REMARK                            x       y       z     vdW  Elec       q    Type
REMARK                         _______ _______ _______ _____ _____    ______ ____
ROOT
ATOM      1  C   UNL     1      -0.881  11.004  19.578  0.00  0.00    +0.000 C 
ATOM      2  C   UNL     1       0.639  11.174  19.343  0.00  0.00    +0.000 C 
ATOM      3  C   UNL     1       1.024  12.601  18.985  0.00  0.00    +0.000 A 
ATOM      4  C   UNL     1       2.357  12.965  18.734  0.00  0.00    +0.000 A 
ATOM      5  C   UNL     1       2.711  14.310  18.584  0.00  0.00    +0.000 A 
ATOM      6  C   UNL     1       1.742  15.308  18.649  0.00  0.00    +0.000 A 
ATOM      7  C   UNL     1       0.424  14.974  18.943  0.00  0.00    +0.000 A 
ATOM      8  C   UNL     1       0.081  13.637  19.177  0.00  0.00    +0.000 A 
ATOM      9  C   UNL     1      -1.195  13.382  19.930  0.00  0.00    +0.000 C 
ATOM     10  O   UNL     1      -1.959  14.298  20.203  0.00  0.00    +0.000 OA
ATOM     11  N   UNL     1      -1.316  12.096  20.476  0.00  0.00    +0.000 N 
ENDROOT
BRANCH   1  16
ATOM     12  C   UNL     1      -3.966  11.308  17.173  0.00  0.00    +0.000 A 
ATOM     13  C   UNL     1      -3.518  10.504  16.125  0.00  0.00    +0.000 A 
ATOM     14  C   UNL     1      -2.312   9.829  16.238  0.00  0.00    +0.000 A 
ATOM     15  C   UNL     1      -1.531   9.992  17.381  0.00  0.00    +0.000 A 
ATOM     16  C   UNL     1      -1.910  10.852  18.438  0.00  0.00    +0.000 A 
ATOM     17  C   UNL     1      -3.154  11.495  18.317  0.00  0.00    +0.000 A 
BRANCH  12  19
ATOM     18  C   UNL     1      -6.200  11.432  17.981  0.00  0.00    +0.000 C 
ATOM     19  O   UNL     1      -5.165  11.980  17.158  0.00  0.00    +0.000 OA
ENDBRANCH  12  19
ENDBRANCH   1  16
BRANCH   2  20
ATOM     20  C   UNL     1       1.218   9.988  18.622  0.00  0.00    +0.000 C 
ATOM     21  O   UNL     1       1.277   8.882  19.158  0.00  0.00    +0.000 OA
BRANCH  20  22
ATOM     22  O   UNL     1       1.702  10.180  17.385  0.00  0.00    +0.000 OA
ATOM     23  H   UNL     1       1.359  10.963  16.912  0.00  0.00    +0.000 HD
ENDBRANCH  20  22
ENDBRANCH   2  20
BRANCH  11  24
ATOM     24  C   UNL     1      -0.835  12.011  21.861  0.00  0.00    +0.000 C 
BRANCH  24  25
ATOM     25  C   UNL     1      -1.526  12.866  22.888  0.00  0.00    +0.000 A 
ATOM     26  C   UNL     1      -0.948  14.003  23.461  0.00  0.00    +0.000 A 
ATOM     27  C   UNL     1      -1.690  14.803  24.332  0.00  0.00    +0.000 A 
ATOM     28  C   UNL     1      -3.001  14.462  24.638  0.00  0.00    +0.000 A 
ATOM     29  F   UNL     1      -3.724  15.257  25.437  0.00  0.00    +0.000 F 
ATOM     30  C   UNL     1      -3.579  13.309  24.125  0.00  0.00    +0.000 A 
ATOM     31  C   UNL     1      -2.840  12.509  23.256  0.00  0.00    +0.000 A 
ENDBRANCH  24  25
ENDBRANCH  11  24
TORSDOF 6
ENDMDL
MODEL 4
REMARK VINA RESULT:      -6.8      2.296      4.491
REMARK  Name = 
REMARK  7 active torsions:
REMARK  status: ('A' for Active; 'I' for Inactive)
REMARK    1  A    between atoms: C_1  and  O_2
REMARK    2  A    between atoms: O_2  and  C_3
REMARK    3  A    between atoms: C_7  and  C_8
REMARK    4  A    between atoms: C_9  and  C_10
REMARK    5  A    between atoms: C_10  and  O_12
REMARK    6  A    between atoms: N_21  and  C_22
REMARK    7  A    between atoms: C_22  and  C_23
REMARK                            x       y       z     vdW  Elec       q    Type
REMARK                         _______ _______ _______ _____ _____    ______ ____
ROOT
ATOM      1  C   UNL     1      -1.336  12.873  20.063  0.00  0.00    +0.000 C 
ATOM      2  C   UNL     1      -1.420  12.465  21.553  0.00  0.00    +0.000 C 
ATOM      3  C   UNL     1      -0.748  11.130  21.836  0.00  0.00    +0.000 A 
ATOM      4  C   UNL     1      -0.712  10.581  23.129  0.00  0.00    +0.000 A 
ATOM      5  C   UNL     1       0.061   9.447  23.400  0.00  0.00    +0.000 A 
ATOM      6  C   UNL     1       0.783   8.825  22.384  0.00  0.00    +0.000 A 
ATOM      7  C   UNL     1       0.799   9.379  21.108  0.00  0.00    +0.000 A 
ATOM      8  C   UNL     1       0.093  10.561  20.853  0.00  0.00    +0.000 A 
ATOM      9  C   UNL     1       0.505  11.354  19.645  0.00  0.00    +0.000 C 
ATOM     10  O   UNL     1       1.326  10.913  18.851  0.00  0.00    +0.000 OA
ATOM     11  N   UNL     1       0.064  12.686  19.629  0.00  0.00    +0.000 N 
ENDROOT
BRANCH   1  16
ATOM     12  C   UNL     1      -2.896  11.256  16.847  0.00  0.00    +0.000 A 
ATOM     13  C   UNL     1      -4.233  11.214  17.238  0.00  0.00    +0.000 A 
ATOM     14  C   UNL     1      -4.616  11.766  18.451  0.00  0.00    +0.000 A 
ATOM     15  C   UNL     1      -3.655  12.320  19.295  0.00  0.00    +0.000 A 
ATOM     16  C   UNL     1      -2.278  12.321  18.973  0.00  0.00    +0.000 A 
ATOM     17  C   UNL     1      -1.920  11.791  17.721  0.00  0.00    +0.000 A 
BRANCH  12  19
ATOM     18  C   UNL     1      -3.444  10.328  14.726  0.00  0.00    +0.000 C 
ATOM     19  O   UNL     1      -2.438  10.766  15.646  0.00  0.00    +0.000 OA
ENDBRANCH  12  19
ENDBRANCH   1  16
BRANCH   2  20
ATOM     20  C   UNL     1      -2.752  12.828  22.148  0.00  0.00    +0.000 C 
ATOM     21  O   UNL     1      -3.498  11.968  22.617  0.00  0.00    +0.000 OA
BRANCH  20  22
ATOM     22  O   UNL     1      -3.120  14.118  22.123  0.00  0.00    +0.000 OA
ATOM     23  H   UNL     1      -3.058  14.560  21.255  0.00  0.00    +0.000 HD
ENDBRANCH  20  22
ENDBRANCH   2  20
BRANCH  11  24
ATOM     24  C   UNL     1       1.040  13.621  20.202  0.00  0.00    +0.000 C 
BRANCH  24  25
ATOM     25  C   UNL     1       1.658  14.633  19.276  0.00  0.00    +0.000 A 
ATOM     26  C   UNL     1       2.806  14.385  18.518  0.00  0.00    +0.000 A 
ATOM     27  C   UNL     1       3.262  15.337  17.604  0.00  0.00    +0.000 A 
ATOM     28  C   UNL     1       2.578  16.538  17.457  0.00  0.00    +0.000 A 
ATOM     29  F   UNL     1       2.991  17.428  16.546  0.00  0.00    +0.000 F 
ATOM     30  C   UNL     1       1.468  16.829  18.236  0.00  0.00    +0.000 A 
ATOM     31  C   UNL     1       1.012  15.880  19.149  0.00  0.00    +0.000 A 
ENDBRANCH  24  25
ENDBRANCH  11  24
TORSDOF 6
ENDMDL
MODEL 5
REMARK VINA RESULT:      -6.8      1.139      1.772
REMARK  Name = 
REMARK  7 active torsions:
REMARK  status: ('A' for Active; 'I' for Inactive)
REMARK    1  A    between atoms: C_1  and  O_2
REMARK    2  A    between atoms: O_2  and  C_3
REMARK    3  A    between atoms: C_7  and  C_8
REMARK    4  A    between atoms: C_9  and  C_10
REMARK    5  A    between atoms: C_10  and  O_12
REMARK    6  A    between atoms: N_21  and  C_22
REMARK    7  A    between atoms: C_22  and  C_23
REMARK                            x       y       z     vdW  Elec       q    Type
REMARK                         _______ _______ _______ _____ _____    ______ ____
ROOT
ATOM      1  C   UNL     1      -0.124  11.792  18.730  0.00  0.00    +0.000 C 
ATOM      2  C   UNL     1      -1.644  12.016  18.546  0.00  0.00    +0.000 C 
ATOM      3  C   UNL     1      -2.371  12.228  19.865  0.00  0.00    +0.000 A 
ATOM      4  C   UNL     1      -3.757  12.450  19.915  0.00  0.00    +0.000 A 
ATOM      5  C   UNL     1      -4.376  12.819  21.115  0.00  0.00    +0.000 A 
ATOM      6  C   UNL     1      -3.632  12.940  22.286  0.00  0.00    +0.000 A 
ATOM      7  C   UNL     1      -2.252  12.771  22.249  0.00  0.00    +0.000 A 
ATOM      8  C   UNL     1      -1.618  12.483  21.034  0.00  0.00    +0.000 A 
ATOM      9  C   UNL     1      -0.145  12.770  20.949  0.00  0.00    +0.000 C 
ATOM     10  O   UNL     1       0.490  13.108  21.939  0.00  0.00    +0.000 OA
ATOM     11  N   UNL     1       0.372  12.842  19.646  0.00  0.00    +0.000 N 
ENDROOT
BRANCH   1  16
ATOM     12  C   UNL     1       1.948   8.466  18.933  0.00  0.00    +0.000 A 
ATOM     13  C   UNL     1       1.603   8.061  20.222  0.00  0.00    +0.000 A 
ATOM     14  C   UNL     1       0.675   8.789  20.950  0.00  0.00    +0.000 A 
ATOM     15  C   UNL     1       0.124   9.949  20.408  0.00  0.00    +0.000 A 
ATOM     16  C   UNL     1       0.497  10.438  19.135  0.00  0.00    +0.000 A 
ATOM     17  C   UNL     1       1.410   9.662  18.400  0.00  0.00    +0.000 A 
BRANCH  12  19
ATOM     18  C   UNL     1       3.121   6.437  18.526  0.00  0.00    +0.000 C 
ATOM     19  O   UNL     1       2.830   7.782  18.130  0.00  0.00    +0.000 OA
ENDBRANCH  12  19
ENDBRANCH   1  16
BRANCH   2  20
ATOM     20  C   UNL     1      -2.201  11.138  17.461  0.00  0.00    +0.000 C 
ATOM     21  O   UNL     1      -2.591   9.995  17.702  0.00  0.00    +0.000 OA
BRANCH  20  22
ATOM     22  O   UNL     1      -2.230  11.626  16.211  0.00  0.00    +0.000 OA
ATOM     23  H   UNL     1      -2.398  10.973  15.505  0.00  0.00    +0.000 HD
ENDBRANCH  20  22
ENDBRANCH   2  20
BRANCH  11  24
ATOM     24  C   UNL     1       0.382  14.207  19.106  0.00  0.00    +0.000 C 
BRANCH  24  25
ATOM     25  C   UNL     1       1.716  14.800  18.744  0.00  0.00    +0.000 A 
ATOM     26  C   UNL     1       1.928  16.170  18.561  0.00  0.00    +0.000 A 
ATOM     27  C   UNL     1       3.216  16.655  18.327  0.00  0.00    +0.000 A 
ATOM     28  C   UNL     1       4.287  15.773  18.263  0.00  0.00    +0.000 A 
ATOM     29  F   UNL     1       5.527  16.247  18.085  0.00  0.00    +0.000 F 
ATOM     30  C   UNL     1       4.095  14.404  18.388  0.00  0.00    +0.000 A 
ATOM     31  C   UNL     1       2.810  13.918  18.622  0.00  0.00    +0.000 A 
ENDBRANCH  24  25
ENDBRANCH  11  24
TORSDOF 6
ENDMDL
MODEL 6
REMARK VINA RESULT:      -6.7      1.459      1.873
REMARK  Name = 
REMARK  7 active torsions:
REMARK  status: ('A' for Active; 'I' for Inactive)
REMARK    1  A    between atoms: C_1  and  O_2
REMARK    2  A    between atoms: O_2  and  C_3
REMARK    3  A    between atoms: C_7  and  C_8
REMARK    4  A    between atoms: C_9  and  C_10
REMARK    5  A    between atoms: C_10  and  O_12
REMARK    6  A    between atoms: N_21  and  C_22
REMARK    7  A    between atoms: C_22  and  C_23
REMARK                            x       y       z     vdW  Elec       q    Type
REMARK                         _______ _______ _______ _____ _____    ______ ____
ROOT
ATOM      1  C   UNL     1      -0.488  12.003  18.822  0.00  0.00    +0.000 C 
ATOM      2  C   UNL     1      -1.981  12.018  18.414  0.00  0.00    +0.000 C 
ATOM      3  C   UNL     1      -2.914  12.167  19.606  0.00  0.00    +0.000 A 
ATOM      4  C   UNL     1      -4.309  12.205  19.450  0.00  0.00    +0.000 A 
ATOM      5  C   UNL     1      -5.139  12.520  20.532  0.00  0.00    +0.000 A 
ATOM      6  C   UNL     1      -4.596  12.769  21.790  0.00  0.00    +0.000 A 
ATOM      7  C   UNL     1      -3.214  12.783  21.956  0.00  0.00    +0.000 A 
ATOM      8  C   UNL     1      -2.379  12.550  20.857  0.00  0.00    +0.000 A 
ATOM      9  C   UNL     1      -0.957  13.026  20.968  0.00  0.00    +0.000 C 
ATOM     10  O   UNL     1      -0.523  13.472  22.022  0.00  0.00    +0.000 OA
ATOM     11  N   UNL     1      -0.269  13.132  19.750  0.00  0.00    +0.000 N 
ENDROOT
BRANCH   1  16
ATOM     12  C   UNL     1       0.853   9.044  21.023  0.00  0.00    +0.000 A 
ATOM     13  C   UNL     1       1.535   8.323  20.044  0.00  0.00    +0.000 A 
ATOM     14  C   UNL     1       1.626   8.823  18.755  0.00  0.00    +0.000 A 
ATOM     15  C   UNL     1       0.997  10.024  18.430  0.00  0.00    +0.000 A 
ATOM     16  C   UNL     1       0.234  10.754  19.371  0.00  0.00    +0.000 A 
ATOM     17  C   UNL     1       0.188  10.247  20.681  0.00  0.00    +0.000 A 
BRANCH  12  19
ATOM     18  C   UNL     1      -0.035   9.481  23.186  0.00  0.00    +0.000 C 
ATOM     19  O   UNL     1       0.747   8.639  22.333  0.00  0.00    +0.000 OA
ENDBRANCH  12  19
ENDBRANCH   1  16
BRANCH   2  20
ATOM     20  C   UNL     1      -2.257  11.046  17.302  0.00  0.00    +0.000 C 
ATOM     21  O   UNL     1      -2.440   9.850  17.530  0.00  0.00    +0.000 OA
BRANCH  20  22
ATOM     22  O   UNL     1      -2.265  11.515  16.045  0.00  0.00    +0.000 OA
ATOM     23  H   UNL     1      -2.459  12.467  15.949  0.00  0.00    +0.000 HD
ENDBRANCH  20  22
ENDBRANCH   2  20
BRANCH  11  24
ATOM     24  C   UNL     1      -0.353  14.472  19.156  0.00  0.00    +0.000 C 
BRANCH  24  25
ATOM     25  C   UNL     1       0.938  15.158  18.805  0.00  0.00    +0.000 A 
ATOM     26  C   UNL     1       2.156  14.485  18.662  0.00  0.00    +0.000 A 
ATOM     27  C   UNL     1       3.292  15.174  18.235  0.00  0.00    +0.000 A 
ATOM     28  C   UNL     1       3.215  16.534  17.965  0.00  0.00    +0.000 A 
ATOM     29  F   UNL     1       4.296  17.182  17.511  0.00  0.00    +0.000 F 
ATOM     30  C   UNL     1       2.032  17.236  18.151  0.00  0.00    +0.000 A 
ATOM     31  C   UNL     1       0.897  16.549  18.577  0.00  0.00    +0.000 A 
ENDBRANCH  24  25
ENDBRANCH  11  24
TORSDOF 6
ENDMDL
MODEL 7
REMARK VINA RESULT:      -6.6      1.205      1.805
REMARK  Name = 
REMARK  7 active torsions:
REMARK  status: ('A' for Active; 'I' for Inactive)
REMARK    1  A    between atoms: C_1  and  O_2
REMARK    2  A    between atoms: O_2  and  C_3
REMARK    3  A    between atoms: C_7  and  C_8
REMARK    4  A    between atoms: C_9  and  C_10
REMARK    5  A    between atoms: C_10  and  O_12
REMARK    6  A    between atoms: N_21  and  C_22
REMARK    7  A    between atoms: C_22  and  C_23
REMARK                            x       y       z     vdW  Elec       q    Type
REMARK                         _______ _______ _______ _____ _____    ______ ____
ROOT
ATOM      1  C   UNL     1      -0.313  11.866  18.595  0.00  0.00    +0.000 C 
ATOM      2  C   UNL     1      -1.840  11.933  18.353  0.00  0.00    +0.000 C 
ATOM      3  C   UNL     1      -2.628  12.179  19.631  0.00  0.00    +0.000 A 
ATOM      4  C   UNL     1      -4.029  12.275  19.627  0.00  0.00    +0.000 A 
ATOM      5  C   UNL     1      -4.719  12.678  20.776  0.00  0.00    +0.000 A 
ATOM      6  C   UNL     1      -4.029  12.958  21.953  0.00  0.00    +0.000 A 
ATOM      7  C   UNL     1      -2.638  12.915  21.966  0.00  0.00    +0.000 A 
ATOM      8  C   UNL     1      -1.941  12.593  20.795  0.00  0.00    +0.000 A 
ATOM      9  C   UNL     1      -0.497  13.007  20.726  0.00  0.00    +0.000 C 
ATOM     10  O   UNL     1       0.070  13.479  21.702  0.00  0.00    +0.000 OA
ATOM     11  N   UNL     1       0.055  13.024  19.436  0.00  0.00    +0.000 N 
ENDROOT
BRANCH   1  16
ATOM     12  C   UNL     1       1.029   8.871  20.746  0.00  0.00    +0.000 A 
ATOM     13  C   UNL     1       1.725   8.175  19.758  0.00  0.00    +0.000 A 
ATOM     14  C   UNL     1       1.824   8.703  18.480  0.00  0.00    +0.000 A 
ATOM     15  C   UNL     1       1.189   9.906  18.176  0.00  0.00    +0.000 A 
ATOM     16  C   UNL     1       0.412  10.610  19.124  0.00  0.00    +0.000 A 
ATOM     17  C   UNL     1       0.359  10.076  20.423  0.00  0.00    +0.000 A 
BRANCH  12  19
ATOM     18  C   UNL     1       0.286   9.347  22.955  0.00  0.00    +0.000 C 
ATOM     19  O   UNL     1       0.915   8.437  22.046  0.00  0.00    +0.000 OA
ENDBRANCH  12  19
ENDBRANCH   1  16
BRANCH   2  20
ATOM     20  C   UNL     1      -2.279  10.924  17.329  0.00  0.00    +0.000 C 
ATOM     21  O   UNL     1      -2.377  11.224  16.139  0.00  0.00    +0.000 OA
BRANCH  20  22
ATOM     22  O   UNL     1      -2.593   9.691  17.756  0.00  0.00    +0.000 OA
ATOM     23  H   UNL     1      -2.927   9.631  18.672  0.00  0.00    +0.000 HD
ENDBRANCH  20  22
ENDBRANCH   2  20
BRANCH  11  24
ATOM     24  C   UNL     1      -0.040  14.339  18.788  0.00  0.00    +0.000 C 
BRANCH  24  25
ATOM     25  C   UNL     1       1.238  15.108  18.590  0.00  0.00    +0.000 A 
ATOM     26  C   UNL     1       1.321  16.501  18.676  0.00  0.00    +0.000 A 
ATOM     27  C   UNL     1       2.560  17.136  18.581  0.00  0.00    +0.000 A 
ATOM     28  C   UNL     1       3.711  16.383  18.388  0.00  0.00    +0.000 A 
ATOM     29  F   UNL     1       4.903  16.993  18.345  0.00  0.00    +0.000 F 
ATOM     30  C   UNL     1       3.648  15.004  18.246  0.00  0.00    +0.000 A 
ATOM     31  C   UNL     1       2.412  14.368  18.341  0.00  0.00    +0.000 A 
ENDBRANCH  24  25
ENDBRANCH  11  24
TORSDOF 6
ENDMDL
MODEL 8
REMARK VINA RESULT:      -6.6      2.921      6.484
REMARK  Name = 
REMARK  7 active torsions:
REMARK  status: ('A' for Active; 'I' for Inactive)
REMARK    1  A    between atoms: C_1  and  O_2
REMARK    2  A    between atoms: O_2  and  C_3
REMARK    3  A    between atoms: C_7  and  C_8
REMARK    4  A    between atoms: C_9  and  C_10
REMARK    5  A    between atoms: C_10  and  O_12
REMARK    6  A    between atoms: N_21  and  C_22
REMARK    7  A    between atoms: C_22  and  C_23
REMARK                            x       y       z     vdW  Elec       q    Type
REMARK                         _______ _______ _______ _____ _____    ______ ____
ROOT
ATOM      1  C   UNL     1      -0.341  12.837  20.589  0.00  0.00    +0.000 C 
ATOM      2  C   UNL     1      -1.518  12.888  21.593  0.00  0.00    +0.000 C 
ATOM      3  C   UNL     1      -2.874  12.766  20.916  0.00  0.00    +0.000 A 
ATOM      4  C   UNL     1      -4.070  12.787  21.651  0.00  0.00    +0.000 A 
ATOM      5  C   UNL     1      -5.291  12.495  21.033  0.00  0.00    +0.000 A 
ATOM      6  C   UNL     1      -5.344  12.211  19.671  0.00  0.00    +0.000 A 
ATOM      7  C   UNL     1      -4.166  12.138  18.934  0.00  0.00    +0.000 A 
ATOM      8  C   UNL     1      -2.935  12.347  19.567  0.00  0.00    +0.000 A 
ATOM      9  C   UNL     1      -1.713  11.812  18.875  0.00  0.00    +0.000 C 
ATOM     10  O   UNL     1      -1.783  11.338  17.749  0.00  0.00    +0.000 OA
ATOM     11  N   UNL     1      -0.575  11.690  19.687  0.00  0.00    +0.000 N 
ENDROOT
BRANCH   1  16
ATOM     12  C   UNL     1      -0.082  16.216  18.611  0.00  0.00    +0.000 A 
ATOM     13  C   UNL     1       1.290  16.232  18.366  0.00  0.00    +0.000 A 
ATOM     14  C   UNL     1       2.074  15.155  18.750  0.00  0.00    +0.000 A 
ATOM     15  C   UNL     1       1.493  14.078  19.419  0.00  0.00    +0.000 A 
ATOM     16  C   UNL     1       0.119  14.049  19.752  0.00  0.00    +0.000 A 
ATOM     17  C   UNL     1      -0.661  15.135  19.319  0.00  0.00    +0.000 A 
BRANCH  12  19
ATOM     18  C   UNL     1      -1.813  17.718  19.249  0.00  0.00    +0.000 C 
ATOM     19  O   UNL     1      -0.936  17.225  18.231  0.00  0.00    +0.000 OA
ENDBRANCH  12  19
ENDBRANCH   1  16
BRANCH   2  20
ATOM     20  C   UNL     1      -1.262  13.883  22.690  0.00  0.00    +0.000 C 
ATOM     21  O   UNL     1      -0.613  13.578  23.690  0.00  0.00    +0.000 OA
BRANCH  20  22
ATOM     22  O   UNL     1      -1.791  15.110  22.561  0.00  0.00    +0.000 OA
ATOM     23  H   UNL     1      -1.152  15.847  22.541  0.00  0.00    +0.000 HD
ENDBRANCH  20  22
ENDBRANCH   2  20
BRANCH  11  24
ATOM     24  C   UNL     1      -0.443  10.361  20.297  0.00  0.00    +0.000 C 
BRANCH  24  25
ATOM     25  C   UNL     1       0.634   9.457  19.763  0.00  0.00    +0.000 A 
ATOM     26  C   UNL     1       1.200   8.412  20.500  0.00  0.00    +0.000 A 
ATOM     27  C   UNL     1       2.122   7.551  19.901  0.00  0.00    +0.000 A 
ATOM     28  C   UNL     1       2.487   7.742  18.575  0.00  0.00    +0.000 A 
ATOM     29  F   UNL     1       3.336   6.886  17.991  0.00  0.00    +0.000 F 
ATOM     30  C   UNL     1       1.980   8.804  17.839  0.00  0.00    +0.000 A 
ATOM     31  C   UNL     1       1.060   9.664  18.434  0.00  0.00    +0.000 A 
ENDBRANCH  24  25
ENDBRANCH  11  24
TORSDOF 6
ENDMDL
MODEL 9
REMARK VINA RESULT:      -6.6      1.504      2.291
REMARK  Name = 
REMARK  7 active torsions:
REMARK  status: ('A' for Active; 'I' for Inactive)
REMARK    1  A    between atoms: C_1  and  O_2
REMARK    2  A    between atoms: O_2  and  C_3
REMARK    3  A    between atoms: C_7  and  C_8
REMARK    4  A    between atoms: C_9  and  C_10
REMARK    5  A    between atoms: C_10  and  O_12
REMARK    6  A    between atoms: N_21  and  C_22
REMARK    7  A    between atoms: C_22  and  C_23
REMARK                            x       y       z     vdW  Elec       q    Type
REMARK                         _______ _______ _______ _____ _____    ______ ____
ROOT
ATOM      1  C   UNL     1      -0.344  12.018  19.895  0.00  0.00    +0.000 C 
ATOM      2  C   UNL     1      -1.771  12.358  19.406  0.00  0.00    +0.000 C 
ATOM      3  C   UNL     1      -2.774  12.465  20.544  0.00  0.00    +0.000 A 
ATOM      4  C   UNL     1      -4.125  12.769  20.311  0.00  0.00    +0.000 A 
ATOM      5  C   UNL     1      -4.989  13.037  21.379  0.00  0.00    +0.000 A 
ATOM      6  C   UNL     1      -4.530  12.976  22.692  0.00  0.00    +0.000 A 
ATOM      7  C   UNL     1      -3.185  12.723  22.943  0.00  0.00    +0.000 A 
ATOM      8  C   UNL     1      -2.301  12.536  21.875  0.00  0.00    +0.000 A 
ATOM      9  C   UNL     1      -0.838  12.735  22.157  0.00  0.00    +0.000 C 
ATOM     10  O   UNL     1      -0.436  12.916  23.299  0.00  0.00    +0.000 OA
ATOM     11  N   UNL     1      -0.033  12.921  21.023  0.00  0.00    +0.000 N 
ENDROOT
BRANCH   1  16
ATOM     12  C   UNL     1       1.399   8.505  20.034  0.00  0.00    +0.000 A 
ATOM     13  C   UNL     1       0.911   8.057  21.261  0.00  0.00    +0.000 A 
ATOM     14  C   UNL     1      -0.006   8.824  21.962  0.00  0.00    +0.000 A 
ATOM     15  C   UNL     1      -0.404  10.062  21.459  0.00  0.00    +0.000 A 
ATOM     16  C   UNL     1       0.117  10.589  20.254  0.00  0.00    +0.000 A 
ATOM     17  C   UNL     1       1.016   9.776  19.542  0.00  0.00    +0.000 A 
BRANCH  12  19
ATOM     18  C   UNL     1       2.493   8.288  17.933  0.00  0.00    +0.000 C 
ATOM     19  O   UNL     1       2.280   7.790  19.258  0.00  0.00    +0.000 OA
ENDBRANCH  12  19
ENDBRANCH   1  16
BRANCH   2  20
ATOM     20  C   UNL     1      -2.096  11.647  18.122  0.00  0.00    +0.000 C 
ATOM     21  O   UNL     1      -2.660  10.553  18.123  0.00  0.00    +0.000 OA
BRANCH  20  22
ATOM     22  O   UNL     1      -1.723  12.228  16.971  0.00  0.00    +0.000 OA
ATOM     23  H   UNL     1      -0.920  11.863  16.552  0.00  0.00    +0.000 HD
ENDBRANCH  20  22
ENDBRANCH   2  20
BRANCH  11  24
ATOM     24  C   UNL     1       0.151  14.336  20.676  0.00  0.00    +0.000 C 
BRANCH  24  25
ATOM     25  C   UNL     1       1.289  14.681  19.754  0.00  0.00    +0.000 A 
ATOM     26  C   UNL     1       2.394  13.849  19.547  0.00  0.00    +0.000 A 
ATOM     27  C   UNL     1       3.360  14.191  18.600  0.00  0.00    +0.000 A 
ATOM     28  C   UNL     1       3.230  15.366  17.870  0.00  0.00    +0.000 A 
ATOM     29  F   UNL     1       4.135  15.666  16.930  0.00  0.00    +0.000 F 
ATOM     30  C   UNL     1       2.171  16.234  18.096  0.00  0.00    +0.000 A 
ATOM     31  C   UNL     1       1.205  15.895  19.041  0.00  0.00    +0.000 A 
ENDBRANCH  24  25
ENDBRANCH  11  24
TORSDOF 6
ENDMDL
