MODEL 1
REMARK VINA RESULT:      -8.1      0.000      0.000
REMARK  Name = 
REMARK  3 active torsions:
REMARK  status: ('A' for Active; 'I' for Inactive)
REMARK    1  A    between atoms: C_2  and  C_3
REMARK    2  A    between atoms: C_3  and  N_4
REMARK    3  A    between atoms: N_15  and  C_16
REMARK                            x       y       z     vdW  Elec       q    Type
REMARK                         _______ _______ _______ _____ _____    ______ ____
ROOT
ATOM      1  O   UNL     1       0.983   5.567  20.425  0.00  0.00    +0.000 OA
ATOM      2  C   UNL     1       2.126   5.929  20.157  0.00  0.00    +0.000 C 
ATOM      3  N   UNL     1       2.516   7.188  19.720  0.00  0.00    +0.000 N 
ATOM      4  H   UNL     1       3.506   7.314  19.528  0.00  0.00    +0.000 HD
ENDROOT
BRANCH   3   5
ATOM      5  C   UNL     1       1.678   8.321  19.536  0.00  0.00    +0.000 A 
ATOM      6  C   UNL     1       1.382   8.784  18.246  0.00  0.00    +0.000 A 
ATOM      7  C   UNL     1       0.561   9.890  18.043  0.00  0.00    +0.000 A 
ATOM      8  C   UNL     1       0.017  10.557  19.131  0.00  0.00    +0.000 A 
ATOM      9  C   UNL     1       0.283  10.116  20.436  0.00  0.00    +0.000 A 
ATOM     10  C   UNL     1      -0.256  10.790  21.534  0.00  0.00    +0.000 A 
ATOM     11  N   UNL     1      -0.045  10.454  22.824  0.00  0.00    +0.000 NA
ATOM     12  C   UNL     1       0.744   9.386  23.035  0.00  0.00    +0.000 A 
ATOM     13  C   UNL     1       1.327   8.637  22.020  0.00  0.00    +0.000 A 
ATOM     14  C   UNL     1       1.108   8.987  20.667  0.00  0.00    +0.000 A 
ENDBRANCH   3   5
BRANCH   2  15
ATOM     15  C   UNL     1       3.285   4.955  20.346  0.00  0.00    +0.000 C 
BRANCH  15  16
ATOM     16  N   UNL     1       3.862   4.649  19.050  0.00  0.00    +0.000 N 
ATOM     17  C   UNL     1       3.106   4.034  18.082  0.00  0.00    +0.000 A 
ATOM     18  N   UNL     1       3.513   3.774  16.886  0.00  0.00    +0.000 NA
ATOM     19  C   UNL     1       4.825   4.141  16.550  0.00  0.00    +0.000 A 
ATOM     20  C   UNL     1       5.269   3.940  15.243  0.00  0.00    +0.000 A 
ATOM     21  C   UNL     1       6.569   4.297  14.868  0.00  0.00    +0.000 A 
ATOM     22  C   UNL     1       7.442   4.842  15.810  0.00  0.00    +0.000 A 
ATOM     23  C   UNL     1       7.014   5.046  17.120  0.00  0.00    +0.000 A 
ATOM     24  C   UNL     1       5.705   4.705  17.477  0.00  0.00    +0.000 A 
ATOM     25  C   UNL     1       5.195   4.961  18.838  0.00  0.00    +0.000 A 
ATOM     26  O   UNL     1       5.921   5.425  19.714  0.00  0.00    +0.000 OA
ENDBRANCH  15  16
ENDBRANCH   2  15
TORSDOF 3
ENDMDL
MODEL 2
REMARK VINA RESULT:      -7.8      1.390      2.317
REMARK  Name = 
REMARK  3 active torsions:
REMARK  status: ('A' for Active; 'I' for Inactive)
REMARK    1  A    between atoms: C_2  and  C_3
REMARK    2  A    between atoms: C_3  and  N_4
REMARK    3  A    between atoms: N_15  and  C_16
REMARK                            x       y       z     vdW  Elec       q    Type
REMARK                         _______ _______ _______ _____ _____    ______ ____
ROOT
ATOM      1  O   UNL     1       0.827   4.532  20.546  0.00  0.00    +0.000 OA
ATOM      2  C   UNL     1       1.993   4.913  20.465  0.00  0.00    +0.000 C 
ATOM      3  N   UNL     1       2.437   6.228  20.447  0.00  0.00    +0.000 N 
ATOM      4  H   UNL     1       3.439   6.367  20.359  0.00  0.00    +0.000 HD
ENDROOT
BRANCH   3   5
ATOM      5  C   UNL     1       1.635   7.397  20.562  0.00  0.00    +0.000 A 
ATOM      6  C   UNL     1       0.805   7.582  21.677  0.00  0.00    +0.000 A 
ATOM      7  C   UNL     1       0.015   8.721  21.811  0.00  0.00    +0.000 A 
ATOM      8  C   UNL     1       0.041   9.700  20.828  0.00  0.00    +0.000 A 
ATOM      9  C   UNL     1       0.867   9.554  19.704  0.00  0.00    +0.000 A 
ATOM     10  C   UNL     1       0.888  10.533  18.709  0.00  0.00    +0.000 A 
ATOM     11  N   UNL     1       1.636  10.475  17.586  0.00  0.00    +0.000 NA
ATOM     12  C   UNL     1       2.406   9.382  17.445  0.00  0.00    +0.000 A 
ATOM     13  C   UNL     1       2.469   8.349  18.373  0.00  0.00    +0.000 A 
ATOM     14  C   UNL     1       1.687   8.407  19.551  0.00  0.00    +0.000 A 
ENDBRANCH   3   5
BRANCH   2  15
ATOM     15  C   UNL     1       3.118   3.882  20.421  0.00  0.00    +0.000 C 
BRANCH  15  16
ATOM     16  N   UNL     1       3.728   3.904  19.105  0.00  0.00    +0.000 N 
ATOM     17  C   UNL     1       3.001   3.540  17.998  0.00  0.00    +0.000 A 
ATOM     18  N   UNL     1       3.439   3.581  16.784  0.00  0.00    +0.000 NA
ATOM     19  C   UNL     1       4.755   4.024  16.582  0.00  0.00    +0.000 A 
ATOM     20  C   UNL     1       5.231   4.151  15.277  0.00  0.00    +0.000 A 
ATOM     21  C   UNL     1       6.536   4.594  15.033  0.00  0.00    +0.000 A 
ATOM     22  C   UNL     1       7.381   4.897  16.101  0.00  0.00    +0.000 A 
ATOM     23  C   UNL     1       6.920   4.773  17.410  0.00  0.00    +0.000 A 
ATOM     24  C   UNL     1       5.607   4.350  17.640  0.00  0.00    +0.000 A 
ATOM     25  C   UNL     1       5.062   4.264  19.009  0.00  0.00    +0.000 A 
ATOM     26  O   UNL     1       5.762   4.504  19.990  0.00  0.00    +0.000 OA
ENDBRANCH  15  16
ENDBRANCH   2  15
TORSDOF 3
ENDMDL
MODEL 3
REMARK VINA RESULT:      -7.8      2.324      8.589
REMARK  Name = 
REMARK  3 active torsions:
REMARK  status: ('A' for Active; 'I' for Inactive)
REMARK    1  A    between atoms: C_2  and  C_3
REMARK    2  A    between atoms: C_3  and  N_4
REMARK    3  A    between atoms: N_15  and  C_16
REMARK                            x       y       z     vdW  Elec       q    Type
REMARK                         _______ _______ _______ _____ _____    ______ ____
ROOT
ATOM      1  O   UNL     1      -0.056   7.542  21.200  0.00  0.00    +0.000 OA
ATOM      2  C   UNL     1       1.140   7.824  21.191  0.00  0.00    +0.000 C 
ATOM      3  N   UNL     1       2.176   7.031  20.715  0.00  0.00    +0.000 N 
ATOM      4  H   UNL     1       3.113   7.413  20.798  0.00  0.00    +0.000 HD
ENDROOT
BRANCH   3   5
ATOM      5  C   UNL     1       2.056   5.753  20.105  0.00  0.00    +0.000 A 
ATOM      6  C   UNL     1       1.187   4.790  20.638  0.00  0.00    +0.000 A 
ATOM      7  C   UNL     1       1.052   3.533  20.054  0.00  0.00    +0.000 A 
ATOM      8  C   UNL     1       1.786   3.214  18.921  0.00  0.00    +0.000 A 
ATOM      9  C   UNL     1       2.657   4.155  18.354  0.00  0.00    +0.000 A 
ATOM     10  C   UNL     1       3.405   3.834  17.219  0.00  0.00    +0.000 A 
ATOM     11  N   UNL     1       4.280   4.664  16.612  0.00  0.00    +0.000 NA
ATOM     12  C   UNL     1       4.418   5.883  17.163  0.00  0.00    +0.000 A 
ATOM     13  C   UNL     1       3.722   6.312  18.287  0.00  0.00    +0.000 A 
ATOM     14  C   UNL     1       2.805   5.444  18.925  0.00  0.00    +0.000 A 
ENDBRANCH   3   5
BRANCH   2  15
ATOM     15  C   UNL     1       1.593   9.189  21.700  0.00  0.00    +0.000 C 
BRANCH  15  16
ATOM     16  N   UNL     1       0.542  10.159  21.450  0.00  0.00    +0.000 N 
ATOM     17  C   UNL     1       0.388  10.707  20.200  0.00  0.00    +0.000 A 
ATOM     18  N   UNL     1      -0.548  11.532  19.869  0.00  0.00    +0.000 NA
ATOM     19  C   UNL     1      -1.472  11.899  20.859  0.00  0.00    +0.000 A 
ATOM     20  C   UNL     1      -2.538  12.730  20.513  0.00  0.00    +0.000 A 
ATOM     21  C   UNL     1      -3.482  13.116  21.470  0.00  0.00    +0.000 A 
ATOM     22  C   UNL     1      -3.354  12.684  22.790  0.00  0.00    +0.000 A 
ATOM     23  C   UNL     1      -2.292  11.857  23.153  0.00  0.00    +0.000 A 
ATOM     24  C   UNL     1      -1.367  11.460  22.181  0.00  0.00    +0.000 A 
ATOM     25  C   UNL     1      -0.265  10.536  22.510  0.00  0.00    +0.000 A 
ATOM     26  O   UNL     1      -0.091  10.135  23.659  0.00  0.00    +0.000 OA
ENDBRANCH  15  16
ENDBRANCH   2  15
TORSDOF 3
ENDMDL
MODEL 4
REMARK VINA RESULT:      -7.6      2.562      7.518
REMARK  Name = 
REMARK  3 active torsions:
REMARK  status: ('A' for Active; 'I' for Inactive)
REMARK    1  A    between atoms: C_2  and  C_3
REMARK    2  A    between atoms: C_3  and  N_4
REMARK    3  A    between atoms: N_15  and  C_16
REMARK                            x       y       z     vdW  Elec       q    Type
REMARK                         _______ _______ _______ _____ _____    ______ ____
ROOT
ATOM      1  O   UNL     1       4.139   6.942  18.232  0.00  0.00    +0.000 OA
ATOM      2  C   UNL     1       2.924   6.995  18.057  0.00  0.00    +0.000 C 
ATOM      3  N   UNL     1       2.048   5.921  17.989  0.00  0.00    +0.000 N 
ATOM      4  H   UNL     1       1.071   6.143  17.822  0.00  0.00    +0.000 HD
ENDROOT
BRANCH   3   5
ATOM      5  C   UNL     1       2.374   4.547  18.152  0.00  0.00    +0.000 A 
ATOM      6  C   UNL     1       2.665   3.748  17.037  0.00  0.00    +0.000 A 
ATOM      7  C   UNL     1       2.990   2.401  17.174  0.00  0.00    +0.000 A 
ATOM      8  C   UNL     1       3.032   1.825  18.436  0.00  0.00    +0.000 A 
ATOM      9  C   UNL     1       2.757   2.595  19.575  0.00  0.00    +0.000 A 
ATOM     10  C   UNL     1       2.789   2.016  20.845  0.00  0.00    +0.000 A 
ATOM     11  N   UNL     1       2.524   2.668  21.997  0.00  0.00    +0.000 NA
ATOM     12  C   UNL     1       2.211   3.971  21.880  0.00  0.00    +0.000 A 
ATOM     13  C   UNL     1       2.155   4.652  20.670  0.00  0.00    +0.000 A 
ATOM     14  C   UNL     1       2.432   3.970  19.461  0.00  0.00    +0.000 A 
ENDBRANCH   3   5
BRANCH   2  15
ATOM     15  C   UNL     1       2.243   8.355  17.938  0.00  0.00    +0.000 C 
BRANCH  15  16
ATOM     16  N   UNL     1       1.584   8.666  19.193  0.00  0.00    +0.000 N 
ATOM     17  C   UNL     1       1.823   7.901  20.309  0.00  0.00    +0.000 A 
ATOM     18  N   UNL     1       1.329   8.132  21.478  0.00  0.00    +0.000 NA
ATOM     19  C   UNL     1       0.483   9.243  21.620  0.00  0.00    +0.000 A 
ATOM     20  C   UNL     1      -0.005   9.562  22.887  0.00  0.00    +0.000 A 
ATOM     21  C   UNL     1      -0.848  10.663  23.070  0.00  0.00    +0.000 A 
ATOM     22  C   UNL     1      -1.223  11.445  21.977  0.00  0.00    +0.000 A 
ATOM     23  C   UNL     1      -0.745  11.137  20.705  0.00  0.00    +0.000 A 
ATOM     24  C   UNL     1       0.114  10.046  20.538  0.00  0.00    +0.000 A 
ATOM     25  C   UNL     1       0.690   9.723  19.218  0.00  0.00    +0.000 A 
ATOM     26  O   UNL     1       0.386  10.366  18.216  0.00  0.00    +0.000 OA
ENDBRANCH  15  16
ENDBRANCH   2  15
TORSDOF 3
ENDMDL
MODEL 5
REMARK VINA RESULT:      -7.5      1.094      1.656
REMARK  Name = 
REMARK  3 active torsions:
REMARK  status: ('A' for Active; 'I' for Inactive)
REMARK    1  A    between atoms: C_2  and  C_3
REMARK    2  A    between atoms: C_3  and  N_4
REMARK    3  A    between atoms: N_15  and  C_16
REMARK                            x       y       z     vdW  Elec       q    Type
REMARK                         _______ _______ _______ _____ _____    ______ ____
ROOT
ATOM      1  O   UNL     1       1.010   5.355  20.259  0.00  0.00    +0.000 OA
ATOM      2  C   UNL     1       2.187   5.636  20.043  0.00  0.00    +0.000 C 
ATOM      3  N   UNL     1       2.682   6.856  19.604  0.00  0.00    +0.000 N 
ATOM      4  H   UNL     1       3.686   6.912  19.461  0.00  0.00    +0.000 HD
ENDROOT
BRANCH   3   5
ATOM      5  C   UNL     1       1.931   8.037  19.356  0.00  0.00    +0.000 A 
ATOM      6  C   UNL     1       1.733   8.491  18.044  0.00  0.00    +0.000 A 
ATOM      7  C   UNL     1       0.999   9.644  17.778  0.00  0.00    +0.000 A 
ATOM      8  C   UNL     1       0.446  10.368  18.824  0.00  0.00    +0.000 A 
ATOM      9  C   UNL     1       0.614   9.939  20.149  0.00  0.00    +0.000 A 
ATOM     10  C   UNL     1       0.066  10.670  21.205  0.00  0.00    +0.000 A 
ATOM     11  N   UNL     1       0.187  10.348  22.511  0.00  0.00    +0.000 NA
ATOM     12  C   UNL     1       0.892   9.235  22.782  0.00  0.00    +0.000 A 
ATOM     13  C   UNL     1       1.475   8.428  21.812  0.00  0.00    +0.000 A 
ATOM     14  C   UNL     1       1.350   8.763  20.443  0.00  0.00    +0.000 A 
ENDBRANCH   3   5
BRANCH   2  15
ATOM     15  C   UNL     1       3.267   4.591  20.309  0.00  0.00    +0.000 C 
BRANCH  15  16
ATOM     16  N   UNL     1       4.282   4.687  19.277  0.00  0.00    +0.000 N 
ATOM     17  C   UNL     1       5.573   5.025  19.603  0.00  0.00    +0.000 A 
ATOM     18  N   UNL     1       6.553   5.080  18.765  0.00  0.00    +0.000 NA
ATOM     19  C   UNL     1       6.279   4.779  17.422  0.00  0.00    +0.000 A 
ATOM     20  C   UNL     1       7.331   4.758  16.507  0.00  0.00    +0.000 A 
ATOM     21  C   UNL     1       7.099   4.458  15.160  0.00  0.00    +0.000 A 
ATOM     22  C   UNL     1       5.804   4.195  14.717  0.00  0.00    +0.000 A 
ATOM     23  C   UNL     1       4.741   4.215  15.618  0.00  0.00    +0.000 A 
ATOM     24  C   UNL     1       4.989   4.495  16.966  0.00  0.00    +0.000 A 
ATOM     25  C   UNL     1       3.902   4.466  17.963  0.00  0.00    +0.000 A 
ATOM     26  O   UNL     1       2.737   4.256  17.631  0.00  0.00    +0.000 OA
ENDBRANCH  15  16
ENDBRANCH   2  15
TORSDOF 3
ENDMDL
MODEL 6
REMARK VINA RESULT:      -7.5      5.301     10.136
REMARK  Name = 
REMARK  3 active torsions:
REMARK  status: ('A' for Active; 'I' for Inactive)
REMARK    1  A    between atoms: C_2  and  C_3
REMARK    2  A    between atoms: C_3  and  N_4
REMARK    3  A    between atoms: N_15  and  C_16
REMARK                            x       y       z     vdW  Elec       q    Type
REMARK                         _______ _______ _______ _____ _____    ______ ____
ROOT
ATOM      1  O   UNL     1      -2.872   9.590  17.478  0.00  0.00    +0.000 OA
ATOM      2  C   UNL     1      -2.757  10.690  18.014  0.00  0.00    +0.000 C 
ATOM      3  N   UNL     1      -1.744  11.091  18.875  0.00  0.00    +0.000 N 
ATOM      4  H   UNL     1      -1.810  12.035  19.244  0.00  0.00    +0.000 HD
ENDROOT
BRANCH   3   5
ATOM      5  C   UNL     1      -0.616  10.324  19.276  0.00  0.00    +0.000 A 
ATOM      6  C   UNL     1       0.224   9.742  18.317  0.00  0.00    +0.000 A 
ATOM      7  C   UNL     1       1.336   8.990  18.687  0.00  0.00    +0.000 A 
ATOM      8  C   UNL     1       1.631   8.806  20.030  0.00  0.00    +0.000 A 
ATOM      9  C   UNL     1       0.818   9.382  21.018  0.00  0.00    +0.000 A 
ATOM     10  C   UNL     1       1.107   9.192  22.371  0.00  0.00    +0.000 A 
ATOM     11  N   UNL     1       0.378   9.690  23.392  0.00  0.00    +0.000 NA
ATOM     12  C   UNL     1      -0.698  10.421  23.049  0.00  0.00    +0.000 A 
ATOM     13  C   UNL     1      -1.076  10.681  21.737  0.00  0.00    +0.000 A 
ATOM     14  C   UNL     1      -0.314  10.159  20.665  0.00  0.00    +0.000 A 
ENDBRANCH   3   5
BRANCH   2  15
ATOM     15  C   UNL     1      -3.774  11.785  17.707  0.00  0.00    +0.000 C 
BRANCH  15  16
ATOM     16  N   UNL     1      -4.862  11.701  18.664  0.00  0.00    +0.000 N 
ATOM     17  C   UNL     1      -5.964  10.927  18.394  0.00  0.00    +0.000 A 
ATOM     18  N   UNL     1      -6.953  10.747  19.205  0.00  0.00    +0.000 NA
ATOM     19  C   UNL     1      -6.900  11.392  20.449  0.00  0.00    +0.000 A 
ATOM     20  C   UNL     1      -7.917  11.157  21.375  0.00  0.00    +0.000 A 
ATOM     21  C   UNL     1      -7.898  11.779  22.629  0.00  0.00    +0.000 A 
ATOM     22  C   UNL     1      -6.865  12.657  22.957  0.00  0.00    +0.000 A 
ATOM     23  C   UNL     1      -5.844  12.904  22.041  0.00  0.00    +0.000 A 
ATOM     24  C   UNL     1      -5.863  12.260  20.800  0.00  0.00    +0.000 A 
ATOM     25  C   UNL     1      -4.769  12.448  19.827  0.00  0.00    +0.000 A 
ATOM     26  O   UNL     1      -3.840  13.221  20.053  0.00  0.00    +0.000 OA
ENDBRANCH  15  16
ENDBRANCH   2  15
TORSDOF 3
ENDMDL
MODEL 7
REMARK VINA RESULT:      -7.4      1.720      2.816
REMARK  Name = 
REMARK  3 active torsions:
REMARK  status: ('A' for Active; 'I' for Inactive)
REMARK    1  A    between atoms: C_2  and  C_3
REMARK    2  A    between atoms: C_3  and  N_4
REMARK    3  A    between atoms: N_15  and  C_16
REMARK                            x       y       z     vdW  Elec       q    Type
REMARK                         _______ _______ _______ _____ _____    ______ ____
ROOT
ATOM      1  O   UNL     1       0.955   4.534  19.823  0.00  0.00    +0.000 OA
ATOM      2  C   UNL     1       2.102   4.910  20.054  0.00  0.00    +0.000 C 
ATOM      3  N   UNL     1       2.506   6.203  20.356  0.00  0.00    +0.000 N 
ATOM      4  H   UNL     1       3.501   6.344  20.504  0.00  0.00    +0.000 HD
ENDROOT
BRANCH   3   5
ATOM      5  C   UNL     1       1.669   7.342  20.502  0.00  0.00    +0.000 A 
ATOM      6  C   UNL     1       0.829   7.469  21.618  0.00  0.00    +0.000 A 
ATOM      7  C   UNL     1       0.004   8.578  21.782  0.00  0.00    +0.000 A 
ATOM      8  C   UNL     1       0.004   9.587  20.830  0.00  0.00    +0.000 A 
ATOM      9  C   UNL     1       0.838   9.500  19.707  0.00  0.00    +0.000 A 
ATOM     10  C   UNL     1       0.834  10.509  18.741  0.00  0.00    +0.000 A 
ATOM     11  N   UNL     1       1.587  10.508  17.621  0.00  0.00    +0.000 NA
ATOM     12  C   UNL     1       2.391   9.444  17.450  0.00  0.00    +0.000 A 
ATOM     13  C   UNL     1       2.482   8.386  18.347  0.00  0.00    +0.000 A 
ATOM     14  C   UNL     1       1.694   8.384  19.522  0.00  0.00    +0.000 A 
ENDBRANCH   3   5
BRANCH   2  15
ATOM     15  C   UNL     1       3.237   3.890  20.066  0.00  0.00    +0.000 C 
BRANCH  15  16
ATOM     16  N   UNL     1       4.221   4.264  19.067  0.00  0.00    +0.000 N 
ATOM     17  C   UNL     1       5.339   4.977  19.428  0.00  0.00    +0.000 A 
ATOM     18  N   UNL     1       6.292   5.306  18.623  0.00  0.00    +0.000 NA
ATOM     19  C   UNL     1       6.177   4.912  17.281  0.00  0.00    +0.000 A 
ATOM     20  C   UNL     1       7.226   5.188  16.404  0.00  0.00    +0.000 A 
ATOM     21  C   UNL     1       7.151   4.808  15.060  0.00  0.00    +0.000 A 
ATOM     22  C   UNL     1       6.011   4.162  14.580  0.00  0.00    +0.000 A 
ATOM     23  C   UNL     1       4.954   3.883  15.443  0.00  0.00    +0.000 A 
ATOM     24  C   UNL     1       5.050   4.248  16.790  0.00  0.00    +0.000 A 
ATOM     25  C   UNL     1       3.979   3.916  17.749  0.00  0.00    +0.000 A 
ATOM     26  O   UNL     1       2.945   3.362  17.382  0.00  0.00    +0.000 OA
ENDBRANCH  15  16
ENDBRANCH   2  15
TORSDOF 3
ENDMDL
MODEL 8
REMARK VINA RESULT:      -7.4      2.602      8.588
REMARK  Name = 
REMARK  3 active torsions:
REMARK  status: ('A' for Active; 'I' for Inactive)
REMARK    1  A    between atoms: C_2  and  C_3
REMARK    2  A    between atoms: C_3  and  N_4
REMARK    3  A    between atoms: N_15  and  C_16
REMARK                            x       y       z     vdW  Elec       q    Type
REMARK                         _______ _______ _______ _____ _____    ______ ____
ROOT
ATOM      1  O   UNL     1       0.650   8.985  17.684  0.00  0.00    +0.000 OA
ATOM      2  C   UNL     1       1.335   9.418  18.608  0.00  0.00    +0.000 C 
ATOM      3  N   UNL     1       2.064   8.670  19.522  0.00  0.00    +0.000 N 
ATOM      4  H   UNL     1       2.565   9.191  20.236  0.00  0.00    +0.000 HD
ENDROOT
BRANCH   3   5
ATOM      5  C   UNL     1       2.197   7.255  19.549  0.00  0.00    +0.000 A 
ATOM      6  C   UNL     1       1.496   6.493  20.494  0.00  0.00    +0.000 A 
ATOM      7  C   UNL     1       1.609   5.106  20.535  0.00  0.00    +0.000 A 
ATOM      8  C   UNL     1       2.429   4.451  19.627  0.00  0.00    +0.000 A 
ATOM      9  C   UNL     1       3.137   5.180  18.660  0.00  0.00    +0.000 A 
ATOM     10  C   UNL     1       3.970   4.526  17.750  0.00  0.00    +0.000 A 
ATOM     11  N   UNL     1       4.703   5.139  16.797  0.00  0.00    +0.000 NA
ATOM     12  C   UNL     1       4.602   6.479  16.744  0.00  0.00    +0.000 A 
ATOM     13  C   UNL     1       3.800   7.233  17.593  0.00  0.00    +0.000 A 
ATOM     14  C   UNL     1       3.030   6.592  18.593  0.00  0.00    +0.000 A 
ENDBRANCH   3   5
BRANCH   2  15
ATOM     15  C   UNL     1       1.476  10.926  18.793  0.00  0.00    +0.000 C 
BRANCH  15  16
ATOM     16  N   UNL     1       0.281  11.437  19.440  0.00  0.00    +0.000 N 
ATOM     17  C   UNL     1      -0.716  12.018  18.695  0.00  0.00    +0.000 A 
ATOM     18  N   UNL     1      -1.835  12.449  19.173  0.00  0.00    +0.000 NA
ATOM     19  C   UNL     1      -2.047  12.318  20.553  0.00  0.00    +0.000 A 
ATOM     20  C   UNL     1      -3.276  12.706  21.088  0.00  0.00    +0.000 A 
ATOM     21  C   UNL     1      -3.527  12.588  22.459  0.00  0.00    +0.000 A 
ATOM     22  C   UNL     1      -2.538  12.095  23.310  0.00  0.00    +0.000 A 
ATOM     23  C   UNL     1      -1.304  11.706  22.792  0.00  0.00    +0.000 A 
ATOM     24  C   UNL     1      -1.073  11.809  21.416  0.00  0.00    +0.000 A 
ATOM     25  C   UNL     1       0.198  11.352  20.820  0.00  0.00    +0.000 A 
ATOM     26  O   UNL     1       1.112  10.923  21.520  0.00  0.00    +0.000 OA
ENDBRANCH  15  16
ENDBRANCH   2  15
TORSDOF 3
ENDMDL
MODEL 9
REMARK VINA RESULT:      -7.3      2.227      7.866
REMARK  Name = 
REMARK  3 active torsions:
REMARK  status: ('A' for Active; 'I' for Inactive)
REMARK    1  A    between atoms: C_2  and  C_3
REMARK    2  A    between atoms: C_3  and  N_4
REMARK    3  A    between atoms: N_15  and  C_16
REMARK                            x       y       z     vdW  Elec       q    Type
REMARK                         _______ _______ _______ _____ _____    ______ ____
ROOT
ATOM      1  O   UNL     1       1.075   7.437  17.457  0.00  0.00    +0.000 OA
ATOM      2  C   UNL     1       2.054   7.818  18.097  0.00  0.00    +0.000 C 
ATOM      3  N   UNL     1       3.140   7.047  18.488  0.00  0.00    +0.000 N 
ATOM      4  H   UNL     1       3.859   7.519  19.029  0.00  0.00    +0.000 HD
ENDROOT
BRANCH   3   5
ATOM      5  C   UNL     1       3.359   5.674  18.191  0.00  0.00    +0.000 A 
ATOM      6  C   UNL     1       4.215   5.301  17.145  0.00  0.00    +0.000 A 
ATOM      7  C   UNL     1       4.446   3.962  16.840  0.00  0.00    +0.000 A 
ATOM      8  C   UNL     1       3.823   2.967  17.579  0.00  0.00    +0.000 A 
ATOM      9  C   UNL     1       2.968   3.302  18.639  0.00  0.00    +0.000 A 
ATOM     10  C   UNL     1       2.332   2.303  19.379  0.00  0.00    +0.000 A 
ATOM     11  N   UNL     1       1.482   2.525  20.404  0.00  0.00    +0.000 NA
ATOM     12  C   UNL     1       1.251   3.814  20.711  0.00  0.00    +0.000 A 
ATOM     13  C   UNL     1       1.833   4.888  20.049  0.00  0.00    +0.000 A 
ATOM     14  C   UNL     1       2.725   4.658  18.974  0.00  0.00    +0.000 A 
ENDBRANCH   3   5
BRANCH   2  15
ATOM     15  C   UNL     1       2.165   9.287  18.493  0.00  0.00    +0.000 C 
BRANCH  15  16
ATOM     16  N   UNL     1       1.317   9.532  19.645  0.00  0.00    +0.000 N 
ATOM     17  C   UNL     1       1.367   8.695  20.733  0.00  0.00    +0.000 A 
ATOM     18  N   UNL     1       0.694   8.863  21.821  0.00  0.00    +0.000 NA
ATOM     19  C   UNL     1      -0.154   9.978  21.897  0.00  0.00    +0.000 A 
ATOM     20  C   UNL     1      -0.837  10.228  23.088  0.00  0.00    +0.000 A 
ATOM     21  C   UNL     1      -1.688  11.332  23.204  0.00  0.00    +0.000 A 
ATOM     22  C   UNL     1      -1.876  12.186  22.118  0.00  0.00    +0.000 A 
ATOM     23  C   UNL     1      -1.203  11.949  20.921  0.00  0.00    +0.000 A 
ATOM     24  C   UNL     1      -0.338  10.854  20.824  0.00  0.00    +0.000 A 
ATOM     25  C   UNL     1       0.440  10.603  19.595  0.00  0.00    +0.000 A 
ATOM     26  O   UNL     1       0.306  11.312  18.600  0.00  0.00    +0.000 OA
ENDBRANCH  15  16
ENDBRANCH   2  15
TORSDOF 3
ENDMDL
