MODEL 1
REMARK VINA RESULT:      -8.2      0.000      0.000
REMARK  Name = 
REMARK  6 active torsions:
REMARK  status: ('A' for Active; 'I' for Inactive)
REMARK    1  A    between atoms: C_2  and  C_16
REMARK    2  A    between atoms: N_3  and  C_4
REMARK    3  A    between atoms: N_7  and  C_8
REMARK    4  A    between atoms: C_8  and  C_9
REMARK    5  A    between atoms: C_20  and  C_21
REMARK    6  A    between atoms: C_21  and  N_22
REMARK                            x       y       z     vdW  Elec       q    Type
REMARK                         _______ _______ _______ _____ _____    ______ ____
ROOT
ATOM      1  O   UNL     1       2.037   7.815  19.787  0.00  0.00    +0.000 OA
ATOM      2  C   UNL     1       2.336   7.875  18.598  0.00  0.00    +0.000 C 
ATOM      3  N   UNL     1       1.992   8.893  17.725  0.00  0.00    +0.000 N 
ATOM      4  H   UNL     1       2.136   8.770  16.732  0.00  0.00    +0.000 HD
ENDROOT
BRANCH   2   5
ATOM      5  C   UNL     1       3.058   6.730  17.992  0.00  0.00    +0.000 A 
ATOM      6  C   UNL     1       4.210   6.996  17.242  0.00  0.00    +0.000 A 
ATOM      7  C   UNL     1       4.917   5.949  16.650  0.00  0.00    +0.000 A 
ATOM      8  C   UNL     1       4.483   4.633  16.815  0.00  0.00    +0.000 A 
ATOM      9  C   UNL     1       3.335   4.352  17.573  0.00  0.00    +0.000 A 
ATOM     10  C   UNL     1       2.613   5.411  18.141  0.00  0.00    +0.000 A 
BRANCH   9  11
ATOM     11  C   UNL     1       2.884   2.930  17.792  0.00  0.00    +0.000 C 
BRANCH  11  12
ATOM     12  N   UNL     1       2.553   2.625  19.169  0.00  0.00    +0.000 N 
ATOM     13  C   UNL     1       3.414   2.998  20.267  0.00  0.00    +0.000 C 
ATOM     14  C   UNL     1       2.648   2.526  21.488  0.00  0.00    +0.000 C 
ATOM     15  C   UNL     1       1.192   2.695  21.081  0.00  0.00    +0.000 C 
ATOM     16  C   UNL     1       1.231   2.507  19.585  0.00  0.00    +0.000 C 
ATOM     17  O   UNL     1       0.254   2.363  18.868  0.00  0.00    +0.000 OA
ENDBRANCH  11  12
ENDBRANCH   9  11
ENDBRANCH   2   5
BRANCH   3  18
ATOM     18  C   UNL     1       1.235   9.982  18.114  0.00  0.00    +0.000 A 
ATOM     19  C   UNL     1       1.623  11.251  18.598  0.00  0.00    +0.000 A 
ATOM     20  N   UNL     1       0.577  12.003  18.957  0.00  0.00    +0.000 NA
ATOM     21  N   UNL     1      -0.484  11.202  18.717  0.00  0.00    +0.000 N 
ATOM     22  C   UNL     1      -0.140  10.010  18.134  0.00  0.00    +0.000 A 
BRANCH  21  23
ATOM     23  C   UNL     1      -1.783  11.553  19.274  0.00  0.00    +0.000 C 
BRANCH  23  24
ATOM     24  C   UNL     1      -1.690  12.144  20.652  0.00  0.00    +0.000 A 
ATOM     25  C   UNL     1      -1.963  13.493  20.880  0.00  0.00    +0.000 A 
ATOM     26  C   UNL     1      -1.774  14.015  22.156  0.00  0.00    +0.000 A 
ATOM     27  C   UNL     1      -1.310  13.186  23.169  0.00  0.00    +0.000 A 
ATOM     28  C   UNL     1      -1.060  11.859  22.864  0.00  0.00    +0.000 A 
ATOM     29  N   UNL     1      -1.238  11.323  21.637  0.00  0.00    +0.000 NA
ENDBRANCH  23  24
ENDBRANCH  21  23
ENDBRANCH   3  18
TORSDOF 6
ENDMDL
MODEL 2
REMARK VINA RESULT:      -8.0      1.468      1.824
REMARK  Name = 
REMARK  6 active torsions:
REMARK  status: ('A' for Active; 'I' for Inactive)
REMARK    1  A    between atoms: C_2  and  C_16
REMARK    2  A    between atoms: N_3  and  C_4
REMARK    3  A    between atoms: N_7  and  C_8
REMARK    4  A    between atoms: C_8  and  C_9
REMARK    5  A    between atoms: C_20  and  C_21
REMARK    6  A    between atoms: C_21  and  N_22
REMARK                            x       y       z     vdW  Elec       q    Type
REMARK                         _______ _______ _______ _____ _____    ______ ____
ROOT
ATOM      1  O   UNL     1       1.417   8.810  17.585  0.00  0.00    +0.000 OA
ATOM      2  C   UNL     1       1.891   8.049  18.422  0.00  0.00    +0.000 C 
ATOM      3  N   UNL     1       1.745   8.157  19.794  0.00  0.00    +0.000 N 
ATOM      4  H   UNL     1       2.312   7.585  20.404  0.00  0.00    +0.000 HD
ENDROOT
BRANCH   2   5
ATOM      5  C   UNL     1       2.775   6.951  17.958  0.00  0.00    +0.000 A 
ATOM      6  C   UNL     1       4.012   7.290  17.395  0.00  0.00    +0.000 A 
ATOM      7  C   UNL     1       4.871   6.288  16.942  0.00  0.00    +0.000 A 
ATOM      8  C   UNL     1       4.504   4.947  17.061  0.00  0.00    +0.000 A 
ATOM      9  C   UNL     1       3.272   4.594  17.633  0.00  0.00    +0.000 A 
ATOM     10  C   UNL     1       2.400   5.605  18.060  0.00  0.00    +0.000 A 
BRANCH   9  11
ATOM     11  C   UNL     1       2.887   3.146  17.805  0.00  0.00    +0.000 C 
BRANCH  11  12
ATOM     12  N   UNL     1       2.549   2.787  19.166  0.00  0.00    +0.000 N 
ATOM     13  C   UNL     1       3.389   3.141  20.286  0.00  0.00    +0.000 C 
ATOM     14  C   UNL     1       2.622   2.610  21.481  0.00  0.00    +0.000 C 
ATOM     15  C   UNL     1       1.167   2.759  21.065  0.00  0.00    +0.000 C 
ATOM     16  C   UNL     1       1.226   2.624  19.563  0.00  0.00    +0.000 C 
ATOM     17  O   UNL     1       0.260   2.481  18.831  0.00  0.00    +0.000 OA
ENDBRANCH  11  12
ENDBRANCH   9  11
ENDBRANCH   2   5
BRANCH   3  18
ATOM     18  C   UNL     1       1.034   9.184  20.387  0.00  0.00    +0.000 A 
ATOM     19  C   UNL     1       1.066  10.578  20.164  0.00  0.00    +0.000 A 
ATOM     20  N   UNL     1       0.285  11.250  21.016  0.00  0.00    +0.000 NA
ATOM     21  N   UNL     1      -0.236  10.280  21.799  0.00  0.00    +0.000 N 
ATOM     22  C   UNL     1       0.123   9.017  21.403  0.00  0.00    +0.000 A 
BRANCH  21  23
ATOM     23  C   UNL     1      -0.897  10.645  23.044  0.00  0.00    +0.000 C 
BRANCH  23  24
ATOM     24  C   UNL     1      -1.475  12.032  23.017  0.00  0.00    +0.000 A 
ATOM     25  C   UNL     1      -2.783  12.262  22.592  0.00  0.00    +0.000 A 
ATOM     26  C   UNL     1      -3.243  13.572  22.497  0.00  0.00    +0.000 A 
ATOM     27  C   UNL     1      -2.388  14.619  22.816  0.00  0.00    +0.000 A 
ATOM     28  C   UNL     1      -1.102  14.310  23.227  0.00  0.00    +0.000 A 
ATOM     29  N   UNL     1      -0.629  13.049  23.334  0.00  0.00    +0.000 NA
ENDBRANCH  23  24
ENDBRANCH  21  23
ENDBRANCH   3  18
TORSDOF 6
ENDMDL
MODEL 3
REMARK VINA RESULT:      -8.0      2.586      4.631
REMARK  Name = 
REMARK  6 active torsions:
REMARK  status: ('A' for Active; 'I' for Inactive)
REMARK    1  A    between atoms: C_2  and  C_16
REMARK    2  A    between atoms: N_3  and  C_4
REMARK    3  A    between atoms: N_7  and  C_8
REMARK    4  A    between atoms: C_8  and  C_9
REMARK    5  A    between atoms: C_20  and  C_21
REMARK    6  A    between atoms: C_21  and  N_22
REMARK                            x       y       z     vdW  Elec       q    Type
REMARK                         _______ _______ _______ _____ _____    ______ ____
ROOT
ATOM      1  O   UNL     1       2.181   7.531  18.278  0.00  0.00    +0.000 OA
ATOM      2  C   UNL     1       2.329   6.940  19.343  0.00  0.00    +0.000 C 
ATOM      3  N   UNL     1       1.846   7.351  20.573  0.00  0.00    +0.000 N 
ATOM      4  H   UNL     1       2.164   6.889  21.415  0.00  0.00    +0.000 HD
ENDROOT
BRANCH   2   5
ATOM      5  C   UNL     1       3.166   5.715  19.361  0.00  0.00    +0.000 A 
ATOM      6  C   UNL     1       2.625   4.552  19.925  0.00  0.00    +0.000 A 
ATOM      7  C   UNL     1       3.380   3.380  19.967  0.00  0.00    +0.000 A 
ATOM      8  C   UNL     1       4.672   3.362  19.438  0.00  0.00    +0.000 A 
ATOM      9  C   UNL     1       5.221   4.518  18.861  0.00  0.00    +0.000 A 
ATOM     10  C   UNL     1       4.469   5.700  18.848  0.00  0.00    +0.000 A 
BRANCH   9  11
ATOM     11  C   UNL     1       6.599   4.495  18.248  0.00  0.00    +0.000 C 
BRANCH  11  12
ATOM     12  N   UNL     1       6.595   4.434  16.802  0.00  0.00    +0.000 N 
ATOM     13  C   UNL     1       5.728   3.540  16.071  0.00  0.00    +0.000 C 
ATOM     14  C   UNL     1       6.036   3.860  14.622  0.00  0.00    +0.000 C 
ATOM     15  C   UNL     1       6.371   5.343  14.648  0.00  0.00    +0.000 C 
ATOM     16  C   UNL     1       6.939   5.541  16.032  0.00  0.00    +0.000 C 
ATOM     17  O   UNL     1       7.522   6.541  16.417  0.00  0.00    +0.000 OA
ENDBRANCH  11  12
ENDBRANCH   9  11
ENDBRANCH   2   5
BRANCH   3  18
ATOM     18  C   UNL     1       1.132   8.523  20.738  0.00  0.00    +0.000 A 
ATOM     19  C   UNL     1       0.223   8.917  21.744  0.00  0.00    +0.000 A 
ATOM     20  N   UNL     1      -0.335  10.106  21.492  0.00  0.00    +0.000 NA
ATOM     21  N   UNL     1       0.209  10.465  20.308  0.00  0.00    +0.000 N 
ATOM     22  C   UNL     1       1.157   9.581  19.860  0.00  0.00    +0.000 A 
BRANCH  21  23
ATOM     23  C   UNL     1      -0.384  11.560  19.553  0.00  0.00    +0.000 C 
BRANCH  23  24
ATOM     24  C   UNL     1      -1.639  11.161  18.830  0.00  0.00    +0.000 A 
ATOM     25  C   UNL     1      -1.625  10.170  17.849  0.00  0.00    +0.000 A 
ATOM     26  C   UNL     1      -2.794   9.900  17.144  0.00  0.00    +0.000 A 
ATOM     27  C   UNL     1      -3.942  10.628  17.424  0.00  0.00    +0.000 A 
ATOM     28  C   UNL     1      -3.877  11.597  18.410  0.00  0.00    +0.000 A 
ATOM     29  N   UNL     1      -2.759  11.878  19.115  0.00  0.00    +0.000 NA
ENDBRANCH  23  24
ENDBRANCH  21  23
ENDBRANCH   3  18
TORSDOF 6
ENDMDL
MODEL 4
REMARK VINA RESULT:      -8.0      2.661      9.090
REMARK  Name = 
REMARK  6 active torsions:
REMARK  status: ('A' for Active; 'I' for Inactive)
REMARK    1  A    between atoms: C_2  and  C_16
REMARK    2  A    between atoms: N_3  and  C_4
REMARK    3  A    between atoms: N_7  and  C_8
REMARK    4  A    between atoms: C_8  and  C_9
REMARK    5  A    between atoms: C_20  and  C_21
REMARK    6  A    between atoms: C_21  and  N_22
REMARK                            x       y       z     vdW  Elec       q    Type
REMARK                         _______ _______ _______ _____ _____    ______ ____
ROOT
ATOM      1  O   UNL     1       2.102   8.060  19.246  0.00  0.00    +0.000 OA
ATOM      2  C   UNL     1       1.577   7.879  20.340  0.00  0.00    +0.000 C 
ATOM      3  N   UNL     1       1.597   6.702  21.067  0.00  0.00    +0.000 N 
ATOM      4  H   UNL     1       0.994   6.600  21.872  0.00  0.00    +0.000 HD
ENDROOT
BRANCH   2   5
ATOM      5  C   UNL     1       0.768   8.977  20.925  0.00  0.00    +0.000 A 
ATOM      6  C   UNL     1       0.582   8.995  22.313  0.00  0.00    +0.000 A 
ATOM      7  C   UNL     1      -0.176  10.006  22.904  0.00  0.00    +0.000 A 
ATOM      8  C   UNL     1      -0.740  11.009  22.113  0.00  0.00    +0.000 A 
ATOM      9  C   UNL     1      -0.551  11.008  20.722  0.00  0.00    +0.000 A 
ATOM     10  C   UNL     1       0.186   9.973  20.131  0.00  0.00    +0.000 A 
BRANCH   9  11
ATOM     11  C   UNL     1      -1.120  12.111  19.866  0.00  0.00    +0.000 C 
BRANCH  11  12
ATOM     12  N   UNL     1      -2.467  11.856  19.400  0.00  0.00    +0.000 N 
ATOM     13  C   UNL     1      -3.609  12.573  19.918  0.00  0.00    +0.000 C 
ATOM     14  C   UNL     1      -4.767  12.014  19.115  0.00  0.00    +0.000 C 
ATOM     15  C   UNL     1      -4.144  11.700  17.763  0.00  0.00    +0.000 C 
ATOM     16  C   UNL     1      -2.709  11.389  18.112  0.00  0.00    +0.000 C 
ATOM     17  O   UNL     1      -1.893  10.891  17.354  0.00  0.00    +0.000 OA
ENDBRANCH  11  12
ENDBRANCH   9  11
ENDBRANCH   2   5
BRANCH   3  18
ATOM     18  C   UNL     1       2.225   5.557  20.611  0.00  0.00    +0.000 A 
ATOM     19  C   UNL     1       2.056   4.204  20.976  0.00  0.00    +0.000 A 
ATOM     20  N   UNL     1       2.929   3.397  20.364  0.00  0.00    +0.000 NA
ATOM     21  N   UNL     1       3.671   4.243  19.616  0.00  0.00    +0.000 N 
ATOM     22  C   UNL     1       3.230   5.540  19.672  0.00  0.00    +0.000 A 
BRANCH  21  23
ATOM     23  C   UNL     1       4.926   3.777  19.044  0.00  0.00    +0.000 C 
BRANCH  23  24
ATOM     24  C   UNL     1       5.874   4.897  18.720  0.00  0.00    +0.000 A 
ATOM     25  C   UNL     1       5.773   5.607  17.524  0.00  0.00    +0.000 A 
ATOM     26  C   UNL     1       6.730   6.573  17.228  0.00  0.00    +0.000 A 
ATOM     27  C   UNL     1       7.768   6.800  18.122  0.00  0.00    +0.000 A 
ATOM     28  C   UNL     1       7.802   6.053  19.287  0.00  0.00    +0.000 A 
ATOM     29  N   UNL     1       6.885   5.113  19.604  0.00  0.00    +0.000 NA
ENDBRANCH  23  24
ENDBRANCH  21  23
ENDBRANCH   3  18
TORSDOF 6
ENDMDL
MODEL 5
REMARK VINA RESULT:      -7.9      6.807     11.038
REMARK  Name = 
REMARK  6 active torsions:
REMARK  status: ('A' for Active; 'I' for Inactive)
REMARK    1  A    between atoms: C_2  and  C_16
REMARK    2  A    between atoms: N_3  and  C_4
REMARK    3  A    between atoms: N_7  and  C_8
REMARK    4  A    between atoms: C_8  and  C_9
REMARK    5  A    between atoms: C_20  and  C_21
REMARK    6  A    between atoms: C_21  and  N_22
REMARK                            x       y       z     vdW  Elec       q    Type
REMARK                         _______ _______ _______ _____ _____    ______ ____
ROOT
ATOM      1  O   UNL     1       7.427   9.482  17.373  0.00  0.00    +0.000 OA
ATOM      2  C   UNL     1       8.314   9.211  18.175  0.00  0.00    +0.000 C 
ATOM      3  N   UNL     1       8.585   7.957  18.695  0.00  0.00    +0.000 N 
ATOM      4  H   UNL     1       9.221   7.865  19.475  0.00  0.00    +0.000 HD
ENDROOT
BRANCH   2   5
ATOM      5  C   UNL     1       9.135  10.320  18.722  0.00  0.00    +0.000 A 
ATOM      6  C   UNL     1       9.324  10.382  20.108  0.00  0.00    +0.000 A 
ATOM      7  C   UNL     1      10.085  11.411  20.665  0.00  0.00    +0.000 A 
ATOM      8  C   UNL     1      10.669  12.372  19.838  0.00  0.00    +0.000 A 
ATOM      9  C   UNL     1      10.496  12.314  18.446  0.00  0.00    +0.000 A 
ATOM     10  C   UNL     1       9.706  11.296  17.896  0.00  0.00    +0.000 A 
BRANCH   9  11
ATOM     11  C   UNL     1      11.160  13.323  17.543  0.00  0.00    +0.000 C 
BRANCH  11  12
ATOM     12  N   UNL     1      10.476  14.598  17.486  0.00  0.00    +0.000 N 
ATOM     13  C   UNL     1       9.214  14.824  18.150  0.00  0.00    +0.000 C 
ATOM     14  C   UNL     1       8.920  16.283  17.857  0.00  0.00    +0.000 C 
ATOM     15  C   UNL     1      10.301  16.919  17.799  0.00  0.00    +0.000 C 
ATOM     16  C   UNL     1      11.179  15.788  17.324  0.00  0.00    +0.000 C 
ATOM     17  O   UNL     1      12.333  15.904  16.947  0.00  0.00    +0.000 OA
ENDBRANCH  11  12
ENDBRANCH   9  11
ENDBRANCH   2   5
BRANCH   3  18
ATOM     18  C   UNL     1       7.844   6.839  18.360  0.00  0.00    +0.000 A 
ATOM     19  C   UNL     1       7.293   6.432  17.126  0.00  0.00    +0.000 A 
ATOM     20  N   UNL     1       6.555   5.322  17.236  0.00  0.00    +0.000 NA
ATOM     21  N   UNL     1       6.622   5.028  18.553  0.00  0.00    +0.000 N 
ATOM     22  C   UNL     1       7.453   5.867  19.251  0.00  0.00    +0.000 A 
BRANCH  21  23
ATOM     23  C   UNL     1       5.691   4.062  19.117  0.00  0.00    +0.000 C 
BRANCH  23  24
ATOM     24  C   UNL     1       4.270   4.299  18.691  0.00  0.00    +0.000 A 
ATOM     25  C   UNL     1       3.593   3.380  17.889  0.00  0.00    +0.000 A 
ATOM     26  C   UNL     1       2.310   3.687  17.444  0.00  0.00    +0.000 A 
ATOM     27  C   UNL     1       1.739   4.901  17.799  0.00  0.00    +0.000 A 
ATOM     28  C   UNL     1       2.474   5.762  18.596  0.00  0.00    +0.000 A 
ATOM     29  N   UNL     1       3.718   5.490  19.047  0.00  0.00    +0.000 NA
ENDBRANCH  23  24
ENDBRANCH  21  23
ENDBRANCH   3  18
TORSDOF 6
ENDMDL
MODEL 6
REMARK VINA RESULT:      -7.9      1.782      2.790
REMARK  Name = 
REMARK  6 active torsions:
REMARK  status: ('A' for Active; 'I' for Inactive)
REMARK    1  A    between atoms: C_2  and  C_16
REMARK    2  A    between atoms: N_3  and  C_4
REMARK    3  A    between atoms: N_7  and  C_8
REMARK    4  A    between atoms: C_8  and  C_9
REMARK    5  A    between atoms: C_20  and  C_21
REMARK    6  A    between atoms: C_21  and  N_22
REMARK                            x       y       z     vdW  Elec       q    Type
REMARK                         _______ _______ _______ _____ _____    ______ ____
ROOT
ATOM      1  O   UNL     1       2.076   7.824  19.889  0.00  0.00    +0.000 OA
ATOM      2  C   UNL     1       2.238   7.839  18.673  0.00  0.00    +0.000 C 
ATOM      3  N   UNL     1       1.719   8.777  17.797  0.00  0.00    +0.000 N 
ATOM      4  H   UNL     1       1.764   8.609  16.801  0.00  0.00    +0.000 HD
ENDROOT
BRANCH   2   5
ATOM      5  C   UNL     1       2.983   6.720  18.044  0.00  0.00    +0.000 A 
ATOM      6  C   UNL     1       4.109   7.027  17.271  0.00  0.00    +0.000 A 
ATOM      7  C   UNL     1       4.836   6.006  16.658  0.00  0.00    +0.000 A 
ATOM      8  C   UNL     1       4.446   4.676  16.825  0.00  0.00    +0.000 A 
ATOM      9  C   UNL     1       3.325   4.355  17.606  0.00  0.00    +0.000 A 
ATOM     10  C   UNL     1       2.583   5.387  18.195  0.00  0.00    +0.000 A 
BRANCH   9  11
ATOM     11  C   UNL     1       2.924   2.918  17.827  0.00  0.00    +0.000 C 
BRANCH  11  12
ATOM     12  N   UNL     1       2.570   2.612  19.197  0.00  0.00    +0.000 N 
ATOM     13  C   UNL     1       3.418   2.972  20.309  0.00  0.00    +0.000 C 
ATOM     14  C   UNL     1       2.629   2.504  21.517  0.00  0.00    +0.000 C 
ATOM     15  C   UNL     1       1.181   2.689  21.089  0.00  0.00    +0.000 C 
ATOM     16  C   UNL     1       1.241   2.506  19.593  0.00  0.00    +0.000 C 
ATOM     17  O   UNL     1       0.273   2.374  18.861  0.00  0.00    +0.000 OA
ENDBRANCH  11  12
ENDBRANCH   9  11
ENDBRANCH   2   5
BRANCH   3  18
ATOM     18  C   UNL     1       0.921   9.825  18.216  0.00  0.00    +0.000 A 
ATOM     19  C   UNL     1      -0.454  10.076  18.016  0.00  0.00    +0.000 A 
ATOM     20  N   UNL     1      -0.835  11.260  18.507  0.00  0.00    +0.000 NA
ATOM     21  N   UNL     1       0.309  11.775  19.010  0.00  0.00    +0.000 N 
ATOM     22  C   UNL     1       1.371  10.911  18.929  0.00  0.00    +0.000 A 
BRANCH  21  23
ATOM     23  C   UNL     1       0.364  13.188  19.355  0.00  0.00    +0.000 C 
BRANCH  23  24
ATOM     24  C   UNL     1       1.767  13.720  19.427  0.00  0.00    +0.000 A 
ATOM     25  C   UNL     1       2.408  13.906  20.652  0.00  0.00    +0.000 A 
ATOM     26  C   UNL     1       3.673  14.487  20.673  0.00  0.00    +0.000 A 
ATOM     27  C   UNL     1       4.262  14.877  19.478  0.00  0.00    +0.000 A 
ATOM     28  C   UNL     1       3.562  14.663  18.303  0.00  0.00    +0.000 A 
ATOM     29  N   UNL     1       2.337  14.097  18.251  0.00  0.00    +0.000 NA
ENDBRANCH  23  24
ENDBRANCH  21  23
ENDBRANCH   3  18
TORSDOF 6
ENDMDL
MODEL 7
REMARK VINA RESULT:      -7.8      1.616      2.575
REMARK  Name = 
REMARK  6 active torsions:
REMARK  status: ('A' for Active; 'I' for Inactive)
REMARK    1  A    between atoms: C_2  and  C_16
REMARK    2  A    between atoms: N_3  and  C_4
REMARK    3  A    between atoms: N_7  and  C_8
REMARK    4  A    between atoms: C_8  and  C_9
REMARK    5  A    between atoms: C_20  and  C_21
REMARK    6  A    between atoms: C_21  and  N_22
REMARK                            x       y       z     vdW  Elec       q    Type
REMARK                         _______ _______ _______ _____ _____    ______ ____
ROOT
ATOM      1  O   UNL     1       1.619   8.468  17.413  0.00  0.00    +0.000 OA
ATOM      2  C   UNL     1       2.117   7.777  18.295  0.00  0.00    +0.000 C 
ATOM      3  N   UNL     1       1.922   7.932  19.657  0.00  0.00    +0.000 N 
ATOM      4  H   UNL     1       2.507   7.426  20.307  0.00  0.00    +0.000 HD
ENDROOT
BRANCH   2   5
ATOM      5  C   UNL     1       3.086   6.722  17.905  0.00  0.00    +0.000 A 
ATOM      6  C   UNL     1       4.321   7.121  17.378  0.00  0.00    +0.000 A 
ATOM      7  C   UNL     1       5.259   6.162  16.994  0.00  0.00    +0.000 A 
ATOM      8  C   UNL     1       4.972   4.805  17.146  0.00  0.00    +0.000 A 
ATOM      9  C   UNL     1       3.742   4.393  17.683  0.00  0.00    +0.000 A 
ATOM     10  C   UNL     1       2.792   5.360  18.039  0.00  0.00    +0.000 A 
BRANCH   9  11
ATOM     11  C   UNL     1       3.442   2.930  17.891  0.00  0.00    +0.000 C 
BRANCH  11  12
ATOM     12  N   UNL     1       2.856   2.630  19.180  0.00  0.00    +0.000 N 
ATOM     13  C   UNL     1       3.502   2.988  20.421  0.00  0.00    +0.000 C 
ATOM     14  C   UNL     1       2.514   2.527  21.476  0.00  0.00    +0.000 C 
ATOM     15  C   UNL     1       1.162   2.719  20.805  0.00  0.00    +0.000 C 
ATOM     16  C   UNL     1       1.477   2.532  19.342  0.00  0.00    +0.000 C 
ATOM     17  O   UNL     1       0.650   2.403  18.454  0.00  0.00    +0.000 OA
ENDBRANCH  11  12
ENDBRANCH   9  11
ENDBRANCH   2   5
BRANCH   3  18
ATOM     18  C   UNL     1       1.126   8.932  20.184  0.00  0.00    +0.000 A 
ATOM     19  C   UNL     1       0.337   8.963  21.354  0.00  0.00    +0.000 A 
ATOM     20  N   UNL     1      -0.367  10.095  21.467  0.00  0.00    +0.000 NA
ATOM     21  N   UNL     1      -0.039  10.783  20.351  0.00  0.00    +0.000 N 
ATOM     22  C   UNL     1       0.918  10.156  19.593  0.00  0.00    +0.000 A 
BRANCH  21  23
ATOM     23  C   UNL     1      -0.841  11.933  19.959  0.00  0.00    +0.000 C 
BRANCH  23  24
ATOM     24  C   UNL     1      -2.105  11.549  19.242  0.00  0.00    +0.000 A 
ATOM     25  C   UNL     1      -2.109  10.550  18.269  0.00  0.00    +0.000 A 
ATOM     26  C   UNL     1      -3.284  10.294  17.568  0.00  0.00    +0.000 A 
ATOM     27  C   UNL     1      -4.419  11.045  17.845  0.00  0.00    +0.000 A 
ATOM     28  C   UNL     1      -4.335  12.020  18.823  0.00  0.00    +0.000 A 
ATOM     29  N   UNL     1      -3.211  12.288  19.523  0.00  0.00    +0.000 NA
ENDBRANCH  23  24
ENDBRANCH  21  23
ENDBRANCH   3  18
TORSDOF 6
ENDMDL
MODEL 8
REMARK VINA RESULT:      -7.8      2.511      9.034
REMARK  Name = 
REMARK  6 active torsions:
REMARK  status: ('A' for Active; 'I' for Inactive)
REMARK    1  A    between atoms: C_2  and  C_16
REMARK    2  A    between atoms: N_3  and  C_4
REMARK    3  A    between atoms: N_7  and  C_8
REMARK    4  A    between atoms: C_8  and  C_9
REMARK    5  A    between atoms: C_20  and  C_21
REMARK    6  A    between atoms: C_21  and  N_22
REMARK                            x       y       z     vdW  Elec       q    Type
REMARK                         _______ _______ _______ _____ _____    ______ ____
ROOT
ATOM      1  O   UNL     1       2.632   7.556  19.260  0.00  0.00    +0.000 OA
ATOM      2  C   UNL     1       1.818   7.483  20.175  0.00  0.00    +0.000 C 
ATOM      3  N   UNL     1       1.477   6.334  20.869  0.00  0.00    +0.000 N 
ATOM      4  H   UNL     1       0.676   6.342  21.486  0.00  0.00    +0.000 HD
ENDROOT
BRANCH   2   5
ATOM      5  C   UNL     1       1.051   8.700  20.538  0.00  0.00    +0.000 A 
ATOM      6  C   UNL     1       0.778   8.930  21.892  0.00  0.00    +0.000 A 
ATOM      7  C   UNL     1       0.056  10.060  22.277  0.00  0.00    +0.000 A 
ATOM      8  C   UNL     1      -0.385  10.968  21.314  0.00  0.00    +0.000 A 
ATOM      9  C   UNL     1      -0.109  10.754  19.954  0.00  0.00    +0.000 A 
ATOM     10  C   UNL     1       0.592   9.602  19.571  0.00  0.00    +0.000 A 
BRANCH   9  11
ATOM     11  C   UNL     1      -0.544  11.753  18.911  0.00  0.00    +0.000 C 
BRANCH  11  12
ATOM     12  N   UNL     1      -1.707  11.341  18.155  0.00  0.00    +0.000 N 
ATOM     13  C   UNL     1      -1.682  10.207  17.261  0.00  0.00    +0.000 C 
ATOM     14  C   UNL     1      -3.106  10.135  16.746  0.00  0.00    +0.000 C 
ATOM     15  C   UNL     1      -3.935  10.634  17.920  0.00  0.00    +0.000 C 
ATOM     16  C   UNL     1      -2.995  11.583  18.622  0.00  0.00    +0.000 C 
ATOM     17  O   UNL     1      -3.313  12.363  19.505  0.00  0.00    +0.000 OA
ENDBRANCH  11  12
ENDBRANCH   9  11
ENDBRANCH   2   5
BRANCH   3  18
ATOM     18  C   UNL     1       2.031   5.101  20.582  0.00  0.00    +0.000 A 
ATOM     19  C   UNL     1       2.415   4.041  21.432  0.00  0.00    +0.000 A 
ATOM     20  N   UNL     1       3.005   3.041  20.768  0.00  0.00    +0.000 NA
ATOM     21  N   UNL     1       3.013   3.474  19.488  0.00  0.00    +0.000 N 
ATOM     22  C   UNL     1       2.364   4.670  19.319  0.00  0.00    +0.000 A 
BRANCH  21  23
ATOM     23  C   UNL     1       3.851   2.795  18.511  0.00  0.00    +0.000 C 
BRANCH  23  24
ATOM     24  C   UNL     1       4.880   3.700  17.892  0.00  0.00    +0.000 A 
ATOM     25  C   UNL     1       4.888   3.954  16.520  0.00  0.00    +0.000 A 
ATOM     26  C   UNL     1       5.914   4.724  15.981  0.00  0.00    +0.000 A 
ATOM     27  C   UNL     1       6.910   5.212  16.816  0.00  0.00    +0.000 A 
ATOM     28  C   UNL     1       6.834   4.915  18.166  0.00  0.00    +0.000 A 
ATOM     29  N   UNL     1       5.848   4.175  18.719  0.00  0.00    +0.000 NA
ENDBRANCH  23  24
ENDBRANCH  21  23
ENDBRANCH   3  18
TORSDOF 6
ENDMDL
MODEL 9
REMARK VINA RESULT:      -7.8      6.649     10.958
REMARK  Name = 
REMARK  6 active torsions:
REMARK  status: ('A' for Active; 'I' for Inactive)
REMARK    1  A    between atoms: C_2  and  C_16
REMARK    2  A    between atoms: N_3  and  C_4
REMARK    3  A    between atoms: N_7  and  C_8
REMARK    4  A    between atoms: C_8  and  C_9
REMARK    5  A    between atoms: C_20  and  C_21
REMARK    6  A    between atoms: C_21  and  N_22
REMARK                            x       y       z     vdW  Elec       q    Type
REMARK                         _______ _______ _______ _____ _____    ______ ____
ROOT
ATOM      1  O   UNL     1       7.349   9.467  17.363  0.00  0.00    +0.000 OA
ATOM      2  C   UNL     1       8.254   9.231  18.157  0.00  0.00    +0.000 C 
ATOM      3  N   UNL     1       8.571   7.989  18.682  0.00  0.00    +0.000 N 
ATOM      4  H   UNL     1       9.218   7.924  19.455  0.00  0.00    +0.000 HD
ENDROOT
BRANCH   2   5
ATOM      5  C   UNL     1       9.045  10.369  18.687  0.00  0.00    +0.000 A 
ATOM      6  C   UNL     1       9.425  10.340  20.034  0.00  0.00    +0.000 A 
ATOM      7  C   UNL     1      10.166  11.392  20.574  0.00  0.00    +0.000 A 
ATOM      8  C   UNL     1      10.538  12.469  19.768  0.00  0.00    +0.000 A 
ATOM      9  C   UNL     1      10.172  12.505  18.413  0.00  0.00    +0.000 A 
ATOM     10  C   UNL     1       9.403  11.459  17.884  0.00  0.00    +0.000 A 
BRANCH   9  11
ATOM     11  C   UNL     1      10.607  13.643  17.526  0.00  0.00    +0.000 C 
BRANCH  11  12
ATOM     12  N   UNL     1      10.405  14.952  18.110  0.00  0.00    +0.000 N 
ATOM     13  C   UNL     1      11.488  15.892  18.285  0.00  0.00    +0.000 C 
ATOM     14  C   UNL     1      10.802  17.110  18.872  0.00  0.00    +0.000 C 
ATOM     15  C   UNL     1       9.419  17.080  18.241  0.00  0.00    +0.000 C 
ATOM     16  C   UNL     1       9.182  15.608  18.007  0.00  0.00    +0.000 C 
ATOM     17  O   UNL     1       8.113  15.107  17.699  0.00  0.00    +0.000 OA
ENDBRANCH  11  12
ENDBRANCH   9  11
ENDBRANCH   2   5
BRANCH   3  18
ATOM     18  C   UNL     1       7.863   6.845  18.364  0.00  0.00    +0.000 A 
ATOM     19  C   UNL     1       7.406   6.359  17.120  0.00  0.00    +0.000 A 
ATOM     20  N   UNL     1       6.668   5.250  17.243  0.00  0.00    +0.000 NA
ATOM     21  N   UNL     1       6.640   5.038  18.578  0.00  0.00    +0.000 N 
ATOM     22  C   UNL     1       7.412   5.926  19.282  0.00  0.00    +0.000 A 
BRANCH  21  23
ATOM     23  C   UNL     1       5.675   4.098  19.131  0.00  0.00    +0.000 C 
BRANCH  23  24
ATOM     24  C   UNL     1       4.293   4.276  18.568  0.00  0.00    +0.000 A 
ATOM     25  C   UNL     1       3.529   5.403  18.870  0.00  0.00    +0.000 A 
ATOM     26  C   UNL     1       2.222   5.480  18.399  0.00  0.00    +0.000 A 
ATOM     27  C   UNL     1       1.705   4.431  17.651  0.00  0.00    +0.000 A 
ATOM     28  C   UNL     1       2.524   3.345  17.395  0.00  0.00    +0.000 A 
ATOM     29  N   UNL     1       3.798   3.245  17.833  0.00  0.00    +0.000 NA
ENDBRANCH  23  24
ENDBRANCH  21  23
ENDBRANCH   3  18
TORSDOF 6
ENDMDL
