MODEL 1
REMARK VINA RESULT:      -9.0      0.000      0.000
REMARK  Name = 
REMARK  9 active torsions:
REMARK  status: ('A' for Active; 'I' for Inactive)
REMARK    1  A    between atoms: C_1  and  C_2
REMARK    2  A    between atoms: C_2  and  C_3
REMARK    3  A    between atoms: C_2  and  C_4
REMARK    4  A    between atoms: C_4  and  C_5
REMARK    5  A    between atoms: C_9  and  C_10
REMARK    6  A    between atoms: N_16  and  C_17
REMARK    7  A    between atoms: C_21  and  C_22
REMARK    8  A    between atoms: C_22  and  C_23
REMARK    9  A    between atoms: C_23  and  C_24
REMARK                            x       y       z     vdW  Elec       q    Type
REMARK                         _______ _______ _______ _____ _____    ______ ____
ROOT
ATOM      1  C   UNL     1       3.711   4.636  17.624  0.00  0.00    +0.000 A 
ATOM      2  C   UNL     1       3.419   6.003  17.712  0.00  0.00    +0.000 A 
ATOM      3  C   UNL     1       2.691   6.439  18.800  0.00  0.00    +0.000 A 
ATOM      4  C   UNL     1       2.251   5.590  19.808  0.00  0.00    +0.000 A 
ATOM      5  C   UNL     1       2.494   4.224  19.738  0.00  0.00    +0.000 A 
ATOM      6  C   UNL     1       3.208   3.756  18.615  0.00  0.00    +0.000 A 
ATOM      7  C   UNL     1       1.547   6.389  20.855  0.00  0.00    +0.000 C 
ATOM      8  N   UNL     1       1.553   7.740  20.314  0.00  0.00    +0.000 N 
ATOM      9  C   UNL     1       2.244   7.804  19.103  0.00  0.00    +0.000 C 
ATOM     10  O   UNL     1       2.473   8.740  18.357  0.00  0.00    +0.000 OA
ENDROOT
BRANCH   8  11
ATOM     11  C   UNL     1       0.822   8.788  20.927  0.00  0.00    +0.000 A 
ATOM     12  C   UNL     1       0.651   8.854  22.312  0.00  0.00    +0.000 A 
ATOM     13  C   UNL     1      -0.007   9.936  22.904  0.00  0.00    +0.000 A 
ATOM     14  C   UNL     1      -0.513  10.967  22.116  0.00  0.00    +0.000 A 
ATOM     15  C   UNL     1      -0.364  10.927  20.728  0.00  0.00    +0.000 A 
ATOM     16  C   UNL     1       0.289   9.828  20.147  0.00  0.00    +0.000 A 
BRANCH  15  17
ATOM     17  C   UNL     1      -0.891  12.034  19.844  0.00  0.00    +0.000 C 
BRANCH  17  18
ATOM     18  C   UNL     1      -0.791  11.699  18.353  0.00  0.00    +0.000 C 
BRANCH  18  19
ATOM     19  C   UNL     1      -2.077  11.166  17.839  0.00  0.00    +0.000 A 
ATOM     20  N   UNL     1      -2.501   9.920  17.874  0.00  0.00    +0.000 NA
ATOM     21  N   UNL     1      -3.748   9.878  17.291  0.00  0.00    +0.000 NA
ATOM     22  C   UNL     1      -4.052  11.096  16.906  0.00  0.00    +0.000 A 
ATOM     23  N   UNL     1      -3.033  11.931  17.230  0.00  0.00    +0.000 N 
ATOM     24  H   UNL     1      -2.990  12.931  17.054  0.00  0.00    +0.000 HD
ENDBRANCH  18  19
ENDBRANCH  17  18
ENDBRANCH  15  17
ENDBRANCH   8  11
BRANCH   5  25
ATOM     25  C   UNL     1       2.047   3.257  20.802  0.00  0.00    +0.000 C 
ATOM     26  F   UNL     1       2.484   1.984  20.599  0.00  0.00    +0.000 F 
ATOM     27  F   UNL     1       2.482   3.608  22.042  0.00  0.00    +0.000 F 
ATOM     28  F   UNL     1       0.691   3.173  20.887  0.00  0.00    +0.000 F 
ENDBRANCH   5  25
BRANCH   1  29
ATOM     29  C   UNL     1       4.601   4.111  16.522  0.00  0.00    +0.000 C 
BRANCH  29  31
ATOM     30  C   UNL     1       6.997   4.675  17.216  0.00  0.00    +0.000 C 
ATOM     31  C   UNL     1       5.839   5.000  16.268  0.00  0.00    +0.000 C 
ATOM     32  C   UNL     1       6.318   4.852  14.822  0.00  0.00    +0.000 C 
ENDBRANCH  29  31
ENDBRANCH   1  29
TORSDOF 7
ENDMDL
MODEL 2
REMARK VINA RESULT:      -8.8      1.029      1.298
REMARK  Name = 
REMARK  9 active torsions:
REMARK  status: ('A' for Active; 'I' for Inactive)
REMARK    1  A    between atoms: C_1  and  C_2
REMARK    2  A    between atoms: C_2  and  C_3
REMARK    3  A    between atoms: C_2  and  C_4
REMARK    4  A    between atoms: C_4  and  C_5
REMARK    5  A    between atoms: C_9  and  C_10
REMARK    6  A    between atoms: N_16  and  C_17
REMARK    7  A    between atoms: C_21  and  C_22
REMARK    8  A    between atoms: C_22  and  C_23
REMARK    9  A    between atoms: C_23  and  C_24
REMARK                            x       y       z     vdW  Elec       q    Type
REMARK                         _______ _______ _______ _____ _____    ______ ____
ROOT
ATOM      1  C   UNL     1       4.187   6.075  17.074  0.00  0.00    +0.000 A 
ATOM      2  C   UNL     1       3.647   7.350  17.287  0.00  0.00    +0.000 A 
ATOM      3  C   UNL     1       2.854   7.538  18.401  0.00  0.00    +0.000 A 
ATOM      4  C   UNL     1       2.584   6.530  19.318  0.00  0.00    +0.000 A 
ATOM      5  C   UNL     1       3.076   5.245  19.122  0.00  0.00    +0.000 A 
ATOM      6  C   UNL     1       3.860   5.027  17.970  0.00  0.00    +0.000 A 
ATOM      7  C   UNL     1       1.748   7.081  20.426  0.00  0.00    +0.000 C 
ATOM      8  N   UNL     1       1.501   8.455  20.015  0.00  0.00    +0.000 N 
ATOM      9  C   UNL     1       2.163   8.761  18.825  0.00  0.00    +0.000 C 
ATOM     10  O   UNL     1       2.212   9.790  18.174  0.00  0.00    +0.000 OA
ENDROOT
BRANCH   8  11
ATOM     11  C   UNL     1       0.591   9.287  20.714  0.00  0.00    +0.000 A 
ATOM     12  C   UNL     1       0.487   9.256  22.108  0.00  0.00    +0.000 A 
ATOM     13  C   UNL     1      -0.361  10.137  22.784  0.00  0.00    +0.000 A 
ATOM     14  C   UNL     1      -1.127  11.059  22.075  0.00  0.00    +0.000 A 
ATOM     15  C   UNL     1      -1.050  11.111  20.681  0.00  0.00    +0.000 A 
ATOM     16  C   UNL     1      -0.202  10.211  20.015  0.00  0.00    +0.000 A 
BRANCH  15  17
ATOM     17  C   UNL     1      -1.859  12.105  19.881  0.00  0.00    +0.000 C 
BRANCH  17  18
ATOM     18  C   UNL     1      -1.415  12.189  18.418  0.00  0.00    +0.000 C 
BRANCH  18  19
ATOM     19  C   UNL     1      -2.448  11.626  17.514  0.00  0.00    +0.000 A 
ATOM     20  N   UNL     1      -3.607  11.099  17.848  0.00  0.00    +0.000 NA
ATOM     21  N   UNL     1      -4.248  10.710  16.693  0.00  0.00    +0.000 NA
ATOM     22  C   UNL     1      -3.463  11.001  15.682  0.00  0.00    +0.000 A 
ATOM     23  N   UNL     1      -2.327  11.575  16.152  0.00  0.00    +0.000 N 
ATOM     24  H   UNL     1      -1.539  11.902  15.600  0.00  0.00    +0.000 HD
ENDBRANCH  18  19
ENDBRANCH  17  18
ENDBRANCH  15  17
ENDBRANCH   8  11
BRANCH   5  25
ATOM     25  C   UNL     1       2.820   4.115  20.084  0.00  0.00    +0.000 C 
ATOM     26  F   UNL     1       3.822   3.193  20.119  0.00  0.00    +0.000 F 
ATOM     27  F   UNL     1       2.663   4.545  21.364  0.00  0.00    +0.000 F 
ATOM     28  F   UNL     1       1.690   3.421  19.775  0.00  0.00    +0.000 F 
ENDBRANCH   5  25
BRANCH   1  29
ATOM     29  C   UNL     1       5.155   5.832  15.939  0.00  0.00    +0.000 C 
BRANCH  29  31
ATOM     30  C   UNL     1       6.095   3.824  14.664  0.00  0.00    +0.000 C 
ATOM     31  C   UNL     1       5.871   4.466  16.037  0.00  0.00    +0.000 C 
ATOM     32  C   UNL     1       7.219   4.617  16.746  0.00  0.00    +0.000 C 
ENDBRANCH  29  31
ENDBRANCH   1  29
TORSDOF 7
ENDMDL
MODEL 3
REMARK VINA RESULT:      -8.8      1.179      1.501
REMARK  Name = 
REMARK  9 active torsions:
REMARK  status: ('A' for Active; 'I' for Inactive)
REMARK    1  A    between atoms: C_1  and  C_2
REMARK    2  A    between atoms: C_2  and  C_3
REMARK    3  A    between atoms: C_2  and  C_4
REMARK    4  A    between atoms: C_4  and  C_5
REMARK    5  A    between atoms: C_9  and  C_10
REMARK    6  A    between atoms: N_16  and  C_17
REMARK    7  A    between atoms: C_21  and  C_22
REMARK    8  A    between atoms: C_22  and  C_23
REMARK    9  A    between atoms: C_23  and  C_24
REMARK                            x       y       z     vdW  Elec       q    Type
REMARK                         _______ _______ _______ _____ _____    ______ ____
ROOT
ATOM      1  C   UNL     1       3.938   5.107  17.493  0.00  0.00    +0.000 A 
ATOM      2  C   UNL     1       3.593   6.461  17.384  0.00  0.00    +0.000 A 
ATOM      3  C   UNL     1       2.781   7.001  18.360  0.00  0.00    +0.000 A 
ATOM      4  C   UNL     1       2.307   6.270  19.442  0.00  0.00    +0.000 A 
ATOM      5  C   UNL     1       2.601   4.918  19.565  0.00  0.00    +0.000 A 
ATOM      6  C   UNL     1       3.403   4.341  18.558  0.00  0.00    +0.000 A 
ATOM      7  C   UNL     1       1.508   7.165  20.332  0.00  0.00    +0.000 C 
ATOM      8  N   UNL     1       1.503   8.434  19.620  0.00  0.00    +0.000 N 
ATOM      9  C   UNL     1       2.268   8.373  18.454  0.00  0.00    +0.000 C 
ATOM     10  O   UNL     1       2.513   9.214  17.608  0.00  0.00    +0.000 OA
ENDROOT
BRANCH   8  11
ATOM     11  C   UNL     1       0.697   9.520  20.046  0.00  0.00    +0.000 A 
ATOM     12  C   UNL     1       0.970  10.222  21.223  0.00  0.00    +0.000 A 
ATOM     13  C   UNL     1       0.212  11.337  21.587  0.00  0.00    +0.000 A 
ATOM     14  C   UNL     1      -0.841  11.765  20.782  0.00  0.00    +0.000 A 
ATOM     15  C   UNL     1      -1.143  11.081  19.601  0.00  0.00    +0.000 A 
ATOM     16  C   UNL     1      -0.379   9.955  19.255  0.00  0.00    +0.000 A 
BRANCH  15  17
ATOM     17  C   UNL     1      -2.271  11.523  18.698  0.00  0.00    +0.000 C 
BRANCH  17  18
ATOM     18  C   UNL     1      -3.081  10.349  18.143  0.00  0.00    +0.000 C 
BRANCH  18  19
ATOM     19  C   UNL     1      -3.199  10.432  16.666  0.00  0.00    +0.000 A 
ATOM     20  N   UNL     1      -3.888  11.306  15.964  0.00  0.00    +0.000 NA
ATOM     21  N   UNL     1      -3.710  11.017  14.630  0.00  0.00    +0.000 NA
ATOM     22  C   UNL     1      -2.924   9.969  14.548  0.00  0.00    +0.000 A 
ATOM     23  N   UNL     1      -2.581   9.572  15.800  0.00  0.00    +0.000 N 
ATOM     24  H   UNL     1      -1.983   8.788  16.045  0.00  0.00    +0.000 HD
ENDBRANCH  18  19
ENDBRANCH  17  18
ENDBRANCH  15  17
ENDBRANCH   8  11
BRANCH   5  25
ATOM     25  C   UNL     1       2.120   4.076  20.718  0.00  0.00    +0.000 C 
ATOM     26  F   UNL     1       2.553   2.787  20.669  0.00  0.00    +0.000 F 
ATOM     27  F   UNL     1       2.525   4.562  21.923  0.00  0.00    +0.000 F 
ATOM     28  F   UNL     1       0.761   4.008  20.775  0.00  0.00    +0.000 F 
ENDBRANCH   5  25
BRANCH   1  29
ATOM     29  C   UNL     1       4.916   4.484  16.524  0.00  0.00    +0.000 C 
BRANCH  29  31
ATOM     30  C   UNL     1       7.155   4.996  17.648  0.00  0.00    +0.000 C 
ATOM     31  C   UNL     1       6.254   5.252  16.436  0.00  0.00    +0.000 C 
ATOM     32  C   UNL     1       7.008   4.871  15.160  0.00  0.00    +0.000 C 
ENDBRANCH  29  31
ENDBRANCH   1  29
TORSDOF 7
ENDMDL
MODEL 4
REMARK VINA RESULT:      -8.8      0.917      1.289
REMARK  Name = 
REMARK  9 active torsions:
REMARK  status: ('A' for Active; 'I' for Inactive)
REMARK    1  A    between atoms: C_1  and  C_2
REMARK    2  A    between atoms: C_2  and  C_3
REMARK    3  A    between atoms: C_2  and  C_4
REMARK    4  A    between atoms: C_4  and  C_5
REMARK    5  A    between atoms: C_9  and  C_10
REMARK    6  A    between atoms: N_16  and  C_17
REMARK    7  A    between atoms: C_21  and  C_22
REMARK    8  A    between atoms: C_22  and  C_23
REMARK    9  A    between atoms: C_23  and  C_24
REMARK                            x       y       z     vdW  Elec       q    Type
REMARK                         _______ _______ _______ _____ _____    ______ ____
ROOT
ATOM      1  C   UNL     1       4.115   4.369  17.568  0.00  0.00    +0.000 A 
ATOM      2  C   UNL     1       3.809   5.735  17.500  0.00  0.00    +0.000 A 
ATOM      3  C   UNL     1       3.022   6.270  18.500  0.00  0.00    +0.000 A 
ATOM      4  C   UNL     1       2.537   5.522  19.566  0.00  0.00    +0.000 A 
ATOM      5  C   UNL     1       2.793   4.159  19.647  0.00  0.00    +0.000 A 
ATOM      6  C   UNL     1       3.568   3.588  18.616  0.00  0.00    +0.000 A 
ATOM      7  C   UNL     1       1.774   6.414  20.488  0.00  0.00    +0.000 C 
ATOM      8  N   UNL     1       1.799   7.703  19.814  0.00  0.00    +0.000 N 
ATOM      9  C   UNL     1       2.551   7.653  18.639  0.00  0.00    +0.000 C 
ATOM     10  O   UNL     1       2.812   8.511  17.814  0.00  0.00    +0.000 OA
ENDROOT
BRANCH   8  11
ATOM     11  C   UNL     1       1.030   8.799  20.278  0.00  0.00    +0.000 A 
ATOM     12  C   UNL     1       0.859   9.053  21.642  0.00  0.00    +0.000 A 
ATOM     13  C   UNL     1       0.161  10.181  22.081  0.00  0.00    +0.000 A 
ATOM     14  C   UNL     1      -0.386  11.072  21.160  0.00  0.00    +0.000 A 
ATOM     15  C   UNL     1      -0.238  10.843  19.790  0.00  0.00    +0.000 A 
ATOM     16  C   UNL     1       0.456   9.699  19.364  0.00  0.00    +0.000 A 
BRANCH  15  17
ATOM     17  C   UNL     1      -0.808  11.794  18.763  0.00  0.00    +0.000 C 
BRANCH  17  18
ATOM     18  C   UNL     1      -1.730  11.097  17.759  0.00  0.00    +0.000 C 
BRANCH  18  19
ATOM     19  C   UNL     1      -3.132  11.560  17.910  0.00  0.00    +0.000 A 
ATOM     20  N   UNL     1      -3.760  11.866  19.026  0.00  0.00    +0.000 NA
ATOM     21  N   UNL     1      -5.041  12.252  18.701  0.00  0.00    +0.000 NA
ATOM     22  C   UNL     1      -5.168  12.164  17.397  0.00  0.00    +0.000 A 
ATOM     23  N   UNL     1      -3.996  11.735  16.865  0.00  0.00    +0.000 N 
ATOM     24  H   UNL     1      -3.800  11.573  15.881  0.00  0.00    +0.000 HD
ENDBRANCH  18  19
ENDBRANCH  17  18
ENDBRANCH  15  17
ENDBRANCH   8  11
BRANCH   5  25
ATOM     25  C   UNL     1       2.298   3.299  20.780  0.00  0.00    +0.000 C 
ATOM     26  F   UNL     1       2.379   3.903  21.998  0.00  0.00    +0.000 F 
ATOM     27  F   UNL     1       0.996   2.935  20.629  0.00  0.00    +0.000 F 
ATOM     28  F   UNL     1       3.004   2.140  20.895  0.00  0.00    +0.000 F 
ENDBRANCH   5  25
BRANCH   1  29
ATOM     29  C   UNL     1       5.065   3.746  16.571  0.00  0.00    +0.000 C 
BRANCH  29  31
ATOM     30  C   UNL     1       7.082   5.180  15.926  0.00  0.00    +0.000 C 
ATOM     31  C   UNL     1       5.650   4.768  15.571  0.00  0.00    +0.000 C 
ATOM     32  C   UNL     1       5.629   4.201  14.150  0.00  0.00    +0.000 C 
ENDBRANCH  29  31
ENDBRANCH   1  29
TORSDOF 7
ENDMDL
MODEL 5
REMARK VINA RESULT:      -8.7      1.913      2.551
REMARK  Name = 
REMARK  9 active torsions:
REMARK  status: ('A' for Active; 'I' for Inactive)
REMARK    1  A    between atoms: C_1  and  C_2
REMARK    2  A    between atoms: C_2  and  C_3
REMARK    3  A    between atoms: C_2  and  C_4
REMARK    4  A    between atoms: C_4  and  C_5
REMARK    5  A    between atoms: C_9  and  C_10
REMARK    6  A    between atoms: N_16  and  C_17
REMARK    7  A    between atoms: C_21  and  C_22
REMARK    8  A    between atoms: C_22  and  C_23
REMARK    9  A    between atoms: C_23  and  C_24
REMARK                            x       y       z     vdW  Elec       q    Type
REMARK                         _______ _______ _______ _____ _____    ______ ____
ROOT
ATOM      1  C   UNL     1       3.935   4.587  17.360  0.00  0.00    +0.000 A 
ATOM      2  C   UNL     1       3.657   5.954  17.484  0.00  0.00    +0.000 A 
ATOM      3  C   UNL     1       2.889   6.361  18.556  0.00  0.00    +0.000 A 
ATOM      4  C   UNL     1       2.396   5.483  19.513  0.00  0.00    +0.000 A 
ATOM      5  C   UNL     1       2.624   4.117  19.404  0.00  0.00    +0.000 A 
ATOM      6  C   UNL     1       3.380   3.680  18.295  0.00  0.00    +0.000 A 
ATOM      7  C   UNL     1       1.658   6.254  20.558  0.00  0.00    +0.000 C 
ATOM      8  N   UNL     1       1.705   7.623  20.067  0.00  0.00    +0.000 N 
ATOM      9  C   UNL     1       2.447   7.721  18.889  0.00  0.00    +0.000 C 
ATOM     10  O   UNL     1       2.720   8.679  18.188  0.00  0.00    +0.000 OA
ENDROOT
BRANCH   8  11
ATOM     11  C   UNL     1       0.962   8.659  20.686  0.00  0.00    +0.000 A 
ATOM     12  C   UNL     1       0.958   8.835  22.073  0.00  0.00    +0.000 A 
ATOM     13  C   UNL     1       0.281   9.908  22.659  0.00  0.00    +0.000 A 
ATOM     14  C   UNL     1      -0.411  10.820  21.866  0.00  0.00    +0.000 A 
ATOM     15  C   UNL     1      -0.432  10.668  20.478  0.00  0.00    +0.000 A 
ATOM     16  C   UNL     1       0.243   9.579  19.904  0.00  0.00    +0.000 A 
BRANCH  15  17
ATOM     17  C   UNL     1      -1.164  11.644  19.586  0.00  0.00    +0.000 C 
BRANCH  17  18
ATOM     18  C   UNL     1      -0.672  13.084  19.755  0.00  0.00    +0.000 C 
BRANCH  18  19
ATOM     19  C   UNL     1       0.743  13.218  19.328  0.00  0.00    +0.000 A 
ATOM     20  N   UNL     1       1.743  13.730  20.013  0.00  0.00    +0.000 NA
ATOM     21  N   UNL     1       2.877  13.647  19.238  0.00  0.00    +0.000 NA
ATOM     22  C   UNL     1       2.542  13.096  18.094  0.00  0.00    +0.000 A 
ATOM     23  N   UNL     1       1.215  12.812  18.110  0.00  0.00    +0.000 N 
ATOM     24  H   UNL     1       0.678  12.382  17.362  0.00  0.00    +0.000 HD
ENDBRANCH  18  19
ENDBRANCH  17  18
ENDBRANCH  15  17
ENDBRANCH   8  11
BRANCH   5  25
ATOM     25  C   UNL     1       2.120   3.119  20.412  0.00  0.00    +0.000 C 
ATOM     26  F   UNL     1       2.696   3.247  21.639  0.00  0.00    +0.000 F 
ATOM     27  F   UNL     1       0.779   3.216  20.616  0.00  0.00    +0.000 F 
ATOM     28  F   UNL     1       2.353   1.833  20.027  0.00  0.00    +0.000 F 
ENDBRANCH   5  25
BRANCH   1  29
ATOM     29  C   UNL     1       4.865   4.089  16.277  0.00  0.00    +0.000 C 
BRANCH  29  31
ATOM     30  C   UNL     1       7.213   4.625  17.138  0.00  0.00    +0.000 C 
ATOM     31  C   UNL     1       6.127   4.966  16.112  0.00  0.00    +0.000 C 
ATOM     32  C   UNL     1       6.704   4.816  14.702  0.00  0.00    +0.000 C 
ENDBRANCH  29  31
ENDBRANCH   1  29
TORSDOF 7
ENDMDL
MODEL 6
REMARK VINA RESULT:      -8.7      2.390      3.075
REMARK  Name = 
REMARK  9 active torsions:
REMARK  status: ('A' for Active; 'I' for Inactive)
REMARK    1  A    between atoms: C_1  and  C_2
REMARK    2  A    between atoms: C_2  and  C_3
REMARK    3  A    between atoms: C_2  and  C_4
REMARK    4  A    between atoms: C_4  and  C_5
REMARK    5  A    between atoms: C_9  and  C_10
REMARK    6  A    between atoms: N_16  and  C_17
REMARK    7  A    between atoms: C_21  and  C_22
REMARK    8  A    between atoms: C_22  and  C_23
REMARK    9  A    between atoms: C_23  and  C_24
REMARK                            x       y       z     vdW  Elec       q    Type
REMARK                         _______ _______ _______ _____ _____    ______ ____
ROOT
ATOM      1  C   UNL     1       3.996   4.649  17.545  0.00  0.00    +0.000 A 
ATOM      2  C   UNL     1       3.728   6.001  17.289  0.00  0.00    +0.000 A 
ATOM      3  C   UNL     1       2.933   6.682  18.189  0.00  0.00    +0.000 A 
ATOM      4  C   UNL     1       2.406   6.095  19.332  0.00  0.00    +0.000 A 
ATOM      5  C   UNL     1       2.624   4.749  19.601  0.00  0.00    +0.000 A 
ATOM      6  C   UNL     1       3.406   4.028  18.674  0.00  0.00    +0.000 A 
ATOM      7  C   UNL     1       1.646   7.119  20.109  0.00  0.00    +0.000 C 
ATOM      8  N   UNL     1       1.719   8.305  19.269  0.00  0.00    +0.000 N 
ATOM      9  C   UNL     1       2.495   8.081  18.131  0.00  0.00    +0.000 C 
ATOM     10  O   UNL     1       2.796   8.815  17.206  0.00  0.00    +0.000 OA
ENDROOT
BRANCH   8  11
ATOM     11  C   UNL     1       0.968   9.471  19.565  0.00  0.00    +0.000 A 
ATOM     12  C   UNL     1       0.629  10.398  18.576  0.00  0.00    +0.000 A 
ATOM     13  C   UNL     1      -0.176  11.501  18.871  0.00  0.00    +0.000 A 
ATOM     14  C   UNL     1      -0.648  11.700  20.166  0.00  0.00    +0.000 A 
ATOM     15  C   UNL     1      -0.321  10.795  21.179  0.00  0.00    +0.000 A 
ATOM     16  C   UNL     1       0.498   9.698  20.869  0.00  0.00    +0.000 A 
BRANCH  15  17
ATOM     17  C   UNL     1      -0.824  10.974  22.593  0.00  0.00    +0.000 C 
BRANCH  17  18
ATOM     18  C   UNL     1      -1.097  12.439  22.943  0.00  0.00    +0.000 C 
BRANCH  18  19
ATOM     19  C   UNL     1      -2.534  12.656  23.246  0.00  0.00    +0.000 A 
ATOM     20  N   UNL     1      -3.392  11.785  23.732  0.00  0.00    +0.000 NA
ATOM     21  N   UNL     1      -4.610  12.414  23.861  0.00  0.00    +0.000 NA
ATOM     22  C   UNL     1      -4.469  13.651  23.443  0.00  0.00    +0.000 A 
ATOM     23  N   UNL     1      -3.185  13.843  23.050  0.00  0.00    +0.000 N 
ATOM     24  H   UNL     1      -2.786  14.702  22.681  0.00  0.00    +0.000 HD
ENDBRANCH  18  19
ENDBRANCH  17  18
ENDBRANCH  15  17
ENDBRANCH   8  11
BRANCH   5  25
ATOM     25  C   UNL     1       2.083   4.060  20.825  0.00  0.00    +0.000 C 
ATOM     26  F   UNL     1       2.442   2.750  20.916  0.00  0.00    +0.000 F 
ATOM     27  F   UNL     1       2.501   4.644  21.980  0.00  0.00    +0.000 F 
ATOM     28  F   UNL     1       0.721   4.072  20.865  0.00  0.00    +0.000 F 
ENDBRANCH   5  25
BRANCH   1  29
ATOM     29  C   UNL     1       4.951   3.877  16.665  0.00  0.00    +0.000 C 
BRANCH  29  31
ATOM     30  C   UNL     1       7.147   5.148  16.342  0.00  0.00    +0.000 C 
ATOM     31  C   UNL     1       5.788   4.786  15.736  0.00  0.00    +0.000 C 
ATOM     32  C   UNL     1       6.007   4.110  14.380  0.00  0.00    +0.000 C 
ENDBRANCH  29  31
ENDBRANCH   1  29
TORSDOF 7
ENDMDL
MODEL 7
REMARK VINA RESULT:      -8.7      1.403      1.556
REMARK  Name = 
REMARK  9 active torsions:
REMARK  status: ('A' for Active; 'I' for Inactive)
REMARK    1  A    between atoms: C_1  and  C_2
REMARK    2  A    between atoms: C_2  and  C_3
REMARK    3  A    between atoms: C_2  and  C_4
REMARK    4  A    between atoms: C_4  and  C_5
REMARK    5  A    between atoms: C_9  and  C_10
REMARK    6  A    between atoms: N_16  and  C_17
REMARK    7  A    between atoms: C_21  and  C_22
REMARK    8  A    between atoms: C_22  and  C_23
REMARK    9  A    between atoms: C_23  and  C_24
REMARK                            x       y       z     vdW  Elec       q    Type
REMARK                         _______ _______ _______ _____ _____    ______ ____
ROOT
ATOM      1  C   UNL     1       3.816   4.726  17.540  0.00  0.00    +0.000 A 
ATOM      2  C   UNL     1       3.533   6.096  17.619  0.00  0.00    +0.000 A 
ATOM      3  C   UNL     1       2.763   6.535  18.677  0.00  0.00    +0.000 A 
ATOM      4  C   UNL     1       2.274   5.689  19.663  0.00  0.00    +0.000 A 
ATOM      5  C   UNL     1       2.507   4.320  19.600  0.00  0.00    +0.000 A 
ATOM      6  C   UNL     1       3.264   3.848  18.506  0.00  0.00    +0.000 A 
ATOM      7  C   UNL     1       1.533   6.491  20.681  0.00  0.00    +0.000 C 
ATOM      8  N   UNL     1       1.575   7.843  20.145  0.00  0.00    +0.000 N 
ATOM      9  C   UNL     1       2.317   7.904  18.964  0.00  0.00    +0.000 C 
ATOM     10  O   UNL     1       2.586   8.839  18.231  0.00  0.00    +0.000 OA
ENDROOT
BRANCH   8  11
ATOM     11  C   UNL     1       0.828   8.897  20.729  0.00  0.00    +0.000 A 
ATOM     12  C   UNL     1       0.746   9.061  22.114  0.00  0.00    +0.000 A 
ATOM     13  C   UNL     1       0.069  10.149  22.670  0.00  0.00    +0.000 A 
ATOM     14  C   UNL     1      -0.546  11.090  21.847  0.00  0.00    +0.000 A 
ATOM     15  C   UNL     1      -0.487  10.951  20.458  0.00  0.00    +0.000 A 
ATOM     16  C   UNL     1       0.187   9.846  19.915  0.00  0.00    +0.000 A 
BRANCH  15  17
ATOM     17  C   UNL     1      -1.133  11.958  19.534  0.00  0.00    +0.000 C 
BRANCH  17  18
ATOM     18  C   UNL     1      -1.939  13.020  20.287  0.00  0.00    +0.000 C 
BRANCH  18  19
ATOM     19  C   UNL     1      -3.393  12.733  20.220  0.00  0.00    +0.000 A 
ATOM     20  N   UNL     1      -4.245  12.667  21.221  0.00  0.00    +0.000 NA
ATOM     21  N   UNL     1      -5.489  12.384  20.703  0.00  0.00    +0.000 NA
ATOM     22  C   UNL     1      -5.366  12.275  19.400  0.00  0.00    +0.000 A 
ATOM     23  N   UNL     1      -4.071  12.487  19.057  0.00  0.00    +0.000 N 
ATOM     24  H   UNL     1      -3.681  12.466  18.119  0.00  0.00    +0.000 HD
ENDBRANCH  18  19
ENDBRANCH  17  18
ENDBRANCH  15  17
ENDBRANCH   8  11
BRANCH   5  25
ATOM     25  C   UNL     1       2.007   3.355  20.641  0.00  0.00    +0.000 C 
ATOM     26  F   UNL     1       2.398   2.069  20.425  0.00  0.00    +0.000 F 
ATOM     27  F   UNL     1       2.435   3.670  21.893  0.00  0.00    +0.000 F 
ATOM     28  F   UNL     1       0.647   3.321  20.703  0.00  0.00    +0.000 F 
ENDBRANCH   5  25
BRANCH   1  29
ATOM     29  C   UNL     1       4.747   4.195  16.475  0.00  0.00    +0.000 C 
BRANCH  29  31
ATOM     30  C   UNL     1       7.041   4.661  17.506  0.00  0.00    +0.000 C 
ATOM     31  C   UNL     1       6.066   4.993  16.371  0.00  0.00    +0.000 C 
ATOM     32  C   UNL     1       6.750   4.726  15.028  0.00  0.00    +0.000 C 
ENDBRANCH  29  31
ENDBRANCH   1  29
TORSDOF 7
ENDMDL
MODEL 8
REMARK VINA RESULT:      -8.7      0.790      1.217
REMARK  Name = 
REMARK  9 active torsions:
REMARK  status: ('A' for Active; 'I' for Inactive)
REMARK    1  A    between atoms: C_1  and  C_2
REMARK    2  A    between atoms: C_2  and  C_3
REMARK    3  A    between atoms: C_2  and  C_4
REMARK    4  A    between atoms: C_4  and  C_5
REMARK    5  A    between atoms: C_9  and  C_10
REMARK    6  A    between atoms: N_16  and  C_17
REMARK    7  A    between atoms: C_21  and  C_22
REMARK    8  A    between atoms: C_22  and  C_23
REMARK    9  A    between atoms: C_23  and  C_24
REMARK                            x       y       z     vdW  Elec       q    Type
REMARK                         _______ _______ _______ _____ _____    ______ ____
ROOT
ATOM      1  C   UNL     1       3.703   5.151  17.636  0.00  0.00    +0.000 A 
ATOM      2  C   UNL     1       3.347   6.502  17.745  0.00  0.00    +0.000 A 
ATOM      3  C   UNL     1       2.577   6.881  18.826  0.00  0.00    +0.000 A 
ATOM      4  C   UNL     1       2.156   5.992  19.807  0.00  0.00    +0.000 A 
ATOM      5  C   UNL     1       2.463   4.640  19.714  0.00  0.00    +0.000 A 
ATOM      6  C   UNL     1       3.221   4.229  18.597  0.00  0.00    +0.000 A 
ATOM      7  C   UNL     1       1.394   6.735  20.854  0.00  0.00    +0.000 C 
ATOM      8  N   UNL     1       1.350   8.096  20.341  0.00  0.00    +0.000 N 
ATOM      9  C   UNL     1       2.062   8.218  19.146  0.00  0.00    +0.000 C 
ATOM     10  O   UNL     1       2.263   9.178  18.425  0.00  0.00    +0.000 OA
ENDROOT
BRANCH   8  11
ATOM     11  C   UNL     1       0.559   9.097  20.959  0.00  0.00    +0.000 A 
ATOM     12  C   UNL     1       0.315   9.097  22.335  0.00  0.00    +0.000 A 
ATOM     13  C   UNL     1      -0.402  10.134  22.937  0.00  0.00    +0.000 A 
ATOM     14  C   UNL     1      -0.897  11.185  22.169  0.00  0.00    +0.000 A 
ATOM     15  C   UNL     1      -0.676  11.211  20.790  0.00  0.00    +0.000 A 
ATOM     16  C   UNL     1       0.037  10.156  20.197  0.00  0.00    +0.000 A 
BRANCH  15  17
ATOM     17  C   UNL     1      -1.189  12.341  19.927  0.00  0.00    +0.000 C 
BRANCH  17  18
ATOM     18  C   UNL     1      -2.693  12.247  19.661  0.00  0.00    +0.000 C 
BRANCH  18  19
ATOM     19  C   UNL     1      -2.963  11.781  18.278  0.00  0.00    +0.000 A 
ATOM     20  N   UNL     1      -2.099  11.297  17.411  0.00  0.00    +0.000 NA
ATOM     21  N   UNL     1      -2.781  10.986  16.257  0.00  0.00    +0.000 NA
ATOM     22  C   UNL     1      -4.044  11.296  16.442  0.00  0.00    +0.000 A 
ATOM     23  N   UNL     1      -4.199  11.796  17.694  0.00  0.00    +0.000 N 
ATOM     24  H   UNL     1      -5.066  12.120  18.114  0.00  0.00    +0.000 HD
ENDBRANCH  18  19
ENDBRANCH  17  18
ENDBRANCH  15  17
ENDBRANCH   8  11
BRANCH   5  25
ATOM     25  C   UNL     1       2.039   3.631  20.748  0.00  0.00    +0.000 C 
ATOM     26  F   UNL     1       2.437   3.946  22.011  0.00  0.00    +0.000 F 
ATOM     27  F   UNL     1       0.688   3.481  20.808  0.00  0.00    +0.000 F 
ATOM     28  F   UNL     1       2.547   2.392  20.500  0.00  0.00    +0.000 F 
ENDBRANCH   5  25
BRANCH   1  29
ATOM     29  C   UNL     1       4.639   4.691  16.542  0.00  0.00    +0.000 C 
BRANCH  29  31
ATOM     30  C   UNL     1       7.082   4.355  15.865  0.00  0.00    +0.000 C 
ATOM     31  C   UNL     1       6.096   4.517  17.026  0.00  0.00    +0.000 C 
ATOM     32  C   UNL     1       6.523   5.712  17.883  0.00  0.00    +0.000 C 
ENDBRANCH  29  31
ENDBRANCH   1  29
TORSDOF 7
ENDMDL
MODEL 9
REMARK VINA RESULT:      -8.7      3.546      8.401
REMARK  Name = 
REMARK  9 active torsions:
REMARK  status: ('A' for Active; 'I' for Inactive)
REMARK    1  A    between atoms: C_1  and  C_2
REMARK    2  A    between atoms: C_2  and  C_3
REMARK    3  A    between atoms: C_2  and  C_4
REMARK    4  A    between atoms: C_4  and  C_5
REMARK    5  A    between atoms: C_9  and  C_10
REMARK    6  A    between atoms: N_16  and  C_17
REMARK    7  A    between atoms: C_21  and  C_22
REMARK    8  A    between atoms: C_22  and  C_23
REMARK    9  A    between atoms: C_23  and  C_24
REMARK                            x       y       z     vdW  Elec       q    Type
REMARK                         _______ _______ _______ _____ _____    ______ ____
ROOT
ATOM      1  C   UNL     1       0.486  11.573  19.450  0.00  0.00    +0.000 A 
ATOM      2  C   UNL     1       1.132  10.566  18.721  0.00  0.00    +0.000 A 
ATOM      3  C   UNL     1       1.337   9.350  19.341  0.00  0.00    +0.000 A 
ATOM      4  C   UNL     1       0.921   9.081  20.638  0.00  0.00    +0.000 A 
ATOM      5  C   UNL     1       0.306  10.065  21.403  0.00  0.00    +0.000 A 
ATOM      6  C   UNL     1       0.120  11.325  20.797  0.00  0.00    +0.000 A 
ATOM      7  C   UNL     1       1.246   7.663  20.977  0.00  0.00    +0.000 C 
ATOM      8  N   UNL     1       1.951   7.185  19.798  0.00  0.00    +0.000 N 
ATOM      9  C   UNL     1       2.002   8.159  18.800  0.00  0.00    +0.000 C 
ATOM     10  O   UNL     1       2.489   8.141  17.683  0.00  0.00    +0.000 OA
ENDROOT
BRANCH   8  11
ATOM     11  C   UNL     1       2.591   5.920  19.778  0.00  0.00    +0.000 A 
ATOM     12  C   UNL     1       1.923   4.751  20.152  0.00  0.00    +0.000 A 
ATOM     13  C   UNL     1       2.546   3.504  20.053  0.00  0.00    +0.000 A 
ATOM     14  C   UNL     1       3.855   3.408  19.586  0.00  0.00    +0.000 A 
ATOM     15  C   UNL     1       4.552   4.559  19.211  0.00  0.00    +0.000 A 
ATOM     16  C   UNL     1       3.916   5.805  19.326  0.00  0.00    +0.000 A 
BRANCH  15  17
ATOM     17  C   UNL     1       5.969   4.490  18.689  0.00  0.00    +0.000 C 
BRANCH  17  18
ATOM     18  C   UNL     1       6.361   5.726  17.876  0.00  0.00    +0.000 C 
BRANCH  18  19
ATOM     19  C   UNL     1       6.661   5.366  16.468  0.00  0.00    +0.000 A 
ATOM     20  N   UNL     1       7.566   5.902  15.677  0.00  0.00    +0.000 NA
ATOM     21  N   UNL     1       7.505   5.259  14.461  0.00  0.00    +0.000 NA
ATOM     22  C   UNL     1       6.558   4.352  14.535  0.00  0.00    +0.000 A 
ATOM     23  N   UNL     1       6.006   4.386  15.774  0.00  0.00    +0.000 N 
ATOM     24  H   UNL     1       5.251   3.799  16.117  0.00  0.00    +0.000 HD
ENDBRANCH  18  19
ENDBRANCH  17  18
ENDBRANCH  15  17
ENDBRANCH   8  11
BRANCH   5  25
ATOM     25  C   UNL     1      -0.170   9.830  22.812  0.00  0.00    +0.000 C 
ATOM     26  F   UNL     1      -0.801  10.905  23.359  0.00  0.00    +0.000 F 
ATOM     27  F   UNL     1      -1.048   8.795  22.900  0.00  0.00    +0.000 F 
ATOM     28  F   UNL     1       0.854   9.532  23.659  0.00  0.00    +0.000 F 
ENDBRANCH   5  25
BRANCH   1  29
ATOM     29  C   UNL     1       0.129  12.886  18.794  0.00  0.00    +0.000 C 
BRANCH  29  31
ATOM     30  C   UNL     1       0.989  15.264  19.177  0.00  0.00    +0.000 C 
ATOM     31  C   UNL     1       0.202  14.088  19.763  0.00  0.00    +0.000 C 
ATOM     32  C   UNL     1      -1.204  14.561  20.138  0.00  0.00    +0.000 C 
ENDBRANCH  29  31
ENDBRANCH   1  29
TORSDOF 7
ENDMDL
