MODEL 1
REMARK VINA RESULT:      -8.1      0.000      0.000
REMARK  Name = 
REMARK  5 active torsions:
REMARK  status: ('A' for Active; 'I' for Inactive)
REMARK    1  A    between atoms: C_1  and  C_2
REMARK    2  A    between atoms: C_5  and  C_6
REMARK    3  A    between atoms: C_10  and  C_11
REMARK    4  A    between atoms: N_13  and  C_14
REMARK    5  A    between atoms: N_18  and  C_19
REMARK                            x       y       z     vdW  Elec       q    Type
REMARK                         _______ _______ _______ _____ _____    ______ ____
ROOT
ATOM      1  C   UNL     1       5.682   4.326  18.903  0.00  0.00    +0.000 C 
ATOM      2  O   UNL     1       5.835   4.606  20.095  0.00  0.00    +0.000 OA
ATOM      3  N   UNL     1       4.820   3.352  18.471  0.00  0.00    +0.000 N 
ATOM      4  H   UNL     1       4.646   3.224  17.480  0.00  0.00    +0.000 HD
ENDROOT
BRANCH   1   9
ATOM      5  C   UNL     1       7.140   5.223  15.520  0.00  0.00    +0.000 A 
ATOM      6  C   UNL     1       7.738   6.460  15.789  0.00  0.00    +0.000 A 
ATOM      7  C   UNL     1       7.659   7.026  17.061  0.00  0.00    +0.000 A 
ATOM      8  C   UNL     1       6.988   6.352  18.088  0.00  0.00    +0.000 A 
ATOM      9  C   UNL     1       6.427   5.087  17.856  0.00  0.00    +0.000 A 
ATOM     10  C   UNL     1       6.510   4.534  16.569  0.00  0.00    +0.000 A 
BRANCH   5  15
ATOM     11  C   UNL     1       5.410   2.676  11.862  0.00  0.00    +0.000 C 
ATOM     12  C   UNL     1       6.324   3.618  12.524  0.00  0.00    +0.000 A 
ATOM     13  N   UNL     1       7.196   4.456  12.008  0.00  0.00    +0.000 NA
ATOM     14  N   UNL     1       7.710   5.176  13.069  0.00  0.00    +0.000 NA
ATOM     15  C   UNL     1       7.111   4.724  14.154  0.00  0.00    +0.000 A 
ATOM     16  O   UNL     1       6.233   3.706  13.884  0.00  0.00    +0.000 OA
ENDBRANCH   5  15
ENDBRANCH   1   9
BRANCH   3  17
ATOM     17  C   UNL     1       3.997   2.528  19.361  0.00  0.00    +0.000 C 
ATOM     18  C   UNL     1       3.029   1.674  18.523  0.00  0.00    +0.000 C 
ATOM     19  C   UNL     1       1.928   2.522  17.871  0.00  0.00    +0.000 C 
ATOM     20  C   UNL     1       1.219   3.429  18.884  0.00  0.00    +0.000 C 
ATOM     21  N   UNL     1       2.239   4.232  19.571  0.00  0.00    +0.000 N 
ATOM     22  C   UNL     1       3.195   3.419  20.347  0.00  0.00    +0.000 C 
BRANCH  21  23
ATOM     23  C   UNL     1       2.046   5.581  19.853  0.00  0.00    +0.000 A 
ATOM     24  C   UNL     1       1.368   5.981  21.021  0.00  0.00    +0.000 A 
ATOM     25  C   UNL     1       1.064   7.323  21.293  0.00  0.00    +0.000 A 
ATOM     26  C   UNL     1       1.406   8.314  20.384  0.00  0.00    +0.000 A 
ATOM     27  C   UNL     1       2.097   7.968  19.233  0.00  0.00    +0.000 A 
ATOM     28  C   UNL     1       2.441   6.633  18.983  0.00  0.00    +0.000 A 
ATOM     29 CL   UNL     1       3.314   6.402  17.504  0.00  0.00    +0.000 Cl
ENDBRANCH  21  23
ENDBRANCH   3  17
TORSDOF 4
ENDMDL
MODEL 2
REMARK VINA RESULT:      -8.1      0.908      1.098
REMARK  Name = 
REMARK  5 active torsions:
REMARK  status: ('A' for Active; 'I' for Inactive)
REMARK    1  A    between atoms: C_1  and  C_2
REMARK    2  A    between atoms: C_5  and  C_6
REMARK    3  A    between atoms: C_10  and  C_11
REMARK    4  A    between atoms: N_13  and  C_14
REMARK    5  A    between atoms: N_18  and  C_19
REMARK                            x       y       z     vdW  Elec       q    Type
REMARK                         _______ _______ _______ _____ _____    ______ ____
ROOT
ATOM      1  C   UNL     1       5.554   3.999  18.445  0.00  0.00    +0.000 C 
ATOM      2  O   UNL     1       6.094   4.237  19.529  0.00  0.00    +0.000 OA
ATOM      3  N   UNL     1       4.421   3.238  18.327  0.00  0.00    +0.000 N 
ATOM      4  H   UNL     1       3.950   3.152  17.433  0.00  0.00    +0.000 HD
ENDROOT
BRANCH   1   9
ATOM      5  C   UNL     1       6.379   4.388  14.764  0.00  0.00    +0.000 A 
ATOM      6  C   UNL     1       7.059   5.612  14.755  0.00  0.00    +0.000 A 
ATOM      7  C   UNL     1       7.240   6.334  15.935  0.00  0.00    +0.000 A 
ATOM      8  C   UNL     1       6.751   5.831  17.146  0.00  0.00    +0.000 A 
ATOM      9  C   UNL     1       6.115   4.582  17.189  0.00  0.00    +0.000 A 
ATOM     10  C   UNL     1       5.935   3.871  15.992  0.00  0.00    +0.000 A 
BRANCH   5  15
ATOM     11  C   UNL     1       3.644   3.207  11.025  0.00  0.00    +0.000 C 
ATOM     12  C   UNL     1       4.873   3.230  11.830  0.00  0.00    +0.000 A 
ATOM     13  N   UNL     1       6.100   2.881  11.513  0.00  0.00    +0.000 NA
ATOM     14  N   UNL     1       6.885   3.203  12.603  0.00  0.00    +0.000 NA
ATOM     15  C   UNL     1       6.077   3.727  13.504  0.00  0.00    +0.000 A 
ATOM     16  O   UNL     1       4.771   3.749  13.090  0.00  0.00    +0.000 OA
ENDBRANCH   5  15
ENDBRANCH   1   9
BRANCH   3  17
ATOM     17  C   UNL     1       3.730   2.611  19.459  0.00  0.00    +0.000 C 
ATOM     18  C   UNL     1       2.593   1.715  18.935  0.00  0.00    +0.000 C 
ATOM     19  C   UNL     1       1.434   2.536  18.352  0.00  0.00    +0.000 C 
ATOM     20  C   UNL     1       0.955   3.628  19.317  0.00  0.00    +0.000 C 
ATOM     21  N   UNL     1       2.114   4.447  19.692  0.00  0.00    +0.000 N 
ATOM     22  C   UNL     1       3.153   3.689  20.414  0.00  0.00    +0.000 C 
BRANCH  21  23
ATOM     23  C   UNL     1       2.034   5.833  19.790  0.00  0.00    +0.000 A 
ATOM     24  C   UNL     1       1.469   6.441  20.928  0.00  0.00    +0.000 A 
ATOM     25  C   UNL     1       1.277   7.827  21.024  0.00  0.00    +0.000 A 
ATOM     26  C   UNL     1       1.621   8.654  19.965  0.00  0.00    +0.000 A 
ATOM     27  C   UNL     1       2.204   8.101  18.836  0.00  0.00    +0.000 A 
ATOM     28  C   UNL     1       2.438   6.722  18.758  0.00  0.00    +0.000 A 
ATOM     29 CL   UNL     1       3.187   6.223  17.276  0.00  0.00    +0.000 Cl
ENDBRANCH  21  23
ENDBRANCH   3  17
TORSDOF 4
ENDMDL
MODEL 3
REMARK VINA RESULT:      -7.9      8.744     12.309
REMARK  Name = 
REMARK  5 active torsions:
REMARK  status: ('A' for Active; 'I' for Inactive)
REMARK    1  A    between atoms: C_1  and  C_2
REMARK    2  A    between atoms: C_5  and  C_6
REMARK    3  A    between atoms: C_10  and  C_11
REMARK    4  A    between atoms: N_13  and  C_14
REMARK    5  A    between atoms: N_18  and  C_19
REMARK                            x       y       z     vdW  Elec       q    Type
REMARK                         _______ _______ _______ _____ _____    ______ ____
ROOT
ATOM      1  C   UNL     1      -5.974  12.656  21.755  0.00  0.00    +0.000 C 
ATOM      2  O   UNL     1      -6.798  12.157  22.526  0.00  0.00    +0.000 OA
ATOM      3  N   UNL     1      -4.805  13.231  22.182  0.00  0.00    +0.000 N 
ATOM      4  H   UNL     1      -4.108  13.536  21.512  0.00  0.00    +0.000 HD
ENDROOT
BRANCH   1   9
ATOM      5  C   UNL     1      -5.328  12.089  18.062  0.00  0.00    +0.000 A 
ATOM      6  C   UNL     1      -6.564  12.434  17.503  0.00  0.00    +0.000 A 
ATOM      7  C   UNL     1      -7.626  12.834  18.315  0.00  0.00    +0.000 A 
ATOM      8  C   UNL     1      -7.457  12.906  19.703  0.00  0.00    +0.000 A 
ATOM      9  C   UNL     1      -6.213  12.617  20.281  0.00  0.00    +0.000 A 
ATOM     10  C   UNL     1      -5.157  12.210  19.451  0.00  0.00    +0.000 A 
BRANCH   5  15
ATOM     11  C   UNL     1      -1.298   9.693  17.128  0.00  0.00    +0.000 C 
ATOM     12  C   UNL     1      -2.514  10.447  16.795  0.00  0.00    +0.000 A 
ATOM     13  N   UNL     1      -3.124  10.606  15.641  0.00  0.00    +0.000 NA
ATOM     14  N   UNL     1      -4.277  11.317  15.910  0.00  0.00    +0.000 NA
ATOM     15  C   UNL     1      -4.286  11.538  17.210  0.00  0.00    +0.000 A 
ATOM     16  O   UNL     1      -3.175  11.035  17.837  0.00  0.00    +0.000 OA
ENDBRANCH   5  15
ENDBRANCH   1   9
BRANCH   3  17
ATOM     17  C   UNL     1      -4.405  13.332  23.590  0.00  0.00    +0.000 C 
ATOM     18  C   UNL     1      -3.835  14.736  23.862  0.00  0.00    +0.000 C 
ATOM     19  C   UNL     1      -2.469  14.943  23.193  0.00  0.00    +0.000 C 
ATOM     20  C   UNL     1      -1.486  13.812  23.520  0.00  0.00    +0.000 C 
ATOM     21  N   UNL     1      -2.120  12.538  23.160  0.00  0.00    +0.000 N 
ATOM     22  C   UNL     1      -3.342  12.256  23.936  0.00  0.00    +0.000 C 
BRANCH  21  23
ATOM     23  C   UNL     1      -1.413  11.516  22.533  0.00  0.00    +0.000 A 
ATOM     24  C   UNL     1      -0.938  10.414  23.271  0.00  0.00    +0.000 A 
ATOM     25  C   UNL     1      -0.137   9.415  22.700  0.00  0.00    +0.000 A 
ATOM     26  C   UNL     1       0.243   9.500  21.368  0.00  0.00    +0.000 A 
ATOM     27  C   UNL     1      -0.222  10.555  20.599  0.00  0.00    +0.000 A 
ATOM     28  C   UNL     1      -1.061  11.529  21.157  0.00  0.00    +0.000 A 
ATOM     29 CL   UNL     1      -1.548  12.757  20.035  0.00  0.00    +0.000 Cl
ENDBRANCH  21  23
ENDBRANCH   3  17
TORSDOF 4
ENDMDL
MODEL 4
REMARK VINA RESULT:      -7.7      8.813     12.159
REMARK  Name = 
REMARK  5 active torsions:
REMARK  status: ('A' for Active; 'I' for Inactive)
REMARK    1  A    between atoms: C_1  and  C_2
REMARK    2  A    between atoms: C_5  and  C_6
REMARK    3  A    between atoms: C_10  and  C_11
REMARK    4  A    between atoms: N_13  and  C_14
REMARK    5  A    between atoms: N_18  and  C_19
REMARK                            x       y       z     vdW  Elec       q    Type
REMARK                         _______ _______ _______ _____ _____    ______ ____
ROOT
ATOM      1  C   UNL     1      -5.518  12.836  21.724  0.00  0.00    +0.000 C 
ATOM      2  O   UNL     1      -6.276  12.281  22.525  0.00  0.00    +0.000 OA
ATOM      3  N   UNL     1      -4.375  13.488  22.109  0.00  0.00    +0.000 N 
ATOM      4  H   UNL     1      -3.726  13.841  21.413  0.00  0.00    +0.000 HD
ENDROOT
BRANCH   1   9
ATOM      5  C   UNL     1      -5.054  12.116  18.031  0.00  0.00    +0.000 A 
ATOM      6  C   UNL     1      -6.271  12.561  17.501  0.00  0.00    +0.000 A 
ATOM      7  C   UNL     1      -7.262  13.080  18.335  0.00  0.00    +0.000 A 
ATOM      8  C   UNL     1      -7.041  13.171  19.714  0.00  0.00    +0.000 A 
ATOM      9  C   UNL     1      -5.809  12.781  20.261  0.00  0.00    +0.000 A 
ATOM     10  C   UNL     1      -4.825  12.256  19.409  0.00  0.00    +0.000 A 
BRANCH   5  15
ATOM     11  C   UNL     1      -3.572  10.034  13.990  0.00  0.00    +0.000 C 
ATOM     12  C   UNL     1      -3.433  10.553  15.358  0.00  0.00    +0.000 A 
ATOM     13  N   UNL     1      -2.351  10.787  16.068  0.00  0.00    +0.000 NA
ATOM     14  N   UNL     1      -2.783  11.368  17.244  0.00  0.00    +0.000 NA
ATOM     15  C   UNL     1      -4.097  11.447  17.162  0.00  0.00    +0.000 A 
ATOM     16  O   UNL     1      -4.584  10.918  15.995  0.00  0.00    +0.000 OA
ENDBRANCH   5  15
ENDBRANCH   1   9
BRANCH   3  17
ATOM     17  C   UNL     1      -3.930  13.616  23.500  0.00  0.00    +0.000 C 
ATOM     18  C   UNL     1      -3.212  14.964  23.688  0.00  0.00    +0.000 C 
ATOM     19  C   UNL     1      -1.850  14.997  22.981  0.00  0.00    +0.000 C 
ATOM     20  C   UNL     1      -0.980  13.787  23.344  0.00  0.00    +0.000 C 
ATOM     21  N   UNL     1      -1.750  12.569  23.063  0.00  0.00    +0.000 N 
ATOM     22  C   UNL     1      -2.974  12.453  23.878  0.00  0.00    +0.000 C 
BRANCH  21  23
ATOM     23  C   UNL     1      -1.168  11.450  22.474  0.00  0.00    +0.000 A 
ATOM     24  C   UNL     1      -0.820  10.329  23.252  0.00  0.00    +0.000 A 
ATOM     25  C   UNL     1      -0.142   9.224  22.717  0.00  0.00    +0.000 A 
ATOM     26  C   UNL     1       0.239   9.216  21.383  0.00  0.00    +0.000 A 
ATOM     27  C   UNL     1      -0.105  10.289  20.576  0.00  0.00    +0.000 A 
ATOM     28  C   UNL     1      -0.824  11.373  21.098  0.00  0.00    +0.000 A 
ATOM     29 CL   UNL     1      -1.173  12.606  19.931  0.00  0.00    +0.000 Cl
ENDBRANCH  21  23
ENDBRANCH   3  17
TORSDOF 4
ENDMDL
MODEL 5
REMARK VINA RESULT:      -7.6      1.585      2.228
REMARK  Name = 
REMARK  5 active torsions:
REMARK  status: ('A' for Active; 'I' for Inactive)
REMARK    1  A    between atoms: C_1  and  C_2
REMARK    2  A    between atoms: C_5  and  C_6
REMARK    3  A    between atoms: C_10  and  C_11
REMARK    4  A    between atoms: N_13  and  C_14
REMARK    5  A    between atoms: N_18  and  C_19
REMARK                            x       y       z     vdW  Elec       q    Type
REMARK                         _______ _______ _______ _____ _____    ______ ____
ROOT
ATOM      1  C   UNL     1       5.753   4.209  17.779  0.00  0.00    +0.000 C 
ATOM      2  O   UNL     1       6.084   4.918  18.733  0.00  0.00    +0.000 OA
ATOM      3  N   UNL     1       4.846   3.187  17.889  0.00  0.00    +0.000 N 
ATOM      4  H   UNL     1       4.522   2.696  17.062  0.00  0.00    +0.000 HD
ENDROOT
BRANCH   1   9
ATOM      5  C   UNL     1       6.262   3.961  14.030  0.00  0.00    +0.000 A 
ATOM      6  C   UNL     1       7.251   4.928  13.815  0.00  0.00    +0.000 A 
ATOM      7  C   UNL     1       7.749   5.685  14.875  0.00  0.00    +0.000 A 
ATOM      8  C   UNL     1       7.269   5.472  16.173  0.00  0.00    +0.000 A 
ATOM      9  C   UNL     1       6.318   4.472  16.422  0.00  0.00    +0.000 A 
ATOM     10  C   UNL     1       5.823   3.723  15.343  0.00  0.00    +0.000 A 
BRANCH   5  15
ATOM     11  C   UNL     1       3.207   3.495  10.382  0.00  0.00    +0.000 C 
ATOM     12  C   UNL     1       4.323   3.098  11.253  0.00  0.00    +0.000 A 
ATOM     13  N   UNL     1       5.237   2.168  11.088  0.00  0.00    +0.000 NA
ATOM     14  N   UNL     1       6.106   2.290  12.154  0.00  0.00    +0.000 NA
ATOM     15  C   UNL     1       5.658   3.289  12.890  0.00  0.00    +0.000 A 
ATOM     16  O   UNL     1       4.504   3.834  12.389  0.00  0.00    +0.000 OA
ENDBRANCH   5  15
ENDBRANCH   1   9
BRANCH   3  17
ATOM     17  C   UNL     1       4.180   2.810  19.140  0.00  0.00    +0.000 C 
ATOM     18  C   UNL     1       3.062   1.795  18.841  0.00  0.00    +0.000 C 
ATOM     19  C   UNL     1       1.878   2.440  18.107  0.00  0.00    +0.000 C 
ATOM     20  C   UNL     1       1.379   3.706  18.813  0.00  0.00    +0.000 C 
ATOM     21  N   UNL     1       2.520   4.615  18.984  0.00  0.00    +0.000 N 
ATOM     22  C   UNL     1       3.583   4.059  19.841  0.00  0.00    +0.000 C 
BRANCH  21  23
ATOM     23  C   UNL     1       2.405   5.986  18.774  0.00  0.00    +0.000 A 
ATOM     24  C   UNL     1       2.908   6.577  17.599  0.00  0.00    +0.000 A 
ATOM     25  C   UNL     1       2.904   7.964  17.393  0.00  0.00    +0.000 A 
ATOM     26  C   UNL     1       2.419   8.815  18.376  0.00  0.00    +0.000 A 
ATOM     27  C   UNL     1       1.892   8.274  19.538  0.00  0.00    +0.000 A 
ATOM     28  C   UNL     1       1.853   6.886  19.725  0.00  0.00    +0.000 A 
ATOM     29 CL   UNL     1       1.145   6.404  21.231  0.00  0.00    +0.000 Cl
ENDBRANCH  21  23
ENDBRANCH   3  17
TORSDOF 4
ENDMDL
MODEL 6
REMARK VINA RESULT:      -7.6      4.393      6.756
REMARK  Name = 
REMARK  5 active torsions:
REMARK  status: ('A' for Active; 'I' for Inactive)
REMARK    1  A    between atoms: C_1  and  C_2
REMARK    2  A    between atoms: C_5  and  C_6
REMARK    3  A    between atoms: C_10  and  C_11
REMARK    4  A    between atoms: N_13  and  C_14
REMARK    5  A    between atoms: N_18  and  C_19
REMARK                            x       y       z     vdW  Elec       q    Type
REMARK                         _______ _______ _______ _____ _____    ______ ____
ROOT
ATOM      1  C   UNL     1       1.538   9.409  17.934  0.00  0.00    +0.000 C 
ATOM      2  O   UNL     1       0.396   9.329  17.476  0.00  0.00    +0.000 OA
ATOM      3  N   UNL     1       2.175  10.604  18.146  0.00  0.00    +0.000 N 
ATOM      4  H   UNL     1       3.071  10.632  18.620  0.00  0.00    +0.000 HD
ENDROOT
BRANCH   1   9
ATOM      5  C   UNL     1       4.077   6.595  17.807  0.00  0.00    +0.000 A 
ATOM      6  C   UNL     1       3.778   5.892  18.981  0.00  0.00    +0.000 A 
ATOM      7  C   UNL     1       2.767   6.332  19.836  0.00  0.00    +0.000 A 
ATOM      8  C   UNL     1       2.031   7.479  19.518  0.00  0.00    +0.000 A 
ATOM      9  C   UNL     1       2.275   8.169  18.321  0.00  0.00    +0.000 A 
ATOM     10  C   UNL     1       3.300   7.717  17.475  0.00  0.00    +0.000 A 
BRANCH   5  15
ATOM     11  C   UNL     1       6.355   4.173  14.372  0.00  0.00    +0.000 C 
ATOM     12  C   UNL     1       6.229   5.148  15.464  0.00  0.00    +0.000 A 
ATOM     13  N   UNL     1       7.047   6.106  15.842  0.00  0.00    +0.000 NA
ATOM     14  N   UNL     1       6.396   6.791  16.850  0.00  0.00    +0.000 NA
ATOM     15  C   UNL     1       5.227   6.201  17.009  0.00  0.00    +0.000 A 
ATOM     16  O   UNL     1       5.064   5.124  16.176  0.00  0.00    +0.000 OA
ENDBRANCH   5  15
ENDBRANCH   1   9
BRANCH   3  17
ATOM     17  C   UNL     1       1.588  11.914  17.843  0.00  0.00    +0.000 C 
ATOM     18  C   UNL     1       2.666  13.004  17.978  0.00  0.00    +0.000 C 
ATOM     19  C   UNL     1       3.071  13.238  19.440  0.00  0.00    +0.000 C 
ATOM     20  C   UNL     1       1.856  13.466  20.348  0.00  0.00    +0.000 C 
ATOM     21  N   UNL     1       0.936  12.335  20.175  0.00  0.00    +0.000 N 
ATOM     22  C   UNL     1       0.407  12.219  18.803  0.00  0.00    +0.000 C 
BRANCH  21  23
ATOM     23  C   UNL     1       0.277  11.751  21.253  0.00  0.00    +0.000 A 
ATOM     24  C   UNL     1       0.560  10.425  21.635  0.00  0.00    +0.000 A 
ATOM     25  C   UNL     1      -0.150   9.766  22.649  0.00  0.00    +0.000 A 
ATOM     26  C   UNL     1      -1.194  10.407  23.300  0.00  0.00    +0.000 A 
ATOM     27  C   UNL     1      -1.491  11.721  22.972  0.00  0.00    +0.000 A 
ATOM     28  C   UNL     1      -0.751  12.396  21.992  0.00  0.00    +0.000 A 
ATOM     29 CL   UNL     1      -1.261  14.032  21.735  0.00  0.00    +0.000 Cl
ENDBRANCH  21  23
ENDBRANCH   3  17
TORSDOF 4
ENDMDL
MODEL 7
REMARK VINA RESULT:      -7.6      5.137      8.552
REMARK  Name = 
REMARK  5 active torsions:
REMARK  status: ('A' for Active; 'I' for Inactive)
REMARK    1  A    between atoms: C_1  and  C_2
REMARK    2  A    between atoms: C_5  and  C_6
REMARK    3  A    between atoms: C_10  and  C_11
REMARK    4  A    between atoms: N_13  and  C_14
REMARK    5  A    between atoms: N_18  and  C_19
REMARK                            x       y       z     vdW  Elec       q    Type
REMARK                         _______ _______ _______ _____ _____    ______ ____
ROOT
ATOM      1  C   UNL     1       0.481   9.704  20.538  0.00  0.00    +0.000 C 
ATOM      2  O   UNL     1      -0.362   9.194  21.280  0.00  0.00    +0.000 OA
ATOM      3  N   UNL     1       0.693  11.057  20.469  0.00  0.00    +0.000 N 
ATOM      4  H   UNL     1       1.465  11.429  19.926  0.00  0.00    +0.000 HD
ENDROOT
BRANCH   1   9
ATOM      5  C   UNL     1       2.518   6.700  19.443  0.00  0.00    +0.000 A 
ATOM      6  C   UNL     1       2.929   7.089  18.162  0.00  0.00    +0.000 A 
ATOM      7  C   UNL     1       2.536   8.317  17.631  0.00  0.00    +0.000 A 
ATOM      8  C   UNL     1       1.732   9.181  18.385  0.00  0.00    +0.000 A 
ATOM      9  C   UNL     1       1.353   8.836  19.690  0.00  0.00    +0.000 A 
ATOM     10  C   UNL     1       1.752   7.594  20.208  0.00  0.00    +0.000 A 
BRANCH   5  15
ATOM     11  C   UNL     1       1.632   2.601  21.739  0.00  0.00    +0.000 C 
ATOM     12  C   UNL     1       2.413   3.528  20.908  0.00  0.00    +0.000 A 
ATOM     13  N   UNL     1       3.470   3.307  20.157  0.00  0.00    +0.000 NA
ATOM     14  N   UNL     1       3.737   4.499  19.511  0.00  0.00    +0.000 NA
ATOM     15  C   UNL     1       2.821   5.357  19.915  0.00  0.00    +0.000 A 
ATOM     16  O   UNL     1       1.958   4.814  20.832  0.00  0.00    +0.000 OA
ENDBRANCH   5  15
ENDBRANCH   1   9
BRANCH   3  17
ATOM     17  C   UNL     1      -0.057  12.047  21.248  0.00  0.00    +0.000 C 
ATOM     18  C   UNL     1      -1.399  12.338  20.554  0.00  0.00    +0.000 C 
ATOM     19  C   UNL     1      -1.216  13.127  19.250  0.00  0.00    +0.000 C 
ATOM     20  C   UNL     1      -0.348  14.375  19.445  0.00  0.00    +0.000 C 
ATOM     21  N   UNL     1       0.922  13.959  20.055  0.00  0.00    +0.000 N 
ATOM     22  C   UNL     1       0.757  13.361  21.393  0.00  0.00    +0.000 C 
BRANCH  21  23
ATOM     23  C   UNL     1       2.142  14.492  19.649  0.00  0.00    +0.000 A 
ATOM     24  C   UNL     1       2.587  15.731  20.152  0.00  0.00    +0.000 A 
ATOM     25  C   UNL     1       3.759  16.351  19.695  0.00  0.00    +0.000 A 
ATOM     26  C   UNL     1       4.516  15.762  18.693  0.00  0.00    +0.000 A 
ATOM     27  C   UNL     1       4.128  14.531  18.188  0.00  0.00    +0.000 A 
ATOM     28  C   UNL     1       2.983  13.888  18.676  0.00  0.00    +0.000 A 
ATOM     29 CL   UNL     1       2.671  12.354  17.932  0.00  0.00    +0.000 Cl
ENDBRANCH  21  23
ENDBRANCH   3  17
TORSDOF 4
ENDMDL
MODEL 8
REMARK VINA RESULT:      -7.6      7.723     10.728
REMARK  Name = 
REMARK  5 active torsions:
REMARK  status: ('A' for Active; 'I' for Inactive)
REMARK    1  A    between atoms: C_1  and  C_2
REMARK    2  A    between atoms: C_5  and  C_6
REMARK    3  A    between atoms: C_10  and  C_11
REMARK    4  A    between atoms: N_13  and  C_14
REMARK    5  A    between atoms: N_18  and  C_19
REMARK                            x       y       z     vdW  Elec       q    Type
REMARK                         _______ _______ _______ _____ _____    ______ ____
ROOT
ATOM      1  C   UNL     1      -3.317  10.874  17.649  0.00  0.00    +0.000 C 
ATOM      2  O   UNL     1      -3.434  10.159  16.650  0.00  0.00    +0.000 OA
ATOM      3  N   UNL     1      -4.391  11.385  18.331  0.00  0.00    +0.000 N 
ATOM      4  H   UNL     1      -4.255  11.881  19.206  0.00  0.00    +0.000 HD
ENDROOT
BRANCH   1   9
ATOM      5  C   UNL     1       0.326  10.415  18.594  0.00  0.00    +0.000 A 
ATOM      6  C   UNL     1       0.648  11.680  19.102  0.00  0.00    +0.000 A 
ATOM      7  C   UNL     1      -0.303  12.700  19.125  0.00  0.00    +0.000 A 
ATOM      8  C   UNL     1      -1.598  12.461  18.649  0.00  0.00    +0.000 A 
ATOM      9  C   UNL     1      -1.959  11.188  18.186  0.00  0.00    +0.000 A 
ATOM     10  C   UNL     1      -0.989  10.174  18.164  0.00  0.00    +0.000 A 
BRANCH   5  15
ATOM     11  C   UNL     1       2.650   6.373  19.652  0.00  0.00    +0.000 C 
ATOM     12  C   UNL     1       2.383   7.606  18.898  0.00  0.00    +0.000 A 
ATOM     13  N   UNL     1       2.853   8.006  17.737  0.00  0.00    +0.000 NA
ATOM     14  N   UNL     1       2.196   9.185  17.443  0.00  0.00    +0.000 NA
ATOM     15  C   UNL     1       1.372   9.415  18.447  0.00  0.00    +0.000 A 
ATOM     16  O   UNL     1       1.460   8.461  19.428  0.00  0.00    +0.000 OA
ENDBRANCH   5  15
ENDBRANCH   1   9
BRANCH   3  17
ATOM     17  C   UNL     1      -5.789  11.156  17.953  0.00  0.00    +0.000 C 
ATOM     18  C   UNL     1      -6.279  12.318  17.071  0.00  0.00    +0.000 C 
ATOM     19  C   UNL     1      -6.440  13.620  17.868  0.00  0.00    +0.000 C 
ATOM     20  C   UNL     1      -7.279  13.423  19.136  0.00  0.00    +0.000 C 
ATOM     21  N   UNL     1      -6.676  12.335  19.918  0.00  0.00    +0.000 N 
ATOM     22  C   UNL     1      -6.685  11.039  19.215  0.00  0.00    +0.000 C 
BRANCH  21  23
ATOM     23  C   UNL     1      -6.559  12.403  21.303  0.00  0.00    +0.000 A 
ATOM     24  C   UNL     1      -7.649  12.076  22.133  0.00  0.00    +0.000 A 
ATOM     25  C   UNL     1      -7.606  12.226  23.527  0.00  0.00    +0.000 A 
ATOM     26  C   UNL     1      -6.472  12.740  24.139  0.00  0.00    +0.000 A 
ATOM     27  C   UNL     1      -5.367  13.053  23.363  0.00  0.00    +0.000 A 
ATOM     28  C   UNL     1      -5.393  12.859  21.975  0.00  0.00    +0.000 A 
ATOM     29 CL   UNL     1      -3.914  13.292  21.182  0.00  0.00    +0.000 Cl
ENDBRANCH  21  23
ENDBRANCH   3  17
TORSDOF 4
ENDMDL
MODEL 9
REMARK VINA RESULT:      -7.6      3.380      7.931
REMARK  Name = 
REMARK  5 active torsions:
REMARK  status: ('A' for Active; 'I' for Inactive)
REMARK    1  A    between atoms: C_1  and  C_2
REMARK    2  A    between atoms: C_5  and  C_6
REMARK    3  A    between atoms: C_10  and  C_11
REMARK    4  A    between atoms: N_13  and  C_14
REMARK    5  A    between atoms: N_18  and  C_19
REMARK                            x       y       z     vdW  Elec       q    Type
REMARK                         _______ _______ _______ _____ _____    ______ ____
ROOT
ATOM      1  C   UNL     1       3.527   6.820  19.044  0.00  0.00    +0.000 C 
ATOM      2  O   UNL     1       3.524   5.970  19.938  0.00  0.00    +0.000 OA
ATOM      3  N   UNL     1       4.470   6.854  18.051  0.00  0.00    +0.000 N 
ATOM      4  H   UNL     1       4.378   7.504  17.277  0.00  0.00    +0.000 HD
ENDROOT
BRANCH   1   9
ATOM      5  C   UNL     1       0.908   9.290  20.234  0.00  0.00    +0.000 A 
ATOM      6  C   UNL     1       0.463   9.836  19.024  0.00  0.00    +0.000 A 
ATOM      7  C   UNL     1       1.020   9.426  17.812  0.00  0.00    +0.000 A 
ATOM      8  C   UNL     1       2.024   8.451  17.796  0.00  0.00    +0.000 A 
ATOM      9  C   UNL     1       2.447   7.851  18.992  0.00  0.00    +0.000 A 
ATOM     10  C   UNL     1       1.881   8.279  20.203  0.00  0.00    +0.000 A 
BRANCH   5  15
ATOM     11  C   UNL     1      -2.089  11.773  23.012  0.00  0.00    +0.000 C 
ATOM     12  C   UNL     1      -0.933  10.912  22.723  0.00  0.00    +0.000 A 
ATOM     13  N   UNL     1      -0.187  10.197  23.536  0.00  0.00    +0.000 NA
ATOM     14  N   UNL     1       0.693   9.497  22.733  0.00  0.00    +0.000 NA
ATOM     15  C   UNL     1       0.415   9.837  21.489  0.00  0.00    +0.000 A 
ATOM     16  O   UNL     1      -0.594  10.761  21.409  0.00  0.00    +0.000 OA
ENDBRANCH   5  15
ENDBRANCH   1   9
BRANCH   3  17
ATOM     17  C   UNL     1       5.583   5.905  17.940  0.00  0.00    +0.000 C 
ATOM     18  C   UNL     1       6.104   5.890  16.492  0.00  0.00    +0.000 C 
ATOM     19  C   UNL     1       5.109   5.229  15.528  0.00  0.00    +0.000 C 
ATOM     20  C   UNL     1       4.648   3.854  16.024  0.00  0.00    +0.000 C 
ATOM     21  N   UNL     1       4.118   4.012  17.384  0.00  0.00    +0.000 N 
ATOM     22  C   UNL     1       5.129   4.479  18.351  0.00  0.00    +0.000 C 
BRANCH  21  23
ATOM     23  C   UNL     1       2.967   3.354  17.807  0.00  0.00    +0.000 A 
ATOM     24  C   UNL     1       1.718   4.006  17.785  0.00  0.00    +0.000 A 
ATOM     25  C   UNL     1       0.552   3.416  18.294  0.00  0.00    +0.000 A 
ATOM     26  C   UNL     1       0.602   2.156  18.872  0.00  0.00    +0.000 A 
ATOM     27  C   UNL     1       1.806   1.468  18.893  0.00  0.00    +0.000 A 
ATOM     28  C   UNL     1       2.962   2.038  18.342  0.00  0.00    +0.000 A 
ATOM     29 CL   UNL     1       4.360   1.020  18.449  0.00  0.00    +0.000 Cl
ENDBRANCH  21  23
ENDBRANCH   3  17
TORSDOF 4
ENDMDL
