MODEL 1
REMARK VINA RESULT:      -8.2      0.000      0.000
REMARK  Name = 
REMARK  7 active torsions:
REMARK  status: ('A' for Active; 'I' for Inactive)
REMARK    1  A    between atoms: C_1  and  C_2
REMARK    2  A    between atoms: C_5  and  C_6
REMARK    3  A    between atoms: C_7  and  C_8
REMARK    4  A    between atoms: C_8  and  O_9
REMARK    5  A    between atoms: O_9  and  C_10
REMARK    6  A    between atoms: C_14  and  C_15
REMARK    7  A    between atoms: N_17  and  C_18
REMARK                            x       y       z     vdW  Elec       q    Type
REMARK                         _______ _______ _______ _____ _____    ______ ____
ROOT
ATOM      1  C   UNL     1       3.181   5.369  18.251  0.00  0.00    +0.000 A 
ATOM      2  C   UNL     1       2.964   4.956  19.566  0.00  0.00    +0.000 A 
ATOM      3  C   UNL     1       2.382   5.826  20.486  0.00  0.00    +0.000 A 
ATOM      4  C   UNL     1       2.014   7.115  20.088  0.00  0.00    +0.000 A 
ATOM      5  C   UNL     1       2.250   7.545  18.774  0.00  0.00    +0.000 A 
ATOM      6  C   UNL     1       2.851   6.672  17.868  0.00  0.00    +0.000 A 
ENDROOT
BRANCH   5   7
ATOM      7  C   UNL     1       1.788   8.900  18.353  0.00  0.00    +0.000 C 
ATOM      8  O   UNL     1       2.242   9.403  17.333  0.00  0.00    +0.000 OA
ATOM      9  N   UNL     1       0.836   9.532  19.144  0.00  0.00    +0.000 N 
ATOM     10  H   UNL     1       0.276   8.987  19.783  0.00  0.00    +0.000 HD
BRANCH   9  11
ATOM     11  C   UNL     1       0.242  10.786  18.696  0.00  0.00    +0.000 C 
ATOM     12  C   UNL     1      -1.187  10.526  18.200  0.00  0.00    +0.000 C 
ATOM     13  C   UNL     1      -2.180  11.600  18.589  0.00  0.00    +0.000 C 
ATOM     14  O   UNL     1      -2.075  11.979  19.959  0.00  0.00    +0.000 OA
ATOM     15  C   UNL     1      -0.832  12.469  20.243  0.00  0.00    +0.000 A 
ATOM     16  C   UNL     1      -0.776  13.587  21.075  0.00  0.00    +0.000 A 
ATOM     17  C   UNL     1       0.457  14.130  21.426  0.00  0.00    +0.000 A 
ATOM     18  C   UNL     1       1.630  13.514  20.992  0.00  0.00    +0.000 A 
ATOM     19  C   UNL     1       1.569  12.390  20.160  0.00  0.00    +0.000 A 
ATOM     20  C   UNL     1       0.330  11.873  19.743  0.00  0.00    +0.000 A 
ENDBRANCH   9  11
ENDBRANCH   5   7
BRANCH   1  21
ATOM     21  O   UNL     1       3.704   4.432  17.401  0.00  0.00    +0.000 OA
BRANCH  21  22
ATOM     22  C   UNL     1       5.058   4.051  17.685  0.00  0.00    +0.000 C 
BRANCH  22  29
ATOM     23  C   UNL     1       7.311   6.031  18.873  0.00  0.00    +0.000 C 
ATOM     24  C   UNL     1       7.019   5.740  17.448  0.00  0.00    +0.000 A 
ATOM     25  N   UNL     1       7.747   6.290  16.472  0.00  0.00    +0.000 NA
ATOM     26  O   UNL     1       7.227   5.796  15.289  0.00  0.00    +0.000 OA
ATOM     27  C   UNL     1       6.199   4.951  15.563  0.00  0.00    +0.000 A 
ATOM     28  C   UNL     1       5.539   4.313  14.408  0.00  0.00    +0.000 C 
ATOM     29  C   UNL     1       6.020   4.877  16.926  0.00  0.00    +0.000 A 
ENDBRANCH  22  29
ENDBRANCH  21  22
ENDBRANCH   1  21
TORSDOF 5
ENDMDL
MODEL 2
REMARK VINA RESULT:      -8.2      1.080      1.859
REMARK  Name = 
REMARK  7 active torsions:
REMARK  status: ('A' for Active; 'I' for Inactive)
REMARK    1  A    between atoms: C_1  and  C_2
REMARK    2  A    between atoms: C_5  and  C_6
REMARK    3  A    between atoms: C_7  and  C_8
REMARK    4  A    between atoms: C_8  and  O_9
REMARK    5  A    between atoms: O_9  and  C_10
REMARK    6  A    between atoms: C_14  and  C_15
REMARK    7  A    between atoms: N_17  and  C_18
REMARK                            x       y       z     vdW  Elec       q    Type
REMARK                         _______ _______ _______ _____ _____    ______ ____
ROOT
ATOM      1  C   UNL     1       3.487   5.459  18.649  0.00  0.00    +0.000 A 
ATOM      2  C   UNL     1       3.100   5.089  19.937  0.00  0.00    +0.000 A 
ATOM      3  C   UNL     1       2.295   5.937  20.696  0.00  0.00    +0.000 A 
ATOM      4  C   UNL     1       1.873   7.159  20.162  0.00  0.00    +0.000 A 
ATOM      5  C   UNL     1       2.277   7.547  18.877  0.00  0.00    +0.000 A 
ATOM      6  C   UNL     1       3.099   6.699  18.135  0.00  0.00    +0.000 A 
ENDROOT
BRANCH   5   7
ATOM      7  C   UNL     1       1.761   8.823  18.301  0.00  0.00    +0.000 C 
ATOM      8  O   UNL     1       2.066   9.138  17.158  0.00  0.00    +0.000 OA
ATOM      9  N   UNL     1       0.930   9.601  19.099  0.00  0.00    +0.000 N 
ATOM     10  H   UNL     1       0.466   9.184  19.892  0.00  0.00    +0.000 HD
BRANCH   9  11
ATOM     11  C   UNL     1       0.279  10.776  18.532  0.00  0.00    +0.000 C 
ATOM     12  C   UNL     1      -1.205  10.776  18.922  0.00  0.00    +0.000 C 
ATOM     13  C   UNL     1      -1.750  12.144  19.275  0.00  0.00    +0.000 C 
ATOM     14  O   UNL     1      -0.895  12.870  20.153  0.00  0.00    +0.000 OA
ATOM     15  C   UNL     1       0.336  13.068  19.593  0.00  0.00    +0.000 A 
ATOM     16  C   UNL     1       0.912  14.324  19.779  0.00  0.00    +0.000 A 
ATOM     17  C   UNL     1       2.174  14.593  19.257  0.00  0.00    +0.000 A 
ATOM     18  C   UNL     1       2.879  13.584  18.603  0.00  0.00    +0.000 A 
ATOM     19  C   UNL     1       2.297  12.323  18.421  0.00  0.00    +0.000 A 
ATOM     20  C   UNL     1       0.997  12.060  18.885  0.00  0.00    +0.000 A 
ENDBRANCH   9  11
ENDBRANCH   5   7
BRANCH   1  21
ATOM     21  O   UNL     1       4.230   4.542  17.954  0.00  0.00    +0.000 OA
BRANCH  21  22
ATOM     22  C   UNL     1       5.625   4.519  18.290  0.00  0.00    +0.000 C 
BRANCH  22  29
ATOM     23  C   UNL     1       5.749   3.562  15.211  0.00  0.00    +0.000 C 
ATOM     24  C   UNL     1       6.497   4.674  15.847  0.00  0.00    +0.000 A 
ATOM     25  N   UNL     1       7.316   5.448  15.130  0.00  0.00    +0.000 NA
ATOM     26  O   UNL     1       7.825   6.382  16.015  0.00  0.00    +0.000 OA
ATOM     27  C   UNL     1       7.305   6.166  17.251  0.00  0.00    +0.000 A 
ATOM     28  C   UNL     1       7.727   7.091  18.320  0.00  0.00    +0.000 C 
ATOM     29  C   UNL     1       6.450   5.087  17.204  0.00  0.00    +0.000 A 
ENDBRANCH  22  29
ENDBRANCH  21  22
ENDBRANCH   1  21
TORSDOF 5
ENDMDL
MODEL 3
REMARK VINA RESULT:      -8.1      1.235      1.612
REMARK  Name = 
REMARK  7 active torsions:
REMARK  status: ('A' for Active; 'I' for Inactive)
REMARK    1  A    between atoms: C_1  and  C_2
REMARK    2  A    between atoms: C_5  and  C_6
REMARK    3  A    between atoms: C_7  and  C_8
REMARK    4  A    between atoms: C_8  and  O_9
REMARK    5  A    between atoms: O_9  and  C_10
REMARK    6  A    between atoms: C_14  and  C_15
REMARK    7  A    between atoms: N_17  and  C_18
REMARK                            x       y       z     vdW  Elec       q    Type
REMARK                         _______ _______ _______ _____ _____    ______ ____
ROOT
ATOM      1  C   UNL     1       3.229   5.229  17.896  0.00  0.00    +0.000 A 
ATOM      2  C   UNL     1       3.349   4.692  19.179  0.00  0.00    +0.000 A 
ATOM      3  C   UNL     1       2.902   5.413  20.284  0.00  0.00    +0.000 A 
ATOM      4  C   UNL     1       2.330   6.677  20.105  0.00  0.00    +0.000 A 
ATOM      5  C   UNL     1       2.227   7.233  18.822  0.00  0.00    +0.000 A 
ATOM      6  C   UNL     1       2.696   6.510  17.726  0.00  0.00    +0.000 A 
ENDROOT
BRANCH   5   7
ATOM      7  C   UNL     1       1.552   8.552  18.647  0.00  0.00    +0.000 C 
ATOM      8  O   UNL     1       1.224   8.919  17.526  0.00  0.00    +0.000 OA
ATOM      9  N   UNL     1       1.310   9.309  19.787  0.00  0.00    +0.000 N 
ATOM     10  H   UNL     1       1.314   8.863  20.693  0.00  0.00    +0.000 HD
BRANCH   9  11
ATOM     11  C   UNL     1       0.521  10.531  19.689  0.00  0.00    +0.000 C 
ATOM     12  C   UNL     1      -0.486  10.584  20.846  0.00  0.00    +0.000 C 
ATOM     13  C   UNL     1      -0.661  11.962  21.448  0.00  0.00    +0.000 C 
ATOM     14  O   UNL     1       0.578  12.618  21.695  0.00  0.00    +0.000 OA
ATOM     15  C   UNL     1       1.292  12.780  20.541  0.00  0.00    +0.000 A 
ATOM     16  C   UNL     1       1.943  14.002  20.375  0.00  0.00    +0.000 A 
ATOM     17  C   UNL     1       2.707  14.232  19.234  0.00  0.00    +0.000 A 
ATOM     18  C   UNL     1       2.865  13.215  18.294  0.00  0.00    +0.000 A 
ATOM     19  C   UNL     1       2.212  11.988  18.467  0.00  0.00    +0.000 A 
ATOM     20  C   UNL     1       1.383  11.769  19.581  0.00  0.00    +0.000 A 
ENDBRANCH   9  11
ENDBRANCH   5   7
BRANCH   1  21
ATOM     21  O   UNL     1       3.642   4.429  16.864  0.00  0.00    +0.000 OA
BRANCH  21  22
ATOM     22  C   UNL     1       4.948   3.859  17.030  0.00  0.00    +0.000 C 
BRANCH  22  29
ATOM     23  C   UNL     1       6.823   6.087  18.418  0.00  0.00    +0.000 C 
ATOM     24  C   UNL     1       6.818   5.663  16.997  0.00  0.00    +0.000 A 
ATOM     25  N   UNL     1       7.680   6.188  16.121  0.00  0.00    +0.000 NA
ATOM     26  O   UNL     1       7.417   5.565  14.913  0.00  0.00    +0.000 OA
ATOM     27  C   UNL     1       6.407   4.671  15.074  0.00  0.00    +0.000 A 
ATOM     28  C   UNL     1       6.010   3.898  13.882  0.00  0.00    +0.000 C 
ATOM     29  C   UNL     1       5.984   4.691  16.384  0.00  0.00    +0.000 A 
ENDBRANCH  22  29
ENDBRANCH  21  22
ENDBRANCH   1  21
TORSDOF 5
ENDMDL
MODEL 4
REMARK VINA RESULT:      -8.1      2.750      4.323
REMARK  Name = 
REMARK  7 active torsions:
REMARK  status: ('A' for Active; 'I' for Inactive)
REMARK    1  A    between atoms: C_1  and  C_2
REMARK    2  A    between atoms: C_5  and  C_6
REMARK    3  A    between atoms: C_7  and  C_8
REMARK    4  A    between atoms: C_8  and  O_9
REMARK    5  A    between atoms: O_9  and  C_10
REMARK    6  A    between atoms: C_14  and  C_15
REMARK    7  A    between atoms: N_17  and  C_18
REMARK                            x       y       z     vdW  Elec       q    Type
REMARK                         _______ _______ _______ _____ _____    ______ ____
ROOT
ATOM      1  C   UNL     1       2.198   7.713  19.199  0.00  0.00    +0.000 A 
ATOM      2  C   UNL     1       2.027   7.376  20.542  0.00  0.00    +0.000 A 
ATOM      3  C   UNL     1       1.164   8.118  21.346  0.00  0.00    +0.000 A 
ATOM      4  C   UNL     1       0.468   9.203  20.803  0.00  0.00    +0.000 A 
ATOM      5  C   UNL     1       0.653   9.562  19.460  0.00  0.00    +0.000 A 
ATOM      6  C   UNL     1       1.533   8.824  18.671  0.00  0.00    +0.000 A 
ENDROOT
BRANCH   5   7
ATOM      7  C   UNL     1      -0.151  10.680  18.884  0.00  0.00    +0.000 C 
ATOM      8  O   UNL     1       0.402  11.733  18.591  0.00  0.00    +0.000 OA
ATOM      9  N   UNL     1      -1.510  10.464  18.690  0.00  0.00    +0.000 N 
ATOM     10  H   UNL     1      -1.865   9.520  18.654  0.00  0.00    +0.000 HD
BRANCH   9  11
ATOM     11  C   UNL     1      -2.307  11.466  17.991  0.00  0.00    +0.000 C 
ATOM     12  C   UNL     1      -2.674  10.946  16.595  0.00  0.00    +0.000 C 
ATOM     13  C   UNL     1      -4.085  11.280  16.163  0.00  0.00    +0.000 C 
ATOM     14  O   UNL     1      -5.051  11.018  17.178  0.00  0.00    +0.000 OA
ATOM     15  C   UNL     1      -4.798  11.752  18.303  0.00  0.00    +0.000 A 
ATOM     16  C   UNL     1      -5.902  12.314  18.944  0.00  0.00    +0.000 A 
ATOM     17  C   UNL     1      -5.724  13.057  20.108  0.00  0.00    +0.000 A 
ATOM     18  C   UNL     1      -4.450  13.182  20.658  0.00  0.00    +0.000 A 
ATOM     19  C   UNL     1      -3.345  12.613  20.013  0.00  0.00    +0.000 A 
ATOM     20  C   UNL     1      -3.502  11.919  18.801  0.00  0.00    +0.000 A 
ENDBRANCH   9  11
ENDBRANCH   5   7
BRANCH   1  21
ATOM     21  O   UNL     1       3.020   6.896  18.469  0.00  0.00    +0.000 OA
BRANCH  21  22
ATOM     22  C   UNL     1       3.413   5.688  19.136  0.00  0.00    +0.000 C 
BRANCH  22  29
ATOM     23  C   UNL     1       4.333   4.150  16.454  0.00  0.00    +0.000 C 
ATOM     24  C   UNL     1       3.195   3.819  17.345  0.00  0.00    +0.000 A 
ATOM     25  N   UNL     1       2.424   2.754  17.106  0.00  0.00    +0.000 NA
ATOM     26  O   UNL     1       1.488   2.729  18.125  0.00  0.00    +0.000 OA
ATOM     27  C   UNL     1       1.706   3.772  18.968  0.00  0.00    +0.000 A 
ATOM     28  C   UNL     1       0.805   3.886  20.130  0.00  0.00    +0.000 C 
ATOM     29  C   UNL     1       2.784   4.503  18.519  0.00  0.00    +0.000 A 
ENDBRANCH  22  29
ENDBRANCH  21  22
ENDBRANCH   1  21
TORSDOF 5
ENDMDL
MODEL 5
REMARK VINA RESULT:      -8.0      2.223      3.062
REMARK  Name = 
REMARK  7 active torsions:
REMARK  status: ('A' for Active; 'I' for Inactive)
REMARK    1  A    between atoms: C_1  and  C_2
REMARK    2  A    between atoms: C_5  and  C_6
REMARK    3  A    between atoms: C_7  and  C_8
REMARK    4  A    between atoms: C_8  and  O_9
REMARK    5  A    between atoms: O_9  and  C_10
REMARK    6  A    between atoms: C_14  and  C_15
REMARK    7  A    between atoms: N_17  and  C_18
REMARK                            x       y       z     vdW  Elec       q    Type
REMARK                         _______ _______ _______ _____ _____    ______ ____
ROOT
ATOM      1  C   UNL     1       2.556   7.300  18.382  0.00  0.00    +0.000 A 
ATOM      2  C   UNL     1       2.535   6.885  19.714  0.00  0.00    +0.000 A 
ATOM      3  C   UNL     1       1.800   7.599  20.658  0.00  0.00    +0.000 A 
ATOM      4  C   UNL     1       1.081   8.733  20.269  0.00  0.00    +0.000 A 
ATOM      5  C   UNL     1       1.115   9.170  18.937  0.00  0.00    +0.000 A 
ATOM      6  C   UNL     1       1.870   8.459  18.005  0.00  0.00    +0.000 A 
ENDROOT
BRANCH   5   7
ATOM      7  C   UNL     1       0.286  10.342  18.529  0.00  0.00    +0.000 C 
ATOM      8  O   UNL     1       0.804  11.449  18.450  0.00  0.00    +0.000 OA
ATOM      9  N   UNL     1      -1.053  10.115  18.238  0.00  0.00    +0.000 N 
ATOM     10  H   UNL     1      -1.366   9.179  18.023  0.00  0.00    +0.000 HD
BRANCH   9  11
ATOM     11  C   UNL     1      -1.866  11.194  17.690  0.00  0.00    +0.000 C 
ATOM     12  C   UNL     1      -2.486  10.744  16.361  0.00  0.00    +0.000 C 
ATOM     13  C   UNL     1      -3.916  11.198  16.161  0.00  0.00    +0.000 C 
ATOM     14  O   UNL     1      -4.730  10.983  17.311  0.00  0.00    +0.000 OA
ATOM     15  C   UNL     1      -4.247  11.662  18.394  0.00  0.00    +0.000 A 
ATOM     16  C   UNL     1      -5.189  12.289  19.209  0.00  0.00    +0.000 A 
ATOM     17  C   UNL     1      -4.774  12.983  20.343  0.00  0.00    +0.000 A 
ATOM     18  C   UNL     1      -3.423  12.994  20.688  0.00  0.00    +0.000 A 
ATOM     19  C   UNL     1      -2.481  12.360  19.868  0.00  0.00    +0.000 A 
ATOM     20  C   UNL     1      -2.880  11.715  18.684  0.00  0.00    +0.000 A 
ENDBRANCH   9  11
ENDBRANCH   5   7
BRANCH   1  21
ATOM     21  O   UNL     1       3.256   6.509  17.512  0.00  0.00    +0.000 OA
BRANCH  21  22
ATOM     22  C   UNL     1       4.592   6.954  17.236  0.00  0.00    +0.000 C 
BRANCH  22  29
ATOM     23  C   UNL     1       7.727   7.505  17.763  0.00  0.00    +0.000 C 
ATOM     24  C   UNL     1       6.972   6.253  18.010  0.00  0.00    +0.000 A 
ATOM     25  N   UNL     1       7.571   5.185  18.545  0.00  0.00    +0.000 NA
ATOM     26  O   UNL     1       6.588   4.217  18.655  0.00  0.00    +0.000 OA
ATOM     27  C   UNL     1       5.410   4.711  18.193  0.00  0.00    +0.000 A 
ATOM     28  C   UNL     1       4.242   3.812  18.257  0.00  0.00    +0.000 C 
ATOM     29  C   UNL     1       5.595   6.007  17.767  0.00  0.00    +0.000 A 
ENDBRANCH  22  29
ENDBRANCH  21  22
ENDBRANCH   1  21
TORSDOF 5
ENDMDL
MODEL 6
REMARK VINA RESULT:      -8.0      1.202      1.387
REMARK  Name = 
REMARK  7 active torsions:
REMARK  status: ('A' for Active; 'I' for Inactive)
REMARK    1  A    between atoms: C_1  and  C_2
REMARK    2  A    between atoms: C_5  and  C_6
REMARK    3  A    between atoms: C_7  and  C_8
REMARK    4  A    between atoms: C_8  and  O_9
REMARK    5  A    between atoms: O_9  and  C_10
REMARK    6  A    between atoms: C_14  and  C_15
REMARK    7  A    between atoms: N_17  and  C_18
REMARK                            x       y       z     vdW  Elec       q    Type
REMARK                         _______ _______ _______ _____ _____    ______ ____
ROOT
ATOM      1  C   UNL     1       3.216   6.272  18.353  0.00  0.00    +0.000 A 
ATOM      2  C   UNL     1       2.881   5.732  19.595  0.00  0.00    +0.000 A 
ATOM      3  C   UNL     1       2.067   6.446  20.473  0.00  0.00    +0.000 A 
ATOM      4  C   UNL     1       1.585   7.706  20.105  0.00  0.00    +0.000 A 
ATOM      5  C   UNL     1       1.936   8.265  18.867  0.00  0.00    +0.000 A 
ATOM      6  C   UNL     1       2.766   7.549  18.007  0.00  0.00    +0.000 A 
ENDROOT
BRANCH   5   7
ATOM      7  C   UNL     1       1.355   9.580  18.467  0.00  0.00    +0.000 C 
ATOM      8  O   UNL     1       1.947  10.280  17.654  0.00  0.00    +0.000 OA
ATOM      9  N   UNL     1       0.141   9.949  19.033  0.00  0.00    +0.000 N 
ATOM     10  H   UNL     1      -0.451   9.243  19.448  0.00  0.00    +0.000 HD
BRANCH   9  11
ATOM     11  C   UNL     1      -0.541  11.148  18.562  0.00  0.00    +0.000 C 
ATOM     12  C   UNL     1      -1.657  10.752  17.587  0.00  0.00    +0.000 C 
ATOM     13  C   UNL     1      -2.928  11.560  17.743  0.00  0.00    +0.000 C 
ATOM     14  O   UNL     1      -3.333  11.696  19.102  0.00  0.00    +0.000 OA
ATOM     15  C   UNL     1      -2.373  12.323  19.845  0.00  0.00    +0.000 A 
ATOM     16  C   UNL     1      -2.817  13.265  20.772  0.00  0.00    +0.000 A 
ATOM     17  C   UNL     1      -1.898  13.929  21.581  0.00  0.00    +0.000 A 
ATOM     18  C   UNL     1      -0.546  13.603  21.498  0.00  0.00    +0.000 A 
ATOM     19  C   UNL     1      -0.105  12.654  20.567  0.00  0.00    +0.000 A 
ATOM     20  C   UNL     1      -1.015  12.027  19.699  0.00  0.00    +0.000 A 
ENDBRANCH   9  11
ENDBRANCH   5   7
BRANCH   1  21
ATOM     21  O   UNL     1       3.972   5.479  17.532  0.00  0.00    +0.000 OA
BRANCH  21  22
ATOM     22  C   UNL     1       5.032   6.161  16.847  0.00  0.00    +0.000 C 
BRANCH  22  29
ATOM     23  C   UNL     1       6.879   5.520  19.413  0.00  0.00    +0.000 C 
ATOM     24  C   UNL     1       7.092   5.086  18.011  0.00  0.00    +0.000 A 
ATOM     25  N   UNL     1       8.127   4.307  17.683  0.00  0.00    +0.000 NA
ATOM     26  O   UNL     1       8.014   4.081  16.323  0.00  0.00    +0.000 OA
ATOM     27  C   UNL     1       6.913   4.719  15.847  0.00  0.00    +0.000 A 
ATOM     28  C   UNL     1       6.627   4.566  14.408  0.00  0.00    +0.000 C 
ATOM     29  C   UNL     1       6.286   5.378  16.880  0.00  0.00    +0.000 A 
ENDBRANCH  22  29
ENDBRANCH  21  22
ENDBRANCH   1  21
TORSDOF 5
ENDMDL
MODEL 7
REMARK VINA RESULT:      -7.9      1.570      1.968
REMARK  Name = 
REMARK  7 active torsions:
REMARK  status: ('A' for Active; 'I' for Inactive)
REMARK    1  A    between atoms: C_1  and  C_2
REMARK    2  A    between atoms: C_5  and  C_6
REMARK    3  A    between atoms: C_7  and  C_8
REMARK    4  A    between atoms: C_8  and  O_9
REMARK    5  A    between atoms: O_9  and  C_10
REMARK    6  A    between atoms: C_14  and  C_15
REMARK    7  A    between atoms: N_17  and  C_18
REMARK                            x       y       z     vdW  Elec       q    Type
REMARK                         _______ _______ _______ _____ _____    ______ ____
ROOT
ATOM      1  C   UNL     1       3.028   6.252  18.353  0.00  0.00    +0.000 A 
ATOM      2  C   UNL     1       2.815   5.184  19.225  0.00  0.00    +0.000 A 
ATOM      3  C   UNL     1       2.091   5.373  20.401  0.00  0.00    +0.000 A 
ATOM      4  C   UNL     1       1.575   6.637  20.705  0.00  0.00    +0.000 A 
ATOM      5  C   UNL     1       1.805   7.721  19.845  0.00  0.00    +0.000 A 
ATOM      6  C   UNL     1       2.547   7.523  18.681  0.00  0.00    +0.000 A 
ENDROOT
BRANCH   5   7
ATOM      7  C   UNL     1       1.188   9.044  20.154  0.00  0.00    +0.000 C 
ATOM      8  O   UNL     1       1.204   9.464  21.304  0.00  0.00    +0.000 OA
ATOM      9  N   UNL     1       0.629   9.758  19.101  0.00  0.00    +0.000 N 
ATOM     10  H   UNL     1       0.894   9.536  18.152  0.00  0.00    +0.000 HD
BRANCH   9  11
ATOM     11  C   UNL     1       0.153  11.118  19.322  0.00  0.00    +0.000 C 
ATOM     12  C   UNL     1      -0.797  11.137  20.527  0.00  0.00    +0.000 C 
ATOM     13  C   UNL     1      -0.631  12.345  21.425  0.00  0.00    +0.000 C 
ATOM     14  O   UNL     1       0.733  12.625  21.726  0.00  0.00    +0.000 OA
ATOM     15  C   UNL     1       1.450  12.876  20.590  0.00  0.00    +0.000 A 
ATOM     16  C   UNL     1       2.371  13.921  20.651  0.00  0.00    +0.000 A 
ATOM     17  C   UNL     1       3.153  14.222  19.539  0.00  0.00    +0.000 A 
ATOM     18  C   UNL     1       3.052  13.436  18.392  0.00  0.00    +0.000 A 
ATOM     19  C   UNL     1       2.127  12.386  18.337  0.00  0.00    +0.000 A 
ATOM     20  C   UNL     1       1.284  12.116  19.429  0.00  0.00    +0.000 A 
ENDBRANCH   9  11
ENDBRANCH   5   7
BRANCH   1  21
ATOM     21  O   UNL     1       3.699   5.964  17.196  0.00  0.00    +0.000 OA
BRANCH  21  22
ATOM     22  C   UNL     1       4.213   4.627  17.115  0.00  0.00    +0.000 C 
BRANCH  22  29
ATOM     23  C   UNL     1       6.437   5.266  19.362  0.00  0.00    +0.000 C 
ATOM     24  C   UNL     1       6.661   4.893  17.944  0.00  0.00    +0.000 A 
ATOM     25  N   UNL     1       7.898   4.747  17.460  0.00  0.00    +0.000 NA
ATOM     26  O   UNL     1       7.743   4.382  16.134  0.00  0.00    +0.000 OA
ATOM     27  C   UNL     1       6.420   4.306  15.835  0.00  0.00    +0.000 A 
ATOM     28  C   UNL     1       6.073   3.905  14.458  0.00  0.00    +0.000 C 
ATOM     29  C   UNL     1       5.681   4.623  16.953  0.00  0.00    +0.000 A 
ENDBRANCH  22  29
ENDBRANCH  21  22
ENDBRANCH   1  21
TORSDOF 5
ENDMDL
MODEL 8
REMARK VINA RESULT:      -7.9      1.609      2.086
REMARK  Name = 
REMARK  7 active torsions:
REMARK  status: ('A' for Active; 'I' for Inactive)
REMARK    1  A    between atoms: C_1  and  C_2
REMARK    2  A    between atoms: C_5  and  C_6
REMARK    3  A    between atoms: C_7  and  C_8
REMARK    4  A    between atoms: C_8  and  O_9
REMARK    5  A    between atoms: O_9  and  C_10
REMARK    6  A    between atoms: C_14  and  C_15
REMARK    7  A    between atoms: N_17  and  C_18
REMARK                            x       y       z     vdW  Elec       q    Type
REMARK                         _______ _______ _______ _____ _____    ______ ____
ROOT
ATOM      1  C   UNL     1       3.428   6.743  18.063  0.00  0.00    +0.000 A 
ATOM      2  C   UNL     1       3.253   5.857  19.127  0.00  0.00    +0.000 A 
ATOM      3  C   UNL     1       2.392   6.181  20.173  0.00  0.00    +0.000 A 
ATOM      4  C   UNL     1       1.700   7.397  20.154  0.00  0.00    +0.000 A 
ATOM      5  C   UNL     1       1.888   8.302  19.099  0.00  0.00    +0.000 A 
ATOM      6  C   UNL     1       2.767   7.975  18.068  0.00  0.00    +0.000 A 
ENDROOT
BRANCH   5   7
ATOM      7  C   UNL     1       1.089   9.562  19.065  0.00  0.00    +0.000 C 
ATOM      8  O   UNL     1       0.396   9.811  18.086  0.00  0.00    +0.000 OA
ATOM      9  N   UNL     1       1.158  10.400  20.171  0.00  0.00    +0.000 N 
ATOM     10  H   UNL     1       1.483  10.035  21.054  0.00  0.00    +0.000 HD
BRANCH   9  11
ATOM     11  C   UNL     1       0.282  11.563  20.251  0.00  0.00    +0.000 C 
ATOM     12  C   UNL     1      -0.490  11.531  21.576  0.00  0.00    +0.000 C 
ATOM     13  C   UNL     1      -0.643  12.886  22.234  0.00  0.00    +0.000 C 
ATOM     14  O   UNL     1       0.573  13.627  22.262  0.00  0.00    +0.000 OA
ATOM     15  C   UNL     1       1.044  13.852  20.999  0.00  0.00    +0.000 A 
ATOM     16  C   UNL     1       1.567  15.120  20.743  0.00  0.00    +0.000 A 
ATOM     17  C   UNL     1       2.085  15.417  19.486  0.00  0.00    +0.000 A 
ATOM     18  C   UNL     1       2.133  14.424  18.508  0.00  0.00    +0.000 A 
ATOM     19  C   UNL     1       1.610  13.152  18.770  0.00  0.00    +0.000 A 
ATOM     20  C   UNL     1       1.022  12.861  20.014  0.00  0.00    +0.000 A 
ENDBRANCH   9  11
ENDBRANCH   5   7
BRANCH   1  21
ATOM     21  O   UNL     1       4.248   6.320  17.051  0.00  0.00    +0.000 OA
BRANCH  21  22
ATOM     22  C   UNL     1       5.583   6.845  17.099  0.00  0.00    +0.000 C 
BRANCH  22  29
ATOM     23  C   UNL     1       7.487   5.770  19.471  0.00  0.00    +0.000 C 
ATOM     24  C   UNL     1       7.419   5.284  18.071  0.00  0.00    +0.000 A 
ATOM     25  N   UNL     1       8.174   4.260  17.663  0.00  0.00    +0.000 NA
ATOM     26  O   UNL     1       7.850   4.059  16.332  0.00  0.00    +0.000 OA
ATOM     27  C   UNL     1       6.902   4.956  15.955  0.00  0.00    +0.000 A 
ATOM     28  C   UNL     1       6.423   4.870  14.563  0.00  0.00    +0.000 C 
ATOM     29  C   UNL     1       6.589   5.765  17.025  0.00  0.00    +0.000 A 
ENDBRANCH  22  29
ENDBRANCH  21  22
ENDBRANCH   1  21
TORSDOF 5
ENDMDL
MODEL 9
REMARK VINA RESULT:      -7.9      1.595      2.462
REMARK  Name = 
REMARK  7 active torsions:
REMARK  status: ('A' for Active; 'I' for Inactive)
REMARK    1  A    between atoms: C_1  and  C_2
REMARK    2  A    between atoms: C_5  and  C_6
REMARK    3  A    between atoms: C_7  and  C_8
REMARK    4  A    between atoms: C_8  and  O_9
REMARK    5  A    between atoms: O_9  and  C_10
REMARK    6  A    between atoms: C_14  and  C_15
REMARK    7  A    between atoms: N_17  and  C_18
REMARK                            x       y       z     vdW  Elec       q    Type
REMARK                         _______ _______ _______ _____ _____    ______ ____
ROOT
ATOM      1  C   UNL     1       3.044   6.321  18.344  0.00  0.00    +0.000 A 
ATOM      2  C   UNL     1       2.834   5.254  19.219  0.00  0.00    +0.000 A 
ATOM      3  C   UNL     1       2.104   5.443  20.390  0.00  0.00    +0.000 A 
ATOM      4  C   UNL     1       1.579   6.705  20.688  0.00  0.00    +0.000 A 
ATOM      5  C   UNL     1       1.805   7.787  19.825  0.00  0.00    +0.000 A 
ATOM      6  C   UNL     1       2.553   7.590  18.665  0.00  0.00    +0.000 A 
ENDROOT
BRANCH   5   7
ATOM      7  C   UNL     1       1.178   9.108  20.127  0.00  0.00    +0.000 C 
ATOM      8  O   UNL     1       1.166   9.521  21.280  0.00  0.00    +0.000 OA
ATOM      9  N   UNL     1       0.643   9.826  19.064  0.00  0.00    +0.000 N 
ATOM     10  H   UNL     1       0.930   9.610  18.121  0.00  0.00    +0.000 HD
BRANCH   9  11
ATOM     11  C   UNL     1       0.159  11.184  19.282  0.00  0.00    +0.000 C 
ATOM     12  C   UNL     1      -0.806  11.197  20.476  0.00  0.00    +0.000 C 
ATOM     13  C   UNL     1      -0.656  12.404  21.377  0.00  0.00    +0.000 C 
ATOM     14  O   UNL     1       0.703  12.689  21.696  0.00  0.00    +0.000 OA
ATOM     15  C   UNL     1       1.433  12.945  20.569  0.00  0.00    +0.000 A 
ATOM     16  C   UNL     1       2.349  13.994  20.643  0.00  0.00    +0.000 A 
ATOM     17  C   UNL     1       3.144  14.299  19.542  0.00  0.00    +0.000 A 
ATOM     18  C   UNL     1       3.060  13.515  18.392  0.00  0.00    +0.000 A 
ATOM     19  C   UNL     1       2.140  12.461  18.324  0.00  0.00    +0.000 A 
ATOM     20  C   UNL     1       1.285  12.186  19.405  0.00  0.00    +0.000 A 
ENDBRANCH   9  11
ENDBRANCH   5   7
BRANCH   1  21
ATOM     21  O   UNL     1       3.722   6.034  17.190  0.00  0.00    +0.000 OA
BRANCH  21  22
ATOM     22  C   UNL     1       4.213   4.688  17.100  0.00  0.00    +0.000 C 
BRANCH  22  29
ATOM     23  C   UNL     1       5.962   4.002  14.477  0.00  0.00    +0.000 C 
ATOM     24  C   UNL     1       6.456   4.369  15.827  0.00  0.00    +0.000 A 
ATOM     25  N   UNL     1       7.764   4.486  16.070  0.00  0.00    +0.000 NA
ATOM     26  O   UNL     1       7.870   4.853  17.400  0.00  0.00    +0.000 OA
ATOM     27  C   UNL     1       6.629   4.958  17.942  0.00  0.00    +0.000 A 
ATOM     28  C   UNL     1       6.555   5.364  19.358  0.00  0.00    +0.000 C 
ATOM     29  C   UNL     1       5.686   4.659  16.983  0.00  0.00    +0.000 A 
ENDBRANCH  22  29
ENDBRANCH  21  22
ENDBRANCH   1  21
TORSDOF 5
ENDMDL
