MODEL 1
REMARK VINA RESULT:      -8.6      0.000      0.000
REMARK  Name = 
REMARK  7 active torsions:
REMARK  status: ('A' for Active; 'I' for Inactive)
REMARK    1  A    between atoms: C_1  and  C_2
REMARK    2  A    between atoms: C_2  and  C_10
REMARK    3  A    between atoms: C_3  and  C_4
REMARK    4  A    between atoms: N_8  and  C_9
REMARK    5  A    between atoms: C_10  and  C_11
REMARK    6  A    between atoms: C_15  and  N_16
REMARK    7  A    between atoms: C_23  and  C_24
REMARK                            x       y       z     vdW  Elec       q    Type
REMARK                         _______ _______ _______ _____ _____    ______ ____
ROOT
ATOM      1  C   UNL     1       2.152   7.409  19.889  0.00  0.00    +0.000 A 
ATOM      2  C   UNL     1       2.499   8.111  18.731  0.00  0.00    +0.000 A 
ATOM      3  C   UNL     1       2.856   7.424  17.574  0.00  0.00    +0.000 A 
ATOM      4  C   UNL     1       2.978   6.038  17.606  0.00  0.00    +0.000 A 
ATOM      5  C   UNL     1       2.928   5.381  18.844  0.00  0.00    +0.000 A 
ATOM      6  C   UNL     1       2.315   6.019  19.926  0.00  0.00    +0.000 A 
ENDROOT
BRANCH   5   7
ATOM      7  N   UNL     1       3.971   4.409  19.164  0.00  0.00    +0.000 N 
ATOM      8  C   UNL     1       5.293   5.090  19.258  0.00  0.00    +0.000 C 
ATOM      9  C   UNL     1       5.823   4.954  17.863  0.00  0.00    +0.000 A 
ATOM     10  C   UNL     1       5.219   3.830  17.291  0.00  0.00    +0.000 A 
ATOM     11  C   UNL     1       5.336   3.508  15.951  0.00  0.00    +0.000 A 
ATOM     12  C   UNL     1       6.090   4.368  15.156  0.00  0.00    +0.000 A 
ATOM     13  C   UNL     1       6.706   5.506  15.714  0.00  0.00    +0.000 A 
ATOM     14  C   UNL     1       6.592   5.816  17.087  0.00  0.00    +0.000 A 
ATOM     15  C   UNL     1       4.145   3.377  18.207  0.00  0.00    +0.000 C 
ATOM     16  O   UNL     1       3.436   2.404  18.002  0.00  0.00    +0.000 OA
BRANCH  14  17
ATOM     17  C   UNL     1       7.211   7.086  17.612  0.00  0.00    +0.000 C 
ATOM     18  F   UNL     1       7.895   6.934  18.778  0.00  0.00    +0.000 F 
ATOM     19  F   UNL     1       8.102   7.622  16.733  0.00  0.00    +0.000 F 
ATOM     20  F   UNL     1       6.288   8.060  17.849  0.00  0.00    +0.000 F 
ENDBRANCH  14  17
ENDBRANCH   5   7
BRANCH   1  21
ATOM     21  C   UNL     1       1.672   8.150  21.113  0.00  0.00    +0.000 C 
BRANCH  21  23
ATOM     22  C   UNL     1      -0.719   8.526  21.754  0.00  0.00    +0.000 C 
ATOM     23  C   UNL     1       0.446   9.028  20.926  0.00  0.00    +0.000 C 
ATOM     24  C   UNL     1       0.417  10.097  20.108  0.00  0.00    +0.000 C 
BRANCH  24  25
ATOM     25  C   UNL     1      -0.724  10.929  19.937  0.00  0.00    +0.000 A 
ATOM     26  N   UNL     1      -1.265  11.835  20.727  0.00  0.00    +0.000 NA
ATOM     27  N   UNL     1      -2.376  12.359  20.114  0.00  0.00    +0.000 NA
ATOM     28  C   UNL     1      -2.485  11.773  18.944  0.00  0.00    +0.000 A 
ATOM     29  N   UNL     1      -1.472  10.874  18.784  0.00  0.00    +0.000 N 
ATOM     30  C   UNL     1      -1.313  10.007  17.648  0.00  0.00    +0.000 C 
ENDBRANCH  24  25
ENDBRANCH  21  23
ENDBRANCH   1  21
TORSDOF 5
ENDMDL
MODEL 2
REMARK VINA RESULT:      -8.6      3.386      4.648
REMARK  Name = 
REMARK  7 active torsions:
REMARK  status: ('A' for Active; 'I' for Inactive)
REMARK    1  A    between atoms: C_1  and  C_2
REMARK    2  A    between atoms: C_2  and  C_10
REMARK    3  A    between atoms: C_3  and  C_4
REMARK    4  A    between atoms: N_8  and  C_9
REMARK    5  A    between atoms: C_10  and  C_11
REMARK    6  A    between atoms: C_15  and  N_16
REMARK    7  A    between atoms: C_23  and  C_24
REMARK                            x       y       z     vdW  Elec       q    Type
REMARK                         _______ _______ _______ _____ _____    ______ ____
ROOT
ATOM      1  C   UNL     1       0.865   9.527  20.140  0.00  0.00    +0.000 A 
ATOM      2  C   UNL     1       0.352   8.660  21.108  0.00  0.00    +0.000 A 
ATOM      3  C   UNL     1       0.922   7.404  21.298  0.00  0.00    +0.000 A 
ATOM      4  C   UNL     1       1.930   6.968  20.444  0.00  0.00    +0.000 A 
ATOM      5  C   UNL     1       2.217   7.720  19.295  0.00  0.00    +0.000 A 
ATOM      6  C   UNL     1       1.852   9.069  19.258  0.00  0.00    +0.000 A 
ENDROOT
BRANCH   5   7
ATOM      7  N   UNL     1       2.301   7.030  18.010  0.00  0.00    +0.000 N 
ATOM      8  C   UNL     1       1.541   5.750  18.066  0.00  0.00    +0.000 C 
ATOM      9  C   UNL     1       2.596   4.768  18.476  0.00  0.00    +0.000 A 
ATOM     10  C   UNL     1       3.830   5.281  18.065  0.00  0.00    +0.000 A 
ATOM     11  C   UNL     1       5.041   4.726  18.438  0.00  0.00    +0.000 A 
ATOM     12  C   UNL     1       4.997   3.610  19.270  0.00  0.00    +0.000 A 
ATOM     13  C   UNL     1       3.763   3.080  19.695  0.00  0.00    +0.000 A 
ATOM     14  C   UNL     1       2.533   3.646  19.296  0.00  0.00    +0.000 A 
ATOM     15  C   UNL     1       3.613   6.673  17.604  0.00  0.00    +0.000 C 
ATOM     16  O   UNL     1       4.494   7.394  17.166  0.00  0.00    +0.000 OA
BRANCH  14  17
ATOM     17  C   UNL     1       1.247   3.080  19.843  0.00  0.00    +0.000 C 
ATOM     18  F   UNL     1       1.417   2.054  20.720  0.00  0.00    +0.000 F 
ATOM     19  F   UNL     1       0.520   4.016  20.513  0.00  0.00    +0.000 F 
ATOM     20  F   UNL     1       0.429   2.600  18.866  0.00  0.00    +0.000 F 
ENDBRANCH  14  17
ENDBRANCH   5   7
BRANCH   1  21
ATOM     21  C   UNL     1       0.311  10.924  19.998  0.00  0.00    +0.000 C 
BRANCH  21  23
ATOM     22  C   UNL     1      -0.415  12.521  18.212  0.00  0.00    +0.000 C 
ATOM     23  C   UNL     1      -0.631  11.155  18.829  0.00  0.00    +0.000 C 
ATOM     24  C   UNL     1      -1.546  10.254  18.425  0.00  0.00    +0.000 C 
BRANCH  24  25
ATOM     25  C   UNL     1      -2.424  10.459  17.324  0.00  0.00    +0.000 A 
ATOM     26  N   UNL     1      -2.320  10.118  16.055  0.00  0.00    +0.000 NA
ATOM     27  N   UNL     1      -3.430  10.560  15.379  0.00  0.00    +0.000 NA
ATOM     28  C   UNL     1      -4.207  11.151  16.257  0.00  0.00    +0.000 A 
ATOM     29  N   UNL     1      -3.624  11.110  17.489  0.00  0.00    +0.000 N 
ATOM     30  C   UNL     1      -4.165  11.715  18.676  0.00  0.00    +0.000 C 
ENDBRANCH  24  25
ENDBRANCH  21  23
ENDBRANCH   1  21
TORSDOF 5
ENDMDL
MODEL 3
REMARK VINA RESULT:      -8.5      0.571      1.101
REMARK  Name = 
REMARK  7 active torsions:
REMARK  status: ('A' for Active; 'I' for Inactive)
REMARK    1  A    between atoms: C_1  and  C_2
REMARK    2  A    between atoms: C_2  and  C_10
REMARK    3  A    between atoms: C_3  and  C_4
REMARK    4  A    between atoms: N_8  and  C_9
REMARK    5  A    between atoms: C_10  and  C_11
REMARK    6  A    between atoms: C_15  and  N_16
REMARK    7  A    between atoms: C_23  and  C_24
REMARK                            x       y       z     vdW  Elec       q    Type
REMARK                         _______ _______ _______ _____ _____    ______ ____
ROOT
ATOM      1  C   UNL     1       2.188   7.426  19.838  0.00  0.00    +0.000 A 
ATOM      2  C   UNL     1       2.539   8.113  18.672  0.00  0.00    +0.000 A 
ATOM      3  C   UNL     1       2.909   7.410  17.529  0.00  0.00    +0.000 A 
ATOM      4  C   UNL     1       3.042   6.026  17.583  0.00  0.00    +0.000 A 
ATOM      5  C   UNL     1       2.987   5.388  18.831  0.00  0.00    +0.000 A 
ATOM      6  C   UNL     1       2.361   6.038  19.899  0.00  0.00    +0.000 A 
ENDROOT
BRANCH   5   7
ATOM      7  N   UNL     1       4.036   4.430  19.174  0.00  0.00    +0.000 N 
ATOM      8  C   UNL     1       5.350   5.123  19.272  0.00  0.00    +0.000 C 
ATOM      9  C   UNL     1       5.896   4.974  17.885  0.00  0.00    +0.000 A 
ATOM     10  C   UNL     1       5.308   3.838  17.321  0.00  0.00    +0.000 A 
ATOM     11  C   UNL     1       5.441   3.501  15.987  0.00  0.00    +0.000 A 
ATOM     12  C   UNL     1       6.196   4.358  15.189  0.00  0.00    +0.000 A 
ATOM     13  C   UNL     1       6.796   5.507  15.739  0.00  0.00    +0.000 A 
ATOM     14  C   UNL     1       6.665   5.834  17.107  0.00  0.00    +0.000 A 
ATOM     15  C   UNL     1       4.228   3.387  18.231  0.00  0.00    +0.000 C 
ATOM     16  O   UNL     1       3.530   2.406  18.032  0.00  0.00    +0.000 OA
BRANCH  14  17
ATOM     17  C   UNL     1       7.268   7.116  17.621  0.00  0.00    +0.000 C 
ATOM     18  F   UNL     1       7.982   6.975  18.771  0.00  0.00    +0.000 F 
ATOM     19  F   UNL     1       8.126   7.674  16.724  0.00  0.00    +0.000 F 
ATOM     20  F   UNL     1       6.330   8.068  17.883  0.00  0.00    +0.000 F 
ENDBRANCH  14  17
ENDBRANCH   5   7
BRANCH   1  21
ATOM     21  C   UNL     1       1.694   8.182  21.047  0.00  0.00    +0.000 C 
BRANCH  21  23
ATOM     22  C   UNL     1      -0.685   8.605  21.706  0.00  0.00    +0.000 C 
ATOM     23  C   UNL     1       0.469   9.056  20.835  0.00  0.00    +0.000 C 
ATOM     24  C   UNL     1       0.432  10.082  19.964  0.00  0.00    +0.000 C 
BRANCH  24  25
ATOM     25  C   UNL     1      -0.707  10.911  19.768  0.00  0.00    +0.000 A 
ATOM     26  N   UNL     1      -1.721  10.811  18.932  0.00  0.00    +0.000 NA
ATOM     27  N   UNL     1      -2.564  11.878  19.119  0.00  0.00    +0.000 NA
ATOM     28  C   UNL     1      -2.057  12.607  20.086  0.00  0.00    +0.000 A 
ATOM     29  N   UNL     1      -0.898  12.041  20.529  0.00  0.00    +0.000 N 
ATOM     30  C   UNL     1      -0.041  12.602  21.539  0.00  0.00    +0.000 C 
ENDBRANCH  24  25
ENDBRANCH  21  23
ENDBRANCH   1  21
TORSDOF 5
ENDMDL
MODEL 4
REMARK VINA RESULT:      -8.5      3.274      4.483
REMARK  Name = 
REMARK  7 active torsions:
REMARK  status: ('A' for Active; 'I' for Inactive)
REMARK    1  A    between atoms: C_1  and  C_2
REMARK    2  A    between atoms: C_2  and  C_10
REMARK    3  A    between atoms: C_3  and  C_4
REMARK    4  A    between atoms: N_8  and  C_9
REMARK    5  A    between atoms: C_10  and  C_11
REMARK    6  A    between atoms: C_15  and  N_16
REMARK    7  A    between atoms: C_23  and  C_24
REMARK                            x       y       z     vdW  Elec       q    Type
REMARK                         _______ _______ _______ _____ _____    ______ ____
ROOT
ATOM      1  C   UNL     1       1.448   9.237  19.007  0.00  0.00    +0.000 A 
ATOM      2  C   UNL     1       1.006   8.677  20.210  0.00  0.00    +0.000 A 
ATOM      3  C   UNL     1       1.586   7.508  20.694  0.00  0.00    +0.000 A 
ATOM      4  C   UNL     1       2.527   6.834  19.921  0.00  0.00    +0.000 A 
ATOM      5  C   UNL     1       2.729   7.239  18.594  0.00  0.00    +0.000 A 
ATOM      6  C   UNL     1       2.365   8.535  18.216  0.00  0.00    +0.000 A 
ENDROOT
BRANCH   5   7
ATOM      7  N   UNL     1       2.718   6.224  17.543  0.00  0.00    +0.000 N 
ATOM      8  C   UNL     1       1.747   5.147  17.883  0.00  0.00    +0.000 C 
ATOM      9  C   UNL     1       2.608   4.155  18.603  0.00  0.00    +0.000 A 
ATOM     10  C   UNL     1       3.920   4.331  18.152  0.00  0.00    +0.000 A 
ATOM     11  C   UNL     1       5.009   3.709  18.734  0.00  0.00    +0.000 A 
ATOM     12  C   UNL     1       4.758   2.881  19.825  0.00  0.00    +0.000 A 
ATOM     13  C   UNL     1       3.443   2.691  20.294  0.00  0.00    +0.000 A 
ATOM     14  C   UNL     1       2.336   3.320  19.683  0.00  0.00    +0.000 A 
ATOM     15  C   UNL     1       3.955   5.564  17.330  0.00  0.00    +0.000 C 
ATOM     16  O   UNL     1       4.956   5.988  16.775  0.00  0.00    +0.000 OA
BRANCH  14  17
ATOM     17  C   UNL     1       0.962   3.138  20.275  0.00  0.00    +0.000 C 
ATOM     18  F   UNL     1       0.947   2.447  21.448  0.00  0.00    +0.000 F 
ATOM     19  F   UNL     1       0.359   4.328  20.544  0.00  0.00    +0.000 F 
ATOM     20  F   UNL     1       0.117   2.471  19.442  0.00  0.00    +0.000 F 
ENDBRANCH  14  17
ENDBRANCH   5   7
BRANCH   1  21
ATOM     21  C   UNL     1       0.887  10.554  18.531  0.00  0.00    +0.000 C 
BRANCH  21  23
ATOM     22  C   UNL     1      -1.613  10.437  18.594  0.00  0.00    +0.000 C 
ATOM     23  C   UNL     1      -0.375  11.036  19.227  0.00  0.00    +0.000 C 
ATOM     24  C   UNL     1      -0.368  11.900  20.259  0.00  0.00    +0.000 C 
BRANCH  24  25
ATOM     25  C   UNL     1      -1.545  12.346  20.923  0.00  0.00    +0.000 A 
ATOM     26  N   UNL     1      -2.479  13.201  20.556  0.00  0.00    +0.000 NA
ATOM     27  N   UNL     1      -3.409  13.309  21.560  0.00  0.00    +0.000 NA
ATOM     28  C   UNL     1      -3.034  12.498  22.523  0.00  0.00    +0.000 A 
ATOM     29  N   UNL     1      -1.877  11.870  22.170  0.00  0.00    +0.000 N 
ATOM     30  C   UNL     1      -1.147  10.957  23.009  0.00  0.00    +0.000 C 
ENDBRANCH  24  25
ENDBRANCH  21  23
ENDBRANCH   1  21
TORSDOF 5
ENDMDL
MODEL 5
REMARK VINA RESULT:      -8.5      3.767      8.667
REMARK  Name = 
REMARK  7 active torsions:
REMARK  status: ('A' for Active; 'I' for Inactive)
REMARK    1  A    between atoms: C_1  and  C_2
REMARK    2  A    between atoms: C_2  and  C_10
REMARK    3  A    between atoms: C_3  and  C_4
REMARK    4  A    between atoms: N_8  and  C_9
REMARK    5  A    between atoms: C_10  and  C_11
REMARK    6  A    between atoms: C_15  and  N_16
REMARK    7  A    between atoms: C_23  and  C_24
REMARK                            x       y       z     vdW  Elec       q    Type
REMARK                         _______ _______ _______ _____ _____    ______ ____
ROOT
ATOM      1  C   UNL     1       2.244   6.870  19.397  0.00  0.00    +0.000 A 
ATOM      2  C   UNL     1       2.222   7.396  18.102  0.00  0.00    +0.000 A 
ATOM      3  C   UNL     1       1.921   8.739  17.894  0.00  0.00    +0.000 A 
ATOM      4  C   UNL     1       1.528   9.531  18.969  0.00  0.00    +0.000 A 
ATOM      5  C   UNL     1       1.258   8.916  20.201  0.00  0.00    +0.000 A 
ATOM      6  C   UNL     1       1.810   7.660  20.468  0.00  0.00    +0.000 A 
ENDROOT
BRANCH   5   7
ATOM      7  N   UNL     1       0.009   9.241  20.886  0.00  0.00    +0.000 N 
ATOM      8  C   UNL     1      -1.131   9.179  19.929  0.00  0.00    +0.000 C 
ATOM      9  C   UNL     1      -1.220  10.595  19.445  0.00  0.00    +0.000 A 
ATOM     10  C   UNL     1      -0.683  11.415  20.443  0.00  0.00    +0.000 A 
ATOM     11  C   UNL     1      -0.437  12.763  20.261  0.00  0.00    +0.000 A 
ATOM     12  C   UNL     1      -0.740  13.300  19.012  0.00  0.00    +0.000 A 
ATOM     13  C   UNL     1      -1.281  12.490  17.995  0.00  0.00    +0.000 A 
ATOM     14  C   UNL     1      -1.542  11.116  18.196  0.00  0.00    +0.000 A 
ATOM     15  C   UNL     1      -0.045  10.539  21.455  0.00  0.00    +0.000 C 
ATOM     16  O   UNL     1       0.503  10.949  22.465  0.00  0.00    +0.000 OA
BRANCH  14  17
ATOM     17  C   UNL     1      -2.051  10.285  17.047  0.00  0.00    +0.000 C 
ATOM     18  F   UNL     1      -2.330  10.998  15.922  0.00  0.00    +0.000 F 
ATOM     19  F   UNL     1      -1.154   9.335  16.665  0.00  0.00    +0.000 F 
ATOM     20  F   UNL     1      -3.197   9.614  17.353  0.00  0.00    +0.000 F 
ENDBRANCH  14  17
ENDBRANCH   5   7
BRANCH   1  21
ATOM     21  C   UNL     1       2.665   5.440  19.630  0.00  0.00    +0.000 C 
BRANCH  21  23
ATOM     22  C   UNL     1       3.506   3.633  18.114  0.00  0.00    +0.000 C 
ATOM     23  C   UNL     1       3.836   4.943  18.800  0.00  0.00    +0.000 C 
ATOM     24  C   UNL     1       5.013   5.590  18.717  0.00  0.00    +0.000 C 
BRANCH  24  25
ATOM     25  C   UNL     1       6.110   5.136  17.933  0.00  0.00    +0.000 A 
ATOM     26  N   UNL     1       7.198   4.469  18.264  0.00  0.00    +0.000 NA
ATOM     27  N   UNL     1       7.969   4.283  17.143  0.00  0.00    +0.000 NA
ATOM     28  C   UNL     1       7.326   4.827  16.136  0.00  0.00    +0.000 A 
ATOM     29  N   UNL     1       6.155   5.370  16.578  0.00  0.00    +0.000 N 
ATOM     30  C   UNL     1       5.227   6.102  15.759  0.00  0.00    +0.000 C 
ENDBRANCH  24  25
ENDBRANCH  21  23
ENDBRANCH   1  21
TORSDOF 5
ENDMDL
MODEL 6
REMARK VINA RESULT:      -8.5      3.323      4.489
REMARK  Name = 
REMARK  7 active torsions:
REMARK  status: ('A' for Active; 'I' for Inactive)
REMARK    1  A    between atoms: C_1  and  C_2
REMARK    2  A    between atoms: C_2  and  C_10
REMARK    3  A    between atoms: C_3  and  C_4
REMARK    4  A    between atoms: N_8  and  C_9
REMARK    5  A    between atoms: C_10  and  C_11
REMARK    6  A    between atoms: C_15  and  N_16
REMARK    7  A    between atoms: C_23  and  C_24
REMARK                            x       y       z     vdW  Elec       q    Type
REMARK                         _______ _______ _______ _____ _____    ______ ____
ROOT
ATOM      1  C   UNL     1       1.343   9.616  19.251  0.00  0.00    +0.000 A 
ATOM      2  C   UNL     1       0.727   9.011  20.351  0.00  0.00    +0.000 A 
ATOM      3  C   UNL     1       1.151   7.761  20.792  0.00  0.00    +0.000 A 
ATOM      4  C   UNL     1       2.111   7.062  20.066  0.00  0.00    +0.000 A 
ATOM      5  C   UNL     1       2.490   7.545  18.805  0.00  0.00    +0.000 A 
ATOM      6  C   UNL     1       2.279   8.893  18.501  0.00  0.00    +0.000 A 
ENDROOT
BRANCH   5   7
ATOM      7  N   UNL     1       2.508   6.616  17.677  0.00  0.00    +0.000 N 
ATOM      8  C   UNL     1       1.622   5.452  17.959  0.00  0.00    +0.000 C 
ATOM      9  C   UNL     1       2.572   4.468  18.571  0.00  0.00    +0.000 A 
ATOM     10  C   UNL     1       3.852   4.768  18.097  0.00  0.00    +0.000 A 
ATOM     11  C   UNL     1       5.000   4.178  18.594  0.00  0.00    +0.000 A 
ATOM     12  C   UNL     1       4.843   3.252  19.623  0.00  0.00    +0.000 A 
ATOM     13  C   UNL     1       3.561   2.938  20.115  0.00  0.00    +0.000 A 
ATOM     14  C   UNL     1       2.394   3.535  19.589  0.00  0.00    +0.000 A 
ATOM     15  C   UNL     1       3.777   6.060  17.375  0.00  0.00    +0.000 C 
ATOM     16  O   UNL     1       4.728   6.593  16.825  0.00  0.00    +0.000 OA
BRANCH  14  17
ATOM     17  C   UNL     1       1.057   3.214  20.206  0.00  0.00    +0.000 C 
ATOM     18  F   UNL     1       1.127   2.416  21.306  0.00  0.00    +0.000 F 
ATOM     19  F   UNL     1       0.397   4.335  20.609  0.00  0.00    +0.000 F 
ATOM     20  F   UNL     1       0.220   2.579  19.340  0.00  0.00    +0.000 F 
ENDBRANCH  14  17
ENDBRANCH   5   7
BRANCH   1  21
ATOM     21  C   UNL     1       0.950  11.011  18.831  0.00  0.00    +0.000 C 
BRANCH  21  23
ATOM     22  C   UNL     1      -0.997  12.039  20.023  0.00  0.00    +0.000 C 
ATOM     23  C   UNL     1      -0.541  11.301  18.782  0.00  0.00    +0.000 C 
ATOM     24  C   UNL     1      -1.337  10.921  17.766  0.00  0.00    +0.000 C 
BRANCH  24  25
ATOM     25  C   UNL     1      -2.731  11.198  17.708  0.00  0.00    +0.000 A 
ATOM     26  N   UNL     1      -3.576  11.597  18.638  0.00  0.00    +0.000 NA
ATOM     27  N   UNL     1      -4.829  11.709  18.087  0.00  0.00    +0.000 NA
ATOM     28  C   UNL     1      -4.723  11.391  16.817  0.00  0.00    +0.000 A 
ATOM     29  N   UNL     1      -3.430  11.069  16.530  0.00  0.00    +0.000 N 
ATOM     30  C   UNL     1      -2.959  10.613  15.250  0.00  0.00    +0.000 C 
ENDBRANCH  24  25
ENDBRANCH  21  23
ENDBRANCH   1  21
TORSDOF 5
ENDMDL
MODEL 7
REMARK VINA RESULT:      -8.4      4.610      9.484
REMARK  Name = 
REMARK  7 active torsions:
REMARK  status: ('A' for Active; 'I' for Inactive)
REMARK    1  A    between atoms: C_1  and  C_2
REMARK    2  A    between atoms: C_2  and  C_10
REMARK    3  A    between atoms: C_3  and  C_4
REMARK    4  A    between atoms: N_8  and  C_9
REMARK    5  A    between atoms: C_10  and  C_11
REMARK    6  A    between atoms: C_15  and  N_16
REMARK    7  A    between atoms: C_23  and  C_24
REMARK                            x       y       z     vdW  Elec       q    Type
REMARK                         _______ _______ _______ _____ _____    ______ ____
ROOT
ATOM      1  C   UNL     1       1.573   8.628  19.062  0.00  0.00    +0.000 A 
ATOM      2  C   UNL     1       1.589   8.256  20.410  0.00  0.00    +0.000 A 
ATOM      3  C   UNL     1       0.646   8.775  21.292  0.00  0.00    +0.000 A 
ATOM      4  C   UNL     1      -0.242   9.753  20.855  0.00  0.00    +0.000 A 
ATOM      5  C   UNL     1      -0.043  10.333  19.593  0.00  0.00    +0.000 A 
ATOM      6  C   UNL     1       0.705   9.640  18.637  0.00  0.00    +0.000 A 
ENDROOT
BRANCH   5   7
ATOM      7  N   UNL     1      -0.056  11.790  19.483  0.00  0.00    +0.000 N 
ATOM      8  C   UNL     1      -0.263  12.403  20.825  0.00  0.00    +0.000 C 
ATOM      9  C   UNL     1      -1.752  12.559  20.880  0.00  0.00    +0.000 A 
ATOM     10  C   UNL     1      -2.215  12.647  19.563  0.00  0.00    +0.000 A 
ATOM     11  C   UNL     1      -3.556  12.615  19.229  0.00  0.00    +0.000 A 
ATOM     12  C   UNL     1      -4.466  12.478  20.275  0.00  0.00    +0.000 A 
ATOM     13  C   UNL     1      -4.020  12.387  21.608  0.00  0.00    +0.000 A 
ATOM     14  C   UNL     1      -2.648  12.435  21.938  0.00  0.00    +0.000 A 
ATOM     15  C   UNL     1      -1.083  12.323  18.662  0.00  0.00    +0.000 C 
ATOM     16  O   UNL     1      -1.155  12.327  17.444  0.00  0.00    +0.000 OA
BRANCH  14  17
ATOM     17  C   UNL     1      -2.227  12.258  23.374  0.00  0.00    +0.000 C 
ATOM     18  F   UNL     1      -1.419  13.247  23.846  0.00  0.00    +0.000 F 
ATOM     19  F   UNL     1      -3.293  12.224  24.219  0.00  0.00    +0.000 F 
ATOM     20  F   UNL     1      -1.548  11.096  23.582  0.00  0.00    +0.000 F 
ENDBRANCH  14  17
ENDBRANCH   5   7
BRANCH   1  21
ATOM     21  C   UNL     1       2.534   7.993  18.086  0.00  0.00    +0.000 C 
BRANCH  21  23
ATOM     22  C   UNL     1       4.070   6.102  18.663  0.00  0.00    +0.000 C 
ATOM     23  C   UNL     1       2.686   6.484  18.183  0.00  0.00    +0.000 C 
ATOM     24  C   UNL     1       1.707   5.618  17.858  0.00  0.00    +0.000 C 
BRANCH  24  25
ATOM     25  C   UNL     1       1.839   4.205  17.957  0.00  0.00    +0.000 A 
ATOM     26  N   UNL     1       2.252   3.308  17.083  0.00  0.00    +0.000 NA
ATOM     27  N   UNL     1       2.179   2.061  17.653  0.00  0.00    +0.000 NA
ATOM     28  C   UNL     1       1.737   2.220  18.879  0.00  0.00    +0.000 A 
ATOM     29  N   UNL     1       1.514   3.544  19.119  0.00  0.00    +0.000 N 
ATOM     30  C   UNL     1       0.970   4.080  20.337  0.00  0.00    +0.000 C 
ENDBRANCH  24  25
ENDBRANCH  21  23
ENDBRANCH   1  21
TORSDOF 5
ENDMDL
MODEL 8
REMARK VINA RESULT:      -8.4      3.268      4.534
REMARK  Name = 
REMARK  7 active torsions:
REMARK  status: ('A' for Active; 'I' for Inactive)
REMARK    1  A    between atoms: C_1  and  C_2
REMARK    2  A    between atoms: C_2  and  C_10
REMARK    3  A    between atoms: C_3  and  C_4
REMARK    4  A    between atoms: N_8  and  C_9
REMARK    5  A    between atoms: C_10  and  C_11
REMARK    6  A    between atoms: C_15  and  N_16
REMARK    7  A    between atoms: C_23  and  C_24
REMARK                            x       y       z     vdW  Elec       q    Type
REMARK                         _______ _______ _______ _____ _____    ______ ____
ROOT
ATOM      1  C   UNL     1       1.361   9.413  19.096  0.00  0.00    +0.000 A 
ATOM      2  C   UNL     1       0.863   8.831  20.266  0.00  0.00    +0.000 A 
ATOM      3  C   UNL     1       1.395   7.634  20.735  0.00  0.00    +0.000 A 
ATOM      4  C   UNL     1       2.345   6.957  19.976  0.00  0.00    +0.000 A 
ATOM      5  C   UNL     1       2.604   7.394  18.668  0.00  0.00    +0.000 A 
ATOM      6  C   UNL     1       2.287   8.709  18.317  0.00  0.00    +0.000 A 
ENDROOT
BRANCH   5   7
ATOM      7  N   UNL     1       2.603   6.410  17.588  0.00  0.00    +0.000 N 
ATOM      8  C   UNL     1       1.674   5.292  17.916  0.00  0.00    +0.000 C 
ATOM      9  C   UNL     1       2.582   4.309  18.589  0.00  0.00    +0.000 A 
ATOM     10  C   UNL     1       3.878   4.541  18.117  0.00  0.00    +0.000 A 
ATOM     11  C   UNL     1       4.999   3.939  18.658  0.00  0.00    +0.000 A 
ATOM     12  C   UNL     1       4.798   3.071  19.729  0.00  0.00    +0.000 A 
ATOM     13  C   UNL     1       3.500   2.825  20.219  0.00  0.00    +0.000 A 
ATOM     14  C   UNL     1       2.361   3.435  19.649  0.00  0.00    +0.000 A 
ATOM     15  C   UNL     1       3.856   5.798  17.331  0.00  0.00    +0.000 C 
ATOM     16  O   UNL     1       4.831   6.270  16.769  0.00  0.00    +0.000 OA
BRANCH  14  17
ATOM     17  C   UNL     1       1.006   3.190  20.263  0.00  0.00    +0.000 C 
ATOM     18  F   UNL     1       1.036   2.451  21.405  0.00  0.00    +0.000 F 
ATOM     19  F   UNL     1       0.379   4.352  20.596  0.00  0.00    +0.000 F 
ATOM     20  F   UNL     1       0.160   2.536  19.421  0.00  0.00    +0.000 F 
ENDBRANCH  14  17
ENDBRANCH   5   7
BRANCH   1  21
ATOM     21  C   UNL     1       0.852  10.759  18.639  0.00  0.00    +0.000 C 
BRANCH  21  23
ATOM     22  C   UNL     1      -1.225   9.892  17.542  0.00  0.00    +0.000 C 
ATOM     23  C   UNL     1      -0.656  10.898  18.520  0.00  0.00    +0.000 C 
ATOM     24  C   UNL     1      -1.371  11.820  19.193  0.00  0.00    +0.000 C 
BRANCH  24  25
ATOM     25  C   UNL     1      -2.784  11.949  19.095  0.00  0.00    +0.000 A 
ATOM     26  N   UNL     1      -3.620  11.637  18.124  0.00  0.00    +0.000 NA
ATOM     27  N   UNL     1      -4.896  11.973  18.506  0.00  0.00    +0.000 NA
ATOM     28  C   UNL     1      -4.819  12.470  19.718  0.00  0.00    +0.000 A 
ATOM     29  N   UNL     1      -3.520  12.472  20.133  0.00  0.00    +0.000 N 
ATOM     30  C   UNL     1      -3.057  13.003  21.387  0.00  0.00    +0.000 C 
ENDBRANCH  24  25
ENDBRANCH  21  23
ENDBRANCH   1  21
TORSDOF 5
ENDMDL
MODEL 9
REMARK VINA RESULT:      -8.3      0.913      1.286
REMARK  Name = 
REMARK  7 active torsions:
REMARK  status: ('A' for Active; 'I' for Inactive)
REMARK    1  A    between atoms: C_1  and  C_2
REMARK    2  A    between atoms: C_2  and  C_10
REMARK    3  A    between atoms: C_3  and  C_4
REMARK    4  A    between atoms: N_8  and  C_9
REMARK    5  A    between atoms: C_10  and  C_11
REMARK    6  A    between atoms: C_15  and  N_16
REMARK    7  A    between atoms: C_23  and  C_24
REMARK                            x       y       z     vdW  Elec       q    Type
REMARK                         _______ _______ _______ _____ _____    ______ ____
ROOT
ATOM      1  C   UNL     1       2.089   7.413  19.787  0.00  0.00    +0.000 A 
ATOM      2  C   UNL     1       2.552   8.201  18.729  0.00  0.00    +0.000 A 
ATOM      3  C   UNL     1       3.082   7.604  17.589  0.00  0.00    +0.000 A 
ATOM      4  C   UNL     1       3.258   6.224  17.552  0.00  0.00    +0.000 A 
ATOM      5  C   UNL     1       3.078   5.486  18.731  0.00  0.00    +0.000 A 
ATOM      6  C   UNL     1       2.304   6.029  19.761  0.00  0.00    +0.000 A 
ENDROOT
BRANCH   5   7
ATOM      7  N   UNL     1       4.112   4.531  19.124  0.00  0.00    +0.000 N 
ATOM      8  C   UNL     1       5.425   5.222  19.248  0.00  0.00    +0.000 C 
ATOM      9  C   UNL     1       6.012   5.044  17.881  0.00  0.00    +0.000 A 
ATOM     10  C   UNL     1       5.436   3.898  17.322  0.00  0.00    +0.000 A 
ATOM     11  C   UNL     1       5.609   3.534  16.000  0.00  0.00    +0.000 A 
ATOM     12  C   UNL     1       6.391   4.372  15.208  0.00  0.00    +0.000 A 
ATOM     13  C   UNL     1       6.978   5.531  15.753  0.00  0.00    +0.000 A 
ATOM     14  C   UNL     1       6.807   5.885  17.109  0.00  0.00    +0.000 A 
ATOM     15  C   UNL     1       4.328   3.469  18.209  0.00  0.00    +0.000 C 
ATOM     16  O   UNL     1       3.633   2.486  18.008  0.00  0.00    +0.000 OA
BRANCH  14  17
ATOM     17  C   UNL     1       7.399   7.175  17.616  0.00  0.00    +0.000 C 
ATOM     18  F   UNL     1       6.479   8.137  17.903  0.00  0.00    +0.000 F 
ATOM     19  F   UNL     1       8.110   6.996  18.762  0.00  0.00    +0.000 F 
ATOM     20  F   UNL     1       8.260   7.742  16.726  0.00  0.00    +0.000 F 
ENDBRANCH  14  17
ENDBRANCH   5   7
BRANCH   1  21
ATOM     21  C   UNL     1       1.426   8.055  20.981  0.00  0.00    +0.000 C 
BRANCH  21  23
ATOM     22  C   UNL     1       0.454  10.126  21.998  0.00  0.00    +0.000 C 
ATOM     23  C   UNL     1       0.684   9.354  20.716  0.00  0.00    +0.000 C 
ATOM     24  C   UNL     1       0.276   9.738  19.492  0.00  0.00    +0.000 C 
BRANCH  24  25
ATOM     25  C   UNL     1      -0.410  10.958  19.235  0.00  0.00    +0.000 A 
ATOM     26  N   UNL     1      -1.693  11.256  19.262  0.00  0.00    +0.000 NA
ATOM     27  N   UNL     1      -1.856  12.575  18.919  0.00  0.00    +0.000 NA
ATOM     28  C   UNL     1      -0.658  13.069  18.705  0.00  0.00    +0.000 A 
ATOM     29  N   UNL     1       0.281  12.098  18.894  0.00  0.00    +0.000 N 
ATOM     30  C   UNL     1       1.694  12.267  18.686  0.00  0.00    +0.000 C 
ENDBRANCH  24  25
ENDBRANCH  21  23
ENDBRANCH   1  21
TORSDOF 5
ENDMDL
