MODEL 1
REMARK VINA RESULT:      -8.7      0.000      0.000
REMARK  Name = 
REMARK  5 active torsions:
REMARK  status: ('A' for Active; 'I' for Inactive)
REMARK    1  A    between atoms: C_1  and  C_2
REMARK    2  A    between atoms: C_7  and  C_8
REMARK    3  A    between atoms: C_8  and  C_9
REMARK    4  A    between atoms: C_15  and  C_16
REMARK    5  A    between atoms: C_16  and  C_17
REMARK                            x       y       z     vdW  Elec       q    Type
REMARK                         _______ _______ _______ _____ _____    ______ ____
ROOT
ATOM      1  C   UNL     1       2.917   6.984  18.880  0.00  0.00    +0.000 C 
ATOM      2  O   UNL     1       3.152   7.620  17.866  0.00  0.00    +0.000 OA
ATOM      3  N   UNL     1       2.190   7.368  19.975  0.00  0.00    +0.000 N 
ATOM      4  C   UNL     1       1.519   8.549  20.078  0.00  0.00    +0.000 A 
ATOM      5  N   UNL     1       0.992   8.958  21.237  0.00  0.00    +0.000 NA
ATOM      6  N   UNL     1       0.441  10.134  20.886  0.00  0.00    +0.000 N 
ATOM      7  C   UNL     1       0.567  10.344  19.545  0.00  0.00    +0.000 A 
ATOM      8  N   UNL     1       1.281   9.371  19.029  0.00  0.00    +0.000 NA
ATOM      9  H   UNL     1       2.175   6.804  20.812  0.00  0.00    +0.000 HD
ATOM     10  H   UNL     1      -0.013  10.707  21.589  0.00  0.00    +0.000 HD
ENDROOT
BRANCH   1  11
ATOM     11  C   UNL     1       3.507   5.603  19.048  0.00  0.00    +0.000 C 
ATOM     12  C   UNL     1       4.477   5.017  18.019  0.00  0.00    +0.000 C 
ATOM     13  C   UNL     1       5.028   5.598  19.273  0.00  0.00    +0.000 C 
BRANCH  11  20
ATOM     14  C   UNL     1       1.308   4.118  17.535  0.00  0.00    +0.000 C 
ATOM     15  C   UNL     1       1.646   3.798  18.970  0.00  0.00    +0.000 A 
ATOM     16  C   UNL     1       0.980   2.724  19.583  0.00  0.00    +0.000 A 
ATOM     17  C   UNL     1       1.198   2.422  20.923  0.00  0.00    +0.000 A 
ATOM     18  C   UNL     1       2.054   3.214  21.679  0.00  0.00    +0.000 A 
ATOM     19  C   UNL     1       2.742   4.266  21.076  0.00  0.00    +0.000 A 
ATOM     20  C   UNL     1       2.603   4.551  19.703  0.00  0.00    +0.000 A 
ENDBRANCH  11  20
ENDBRANCH   1  11
BRANCH   7  21
ATOM     21  C   UNL     1      -0.063  11.468  18.812  0.00  0.00    +0.000 C 
BRANCH  21  22
ATOM     22  C   UNL     1      -1.464  11.177  18.334  0.00  0.00    +0.000 A 
ATOM     23  C   UNL     1      -2.572  11.829  18.906  0.00  0.00    +0.000 A 
ATOM     24  C   UNL     1      -3.863  11.593  18.427  0.00  0.00    +0.000 A 
ATOM     25  C   UNL     1      -4.061  10.706  17.371  0.00  0.00    +0.000 A 
ATOM     26  C   UNL     1      -2.968  10.063  16.804  0.00  0.00    +0.000 A 
ATOM     27  F   UNL     1      -3.154   9.216  15.784  0.00  0.00    +0.000 F 
ATOM     28  C   UNL     1      -1.677  10.289  17.272  0.00  0.00    +0.000 A 
ENDBRANCH  21  22
ENDBRANCH   7  21
TORSDOF 4
ENDMDL
MODEL 2
REMARK VINA RESULT:      -8.7      0.934      1.326
REMARK  Name = 
REMARK  5 active torsions:
REMARK  status: ('A' for Active; 'I' for Inactive)
REMARK    1  A    between atoms: C_1  and  C_2
REMARK    2  A    between atoms: C_7  and  C_8
REMARK    3  A    between atoms: C_8  and  C_9
REMARK    4  A    between atoms: C_15  and  C_16
REMARK    5  A    between atoms: C_16  and  C_17
REMARK                            x       y       z     vdW  Elec       q    Type
REMARK                         _______ _______ _______ _____ _____    ______ ____
ROOT
ATOM      1  C   UNL     1       2.883   7.009  18.918  0.00  0.00    +0.000 C 
ATOM      2  O   UNL     1       3.094   7.647  17.899  0.00  0.00    +0.000 OA
ATOM      3  N   UNL     1       2.186   7.393  20.032  0.00  0.00    +0.000 N 
ATOM      4  C   UNL     1       1.524   8.577  20.156  0.00  0.00    +0.000 A 
ATOM      5  N   UNL     1       1.030   8.986  21.329  0.00  0.00    +0.000 NA
ATOM      6  N   UNL     1       0.475  10.165  20.996  0.00  0.00    +0.000 N 
ATOM      7  C   UNL     1       0.567  10.379  19.653  0.00  0.00    +0.000 A 
ATOM      8  N   UNL     1       1.262   9.403  19.116  0.00  0.00    +0.000 NA
ATOM      9  H   UNL     1       2.190   6.827  20.868  0.00  0.00    +0.000 HD
ATOM     10  H   UNL     1       0.042  10.738  21.713  0.00  0.00    +0.000 HD
ENDROOT
BRANCH   1  11
ATOM     11  C   UNL     1       3.471   5.625  19.066  0.00  0.00    +0.000 C 
ATOM     12  C   UNL     1       4.423   5.044  18.020  0.00  0.00    +0.000 C 
ATOM     13  C   UNL     1       4.994   5.612  19.270  0.00  0.00    +0.000 C 
BRANCH  11  20
ATOM     14  C   UNL     1       1.308   4.090  17.550  0.00  0.00    +0.000 C 
ATOM     15  C   UNL     1       1.633   3.795  18.994  0.00  0.00    +0.000 A 
ATOM     16  C   UNL     1       0.973   2.722  19.614  0.00  0.00    +0.000 A 
ATOM     17  C   UNL     1       1.180   2.441  20.961  0.00  0.00    +0.000 A 
ATOM     18  C   UNL     1       2.017   3.255  21.715  0.00  0.00    +0.000 A 
ATOM     19  C   UNL     1       2.699   4.307  21.104  0.00  0.00    +0.000 A 
ATOM     20  C   UNL     1       2.572   4.571  19.727  0.00  0.00    +0.000 A 
ENDBRANCH  11  20
ENDBRANCH   1  11
BRANCH   7  21
ATOM     21  C   UNL     1      -0.077  11.508  18.940  0.00  0.00    +0.000 C 
BRANCH  21  22
ATOM     22  C   UNL     1      -1.461  11.197  18.428  0.00  0.00    +0.000 A 
ATOM     23  C   UNL     1      -1.672  10.158  17.503  0.00  0.00    +0.000 A 
ATOM     24  C   UNL     1      -2.961   9.841  17.069  0.00  0.00    +0.000 A 
ATOM     25  C   UNL     1      -4.054  10.556  17.555  0.00  0.00    +0.000 A 
ATOM     26  C   UNL     1      -3.847  11.581  18.470  0.00  0.00    +0.000 A 
ATOM     27  F   UNL     1      -4.895  12.265  18.945  0.00  0.00    +0.000 F 
ATOM     28  C   UNL     1      -2.568  11.907  18.910  0.00  0.00    +0.000 A 
ENDBRANCH  21  22
ENDBRANCH   7  21
TORSDOF 4
ENDMDL
MODEL 3
REMARK VINA RESULT:      -8.5      1.899      3.525
REMARK  Name = 
REMARK  5 active torsions:
REMARK  status: ('A' for Active; 'I' for Inactive)
REMARK    1  A    between atoms: C_1  and  C_2
REMARK    2  A    between atoms: C_7  and  C_8
REMARK    3  A    between atoms: C_8  and  C_9
REMARK    4  A    between atoms: C_15  and  C_16
REMARK    5  A    between atoms: C_16  and  C_17
REMARK                            x       y       z     vdW  Elec       q    Type
REMARK                         _______ _______ _______ _____ _____    ______ ____
ROOT
ATOM      1  C   UNL     1       2.903   6.043  18.524  0.00  0.00    +0.000 C 
ATOM      2  O   UNL     1       2.007   5.752  19.300  0.00  0.00    +0.000 OA
ATOM      3  N   UNL     1       3.121   7.235  17.886  0.00  0.00    +0.000 N 
ATOM      4  C   UNL     1       2.379   8.360  18.084  0.00  0.00    +0.000 A 
ATOM      5  N   UNL     1       2.508   9.433  17.296  0.00  0.00    +0.000 NA
ATOM      6  N   UNL     1       1.615  10.280  17.839  0.00  0.00    +0.000 N 
ATOM      7  C   UNL     1       1.062   9.741  18.963  0.00  0.00    +0.000 A 
ATOM      8  N   UNL     1       1.506   8.514  19.106  0.00  0.00    +0.000 NA
ATOM      9  H   UNL     1       3.821   7.317  17.164  0.00  0.00    +0.000 HD
ATOM     10  H   UNL     1       1.462  11.189  17.417  0.00  0.00    +0.000 HD
ENDROOT
BRANCH   1  11
ATOM     11  C   UNL     1       3.917   4.995  18.128  0.00  0.00    +0.000 C 
ATOM     12  C   UNL     1       3.728   3.521  18.491  0.00  0.00    +0.000 C 
ATOM     13  C   UNL     1       3.390   3.968  17.113  0.00  0.00    +0.000 C 
BRANCH  11  20
ATOM     14  C   UNL     1       5.297   6.154  15.661  0.00  0.00    +0.000 C 
ATOM     15  C   UNL     1       5.993   6.062  16.997  0.00  0.00    +0.000 A 
ATOM     16  C   UNL     1       7.281   6.611  17.109  0.00  0.00    +0.000 A 
ATOM     17  C   UNL     1       8.001   6.499  18.294  0.00  0.00    +0.000 A 
ATOM     18  C   UNL     1       7.461   5.802  19.367  0.00  0.00    +0.000 A 
ATOM     19  C   UNL     1       6.173   5.276  19.277  0.00  0.00    +0.000 A 
ATOM     20  C   UNL     1       5.387   5.438  18.120  0.00  0.00    +0.000 A 
ENDBRANCH  11  20
ENDBRANCH   1  11
BRANCH   7  21
ATOM     21  C   UNL     1       0.158  10.472  19.882  0.00  0.00    +0.000 C 
BRANCH  21  22
ATOM     22  C   UNL     1      -1.201  10.767  19.296  0.00  0.00    +0.000 A 
ATOM     23  C   UNL     1      -1.964  11.855  19.757  0.00  0.00    +0.000 A 
ATOM     24  C   UNL     1      -3.199  12.155  19.177  0.00  0.00    +0.000 A 
ATOM     25  C   UNL     1      -3.684  11.373  18.131  0.00  0.00    +0.000 A 
ATOM     26  C   UNL     1      -2.930  10.299  17.674  0.00  0.00    +0.000 A 
ATOM     27  F   UNL     1      -3.390   9.551  16.663  0.00  0.00    +0.000 F 
ATOM     28  C   UNL     1      -1.699   9.990  18.243  0.00  0.00    +0.000 A 
ENDBRANCH  21  22
ENDBRANCH   7  21
TORSDOF 4
ENDMDL
MODEL 4
REMARK VINA RESULT:      -8.5      1.249      3.036
REMARK  Name = 
REMARK  5 active torsions:
REMARK  status: ('A' for Active; 'I' for Inactive)
REMARK    1  A    between atoms: C_1  and  C_2
REMARK    2  A    between atoms: C_7  and  C_8
REMARK    3  A    between atoms: C_8  and  C_9
REMARK    4  A    between atoms: C_15  and  C_16
REMARK    5  A    between atoms: C_16  and  C_17
REMARK                            x       y       z     vdW  Elec       q    Type
REMARK                         _______ _______ _______ _____ _____    ______ ____
ROOT
ATOM      1  C   UNL     1       2.839   7.156  18.418  0.00  0.00    +0.000 C 
ATOM      2  O   UNL     1       2.974   7.951  17.502  0.00  0.00    +0.000 OA
ATOM      3  N   UNL     1       2.201   7.341  19.615  0.00  0.00    +0.000 N 
ATOM      4  C   UNL     1       1.519   8.470  19.958  0.00  0.00    +0.000 A 
ATOM      5  N   UNL     1       1.086   8.676  21.206  0.00  0.00    +0.000 NA
ATOM      6  N   UNL     1       0.485   9.874  21.092  0.00  0.00    +0.000 N 
ATOM      7  C   UNL     1       0.492  10.295  19.796  0.00  0.00    +0.000 A 
ATOM      8  N   UNL     1       1.177   9.438  19.076  0.00  0.00    +0.000 NA
ATOM      9  H   UNL     1       2.267   6.653  20.351  0.00  0.00    +0.000 HD
ATOM     10  H   UNL     1       0.082  10.315  21.913  0.00  0.00    +0.000 HD
ENDROOT
BRANCH   1  11
ATOM     11  C   UNL     1       3.467   5.786  18.316  0.00  0.00    +0.000 C 
ATOM     12  C   UNL     1       2.844   4.568  19.002  0.00  0.00    +0.000 C 
ATOM     13  C   UNL     1       2.614   4.764  17.545  0.00  0.00    +0.000 C 
BRANCH  11  20
ATOM     14  C   UNL     1       5.069   6.345  15.775  0.00  0.00    +0.000 C 
ATOM     15  C   UNL     1       5.739   6.094  17.104  0.00  0.00    +0.000 A 
ATOM     16  C   UNL     1       7.137   6.211  17.171  0.00  0.00    +0.000 A 
ATOM     17  C   UNL     1       7.820   5.927  18.350  0.00  0.00    +0.000 A 
ATOM     18  C   UNL     1       7.118   5.482  19.463  0.00  0.00    +0.000 A 
ATOM     19  C   UNL     1       5.728   5.387  19.417  0.00  0.00    +0.000 A 
ATOM     20  C   UNL     1       5.000   5.741  18.265  0.00  0.00    +0.000 A 
ENDBRANCH  11  20
ENDBRANCH   1  11
BRANCH   7  21
ATOM     21  C   UNL     1      -0.219  11.500  19.305  0.00  0.00    +0.000 C 
BRANCH  21  22
ATOM     22  C   UNL     1      -1.550  11.202  18.659  0.00  0.00    +0.000 A 
ATOM     23  C   UNL     1      -2.723  11.841  19.100  0.00  0.00    +0.000 A 
ATOM     24  C   UNL     1      -3.945  11.601  18.468  0.00  0.00    +0.000 A 
ATOM     25  C   UNL     1      -4.009  10.722  17.388  0.00  0.00    +0.000 A 
ATOM     26  C   UNL     1      -2.850  10.093  16.951  0.00  0.00    +0.000 A 
ATOM     27  F   UNL     1      -2.906   9.254  15.909  0.00  0.00    +0.000 F 
ATOM     28  C   UNL     1      -1.627  10.323  17.573  0.00  0.00    +0.000 A 
ENDBRANCH  21  22
ENDBRANCH   7  21
TORSDOF 4
ENDMDL
MODEL 5
REMARK VINA RESULT:      -8.4      1.522      3.301
REMARK  Name = 
REMARK  5 active torsions:
REMARK  status: ('A' for Active; 'I' for Inactive)
REMARK    1  A    between atoms: C_1  and  C_2
REMARK    2  A    between atoms: C_7  and  C_8
REMARK    3  A    between atoms: C_8  and  C_9
REMARK    4  A    between atoms: C_15  and  C_16
REMARK    5  A    between atoms: C_16  and  C_17
REMARK                            x       y       z     vdW  Elec       q    Type
REMARK                         _______ _______ _______ _____ _____    ______ ____
ROOT
ATOM      1  C   UNL     1       2.829   7.117  18.523  0.00  0.00    +0.000 C 
ATOM      2  O   UNL     1       2.920   7.953  17.639  0.00  0.00    +0.000 OA
ATOM      3  N   UNL     1       2.225   7.237  19.746  0.00  0.00    +0.000 N 
ATOM      4  C   UNL     1       1.532   8.336  20.159  0.00  0.00    +0.000 A 
ATOM      5  N   UNL     1       1.134   8.479  21.427  0.00  0.00    +0.000 NA
ATOM      6  N   UNL     1       0.506   9.668  21.383  0.00  0.00    +0.000 N 
ATOM      7  C   UNL     1       0.465  10.144  20.107  0.00  0.00    +0.000 A 
ATOM      8  N   UNL     1       1.144   9.333  19.330  0.00  0.00    +0.000 NA
ATOM      9  H   UNL     1       2.327   6.520  20.449  0.00  0.00    +0.000 HD
ATOM     10  H   UNL     1       0.121  10.065  22.234  0.00  0.00    +0.000 HD
ENDROOT
BRANCH   1  11
ATOM     11  C   UNL     1       3.480   5.766  18.343  0.00  0.00    +0.000 C 
ATOM     12  C   UNL     1       2.887   4.503  18.971  0.00  0.00    +0.000 C 
ATOM     13  C   UNL     1       2.637   4.770  17.529  0.00  0.00    +0.000 C 
BRANCH  11  20
ATOM     14  C   UNL     1       5.042   6.434  15.804  0.00  0.00    +0.000 C 
ATOM     15  C   UNL     1       5.732   6.155  17.117  0.00  0.00    +0.000 A 
ATOM     16  C   UNL     1       7.128   6.297  17.172  0.00  0.00    +0.000 A 
ATOM     17  C   UNL     1       7.829   5.990  18.333  0.00  0.00    +0.000 A 
ATOM     18  C   UNL     1       7.150   5.497  19.440  0.00  0.00    +0.000 A 
ATOM     19  C   UNL     1       5.761   5.377  19.407  0.00  0.00    +0.000 A 
ATOM     20  C   UNL     1       5.013   5.752  18.274  0.00  0.00    +0.000 A 
ENDBRANCH  11  20
ENDBRANCH   1  11
BRANCH   7  21
ATOM     21  C   UNL     1      -0.285  11.353  19.690  0.00  0.00    +0.000 C 
BRANCH  21  22
ATOM     22  C   UNL     1      -1.418  11.070  18.735  0.00  0.00    +0.000 A 
ATOM     23  C   UNL     1      -1.288  10.094  17.730  0.00  0.00    +0.000 A 
ATOM     24  C   UNL     1      -2.356   9.800  16.880  0.00  0.00    +0.000 A 
ATOM     25  C   UNL     1      -3.566  10.475  17.025  0.00  0.00    +0.000 A 
ATOM     26  C   UNL     1      -3.697  11.438  18.018  0.00  0.00    +0.000 A 
ATOM     27  F   UNL     1      -4.861  12.083  18.165  0.00  0.00    +0.000 F 
ATOM     28  C   UNL     1      -2.640  11.741  18.871  0.00  0.00    +0.000 A 
ENDBRANCH  21  22
ENDBRANCH   7  21
TORSDOF 4
ENDMDL
MODEL 6
REMARK VINA RESULT:      -8.4      2.436      7.929
REMARK  Name = 
REMARK  5 active torsions:
REMARK  status: ('A' for Active; 'I' for Inactive)
REMARK    1  A    between atoms: C_1  and  C_2
REMARK    2  A    between atoms: C_7  and  C_8
REMARK    3  A    between atoms: C_8  and  C_9
REMARK    4  A    between atoms: C_15  and  C_16
REMARK    5  A    between atoms: C_16  and  C_17
REMARK                            x       y       z     vdW  Elec       q    Type
REMARK                         _______ _______ _______ _____ _____    ______ ____
ROOT
ATOM      1  C   UNL     1      -0.593  10.715  18.815  0.00  0.00    +0.000 C 
ATOM      2  O   UNL     1      -0.536  10.011  17.820  0.00  0.00    +0.000 OA
ATOM      3  N   UNL     1      -0.080  10.468  20.061  0.00  0.00    +0.000 N 
ATOM      4  C   UNL     1       0.677   9.381  20.381  0.00  0.00    +0.000 A 
ATOM      5  N   UNL     1       0.984   9.089  21.649  0.00  0.00    +0.000 NA
ATOM      6  N   UNL     1       1.721   7.974  21.501  0.00  0.00    +0.000 N 
ATOM      7  C   UNL     1       1.908   7.691  20.180  0.00  0.00    +0.000 A 
ATOM      8  N   UNL     1       1.221   8.549  19.463  0.00  0.00    +0.000 NA
ATOM      9  H   UNL     1      -0.304  11.066  20.843  0.00  0.00    +0.000 HD
ATOM     10  H   UNL     1       2.073   7.490  22.321  0.00  0.00    +0.000 HD
ENDROOT
BRANCH   1  11
ATOM     11  C   UNL     1      -1.350  12.021  18.763  0.00  0.00    +0.000 C 
ATOM     12  C   UNL     1      -0.894  13.243  19.563  0.00  0.00    +0.000 C 
ATOM     13  C   UNL     1      -0.565  13.172  18.114  0.00  0.00    +0.000 C 
BRANCH  11  20
ATOM     14  C   UNL     1      -2.730  11.147  16.181  0.00  0.00    +0.000 C 
ATOM     15  C   UNL     1      -3.504  11.422  17.447  0.00  0.00    +0.000 A 
ATOM     16  C   UNL     1      -4.887  11.179  17.441  0.00  0.00    +0.000 A 
ATOM     17  C   UNL     1      -5.667  11.476  18.554  0.00  0.00    +0.000 A 
ATOM     18  C   UNL     1      -5.081  12.058  19.672  0.00  0.00    +0.000 A 
ATOM     19  C   UNL     1      -3.704  12.279  19.700  0.00  0.00    +0.000 A 
ATOM     20  C   UNL     1      -2.875  11.919  18.620  0.00  0.00    +0.000 A 
ENDBRANCH  11  20
ENDBRANCH   1  11
BRANCH   7  21
ATOM     21  C   UNL     1       2.797   6.620  19.673  0.00  0.00    +0.000 C 
BRANCH  21  22
ATOM     22  C   UNL     1       2.141   5.263  19.603  0.00  0.00    +0.000 A 
ATOM     23  C   UNL     1       1.868   4.657  18.363  0.00  0.00    +0.000 A 
ATOM     24  C   UNL     1       1.305   3.380  18.304  0.00  0.00    +0.000 A 
ATOM     25  C   UNL     1       1.011   2.694  19.480  0.00  0.00    +0.000 A 
ATOM     26  C   UNL     1       1.282   3.291  20.705  0.00  0.00    +0.000 A 
ATOM     27  F   UNL     1       1.008   2.631  21.837  0.00  0.00    +0.000 F 
ATOM     28  C   UNL     1       1.842   4.562  20.778  0.00  0.00    +0.000 A 
ENDBRANCH  21  22
ENDBRANCH   7  21
TORSDOF 4
ENDMDL
MODEL 7
REMARK VINA RESULT:      -8.4      1.438      3.391
REMARK  Name = 
REMARK  5 active torsions:
REMARK  status: ('A' for Active; 'I' for Inactive)
REMARK    1  A    between atoms: C_1  and  C_2
REMARK    2  A    between atoms: C_7  and  C_8
REMARK    3  A    between atoms: C_8  and  C_9
REMARK    4  A    between atoms: C_15  and  C_16
REMARK    5  A    between atoms: C_16  and  C_17
REMARK                            x       y       z     vdW  Elec       q    Type
REMARK                         _______ _______ _______ _____ _____    ______ ____
ROOT
ATOM      1  C   UNL     1       3.031   6.636  18.169  0.00  0.00    +0.000 C 
ATOM      2  O   UNL     1       3.271   7.502  17.344  0.00  0.00    +0.000 OA
ATOM      3  N   UNL     1       2.369   6.760  19.362  0.00  0.00    +0.000 N 
ATOM      4  C   UNL     1       1.782   7.907  19.801  0.00  0.00    +0.000 A 
ATOM      5  N   UNL     1       1.323   8.027  21.051  0.00  0.00    +0.000 NA
ATOM      6  N   UNL     1       0.839   9.282  21.045  0.00  0.00    +0.000 N 
ATOM      7  C   UNL     1       0.931   9.829  19.800  0.00  0.00    +0.000 A 
ATOM      8  N   UNL     1       1.561   8.987  19.014  0.00  0.00    +0.000 NA
ATOM      9  H   UNL     1       2.346   5.998  20.024  0.00  0.00    +0.000 HD
ATOM     10  H   UNL     1       0.448   9.675  21.895  0.00  0.00    +0.000 HD
ENDROOT
BRANCH   1  11
ATOM     11  C   UNL     1       3.534   5.230  17.943  0.00  0.00    +0.000 C 
ATOM     12  C   UNL     1       3.294   4.120  18.968  0.00  0.00    +0.000 C 
ATOM     13  C   UNL     1       2.418   4.188  17.768  0.00  0.00    +0.000 C 
BRANCH  11  20
ATOM     14  C   UNL     1       6.244   5.354  19.349  0.00  0.00    +0.000 C 
ATOM     15  C   UNL     1       6.122   5.060  17.874  0.00  0.00    +0.000 A 
ATOM     16  C   UNL     1       7.293   4.751  17.162  0.00  0.00    +0.000 A 
ATOM     17  C   UNL     1       7.256   4.537  15.788  0.00  0.00    +0.000 A 
ATOM     18  C   UNL     1       6.055   4.669  15.101  0.00  0.00    +0.000 A 
ATOM     19  C   UNL     1       4.881   4.949  15.800  0.00  0.00    +0.000 A 
ATOM     20  C   UNL     1       4.871   5.095  17.201  0.00  0.00    +0.000 A 
ENDBRANCH  11  20
ENDBRANCH   1  11
BRANCH   7  21
ATOM     21  C   UNL     1       0.351  11.138  19.416  0.00  0.00    +0.000 C 
BRANCH  21  22
ATOM     22  C   UNL     1      -1.032  11.042  18.822  0.00  0.00    +0.000 A 
ATOM     23  C   UNL     1      -2.089  11.821  19.327  0.00  0.00    +0.000 A 
ATOM     24  C   UNL     1      -3.357  11.767  18.743  0.00  0.00    +0.000 A 
ATOM     25  C   UNL     1      -3.582  10.937  17.647  0.00  0.00    +0.000 A 
ATOM     26  C   UNL     1      -2.538  10.168  17.146  0.00  0.00    +0.000 A 
ATOM     27  F   UNL     1      -2.749   9.375  16.088  0.00  0.00    +0.000 F 
ATOM     28  C   UNL     1      -1.271  10.213  17.720  0.00  0.00    +0.000 A 
ENDBRANCH  21  22
ENDBRANCH   7  21
TORSDOF 4
ENDMDL
MODEL 8
REMARK VINA RESULT:      -8.4      2.105      3.726
REMARK  Name = 
REMARK  5 active torsions:
REMARK  status: ('A' for Active; 'I' for Inactive)
REMARK    1  A    between atoms: C_1  and  C_2
REMARK    2  A    between atoms: C_7  and  C_8
REMARK    3  A    between atoms: C_8  and  C_9
REMARK    4  A    between atoms: C_15  and  C_16
REMARK    5  A    between atoms: C_16  and  C_17
REMARK                            x       y       z     vdW  Elec       q    Type
REMARK                         _______ _______ _______ _____ _____    ______ ____
ROOT
ATOM      1  C   UNL     1       2.835   5.930  18.343  0.00  0.00    +0.000 C 
ATOM      2  O   UNL     1       1.798   5.603  18.897  0.00  0.00    +0.000 OA
ATOM      3  N   UNL     1       3.187   7.162  17.858  0.00  0.00    +0.000 N 
ATOM      4  C   UNL     1       2.430   8.286  17.989  0.00  0.00    +0.000 A 
ATOM      5  N   UNL     1       2.724   9.412  17.330  0.00  0.00    +0.000 NA
ATOM      6  N   UNL     1       1.746  10.236  17.746  0.00  0.00    +0.000 N 
ATOM      7  C   UNL     1       0.972   9.628  18.690  0.00  0.00    +0.000 A 
ATOM      8  N   UNL     1       1.368   8.384  18.823  0.00  0.00    +0.000 NA
ATOM      9  H   UNL     1       4.020   7.281  17.301  0.00  0.00    +0.000 HD
ATOM     10  H   UNL     1       1.690  11.178  17.374  0.00  0.00    +0.000 HD
ENDROOT
BRANCH   1  11
ATOM     11  C   UNL     1       3.900   4.892  18.080  0.00  0.00    +0.000 C 
ATOM     12  C   UNL     1       3.730   3.440  18.530  0.00  0.00    +0.000 C 
ATOM     13  C   UNL     1       3.464   3.784  17.107  0.00  0.00    +0.000 C 
BRANCH  11  20
ATOM     14  C   UNL     1       5.333   6.111  15.672  0.00  0.00    +0.000 C 
ATOM     15  C   UNL     1       5.982   6.031  17.032  0.00  0.00    +0.000 A 
ATOM     16  C   UNL     1       7.247   6.618  17.195  0.00  0.00    +0.000 A 
ATOM     17  C   UNL     1       7.927   6.520  18.405  0.00  0.00    +0.000 A 
ATOM     18  C   UNL     1       7.369   5.798  19.453  0.00  0.00    +0.000 A 
ATOM     19  C   UNL     1       6.102   5.234  19.313  0.00  0.00    +0.000 A 
ATOM     20  C   UNL     1       5.354   5.380  18.128  0.00  0.00    +0.000 A 
ENDBRANCH  11  20
ENDBRANCH   1  11
BRANCH   7  21
ATOM     21  C   UNL     1      -0.094  10.309  19.461  0.00  0.00    +0.000 C 
BRANCH  21  22
ATOM     22  C   UNL     1      -1.358  10.551  18.673  0.00  0.00    +0.000 A 
ATOM     23  C   UNL     1      -1.604   9.858  17.474  0.00  0.00    +0.000 A 
ATOM     24  C   UNL     1      -2.797  10.048  16.773  0.00  0.00    +0.000 A 
ATOM     25  C   UNL     1      -3.758  10.931  17.263  0.00  0.00    +0.000 A 
ATOM     26  C   UNL     1      -3.516  11.615  18.448  0.00  0.00    +0.000 A 
ATOM     27  F   UNL     1      -4.440  12.458  18.925  0.00  0.00    +0.000 F 
ATOM     28  C   UNL     1      -2.332  11.434  19.155  0.00  0.00    +0.000 A 
ENDBRANCH  21  22
ENDBRANCH   7  21
TORSDOF 4
ENDMDL
MODEL 9
REMARK VINA RESULT:      -8.4      6.413      9.306
REMARK  Name = 
REMARK  5 active torsions:
REMARK  status: ('A' for Active; 'I' for Inactive)
REMARK    1  A    between atoms: C_1  and  C_2
REMARK    2  A    between atoms: C_7  and  C_8
REMARK    3  A    between atoms: C_8  and  C_9
REMARK    4  A    between atoms: C_15  and  C_16
REMARK    5  A    between atoms: C_16  and  C_17
REMARK                            x       y       z     vdW  Elec       q    Type
REMARK                         _______ _______ _______ _____ _____    ______ ____
ROOT
ATOM      1  C   UNL     1       8.734  10.483  18.174  0.00  0.00    +0.000 C 
ATOM      2  O   UNL     1       7.813  10.877  17.477  0.00  0.00    +0.000 OA
ATOM      3  N   UNL     1       8.966   9.216  18.639  0.00  0.00    +0.000 N 
ATOM      4  C   UNL     1       8.210   8.128  18.319  0.00  0.00    +0.000 A 
ATOM      5  N   UNL     1       8.359   6.960  18.952  0.00  0.00    +0.000 NA
ATOM      6  N   UNL     1       7.441   6.195  18.333  0.00  0.00    +0.000 N 
ATOM      7  C   UNL     1       6.853   6.880  17.312  0.00  0.00    +0.000 A 
ATOM      8  N   UNL     1       7.300   8.114  17.318  0.00  0.00    +0.000 NA
ATOM      9  H   UNL     1       9.691   9.036  19.317  0.00  0.00    +0.000 HD
ATOM     10  H   UNL     1       7.297   5.238  18.636  0.00  0.00    +0.000 HD
ENDROOT
BRANCH   1  11
ATOM     11  C   UNL     1       9.769  11.466  18.669  0.00  0.00    +0.000 C 
ATOM     12  C   UNL     1      11.263  11.136  18.641  0.00  0.00    +0.000 C 
ATOM     13  C   UNL     1      10.701  11.998  17.568  0.00  0.00    +0.000 C 
BRANCH  11  20
ATOM     14  C   UNL     1       8.337  14.145  18.347  0.00  0.00    +0.000 C 
ATOM     15  C   UNL     1       8.611  13.543  19.703  0.00  0.00    +0.000 A 
ATOM     16  C   UNL     1       8.108  14.207  20.834  0.00  0.00    +0.000 A 
ATOM     17  C   UNL     1       8.384  13.740  22.115  0.00  0.00    +0.000 A 
ATOM     18  C   UNL     1       9.201  12.629  22.284  0.00  0.00    +0.000 A 
ATOM     19  C   UNL     1       9.684  11.945  21.168  0.00  0.00    +0.000 A 
ATOM     20  C   UNL     1       9.360  12.345  19.858  0.00  0.00    +0.000 A 
ENDBRANCH  11  20
ENDBRANCH   1  11
BRANCH   7  21
ATOM     21  C   UNL     1       5.910   6.281  16.337  0.00  0.00    +0.000 C 
BRANCH  21  22
ATOM     22  C   UNL     1       4.670   5.697  16.966  0.00  0.00    +0.000 A 
ATOM     23  C   UNL     1       3.749   6.518  17.642  0.00  0.00    +0.000 A 
ATOM     24  C   UNL     1       2.578   5.980  18.181  0.00  0.00    +0.000 A 
ATOM     25  C   UNL     1       2.312   4.619  18.049  0.00  0.00    +0.000 A 
ATOM     26  C   UNL     1       3.221   3.808  17.380  0.00  0.00    +0.000 A 
ATOM     27  F   UNL     1       2.965   2.501  17.244  0.00  0.00    +0.000 F 
ATOM     28  C   UNL     1       4.391   4.331  16.839  0.00  0.00    +0.000 A 
ENDBRANCH  21  22
ENDBRANCH   7  21
TORSDOF 4
ENDMDL
