MODEL 1
REMARK VINA RESULT:      -8.2      0.000      0.000
REMARK  Name = 
REMARK  6 active torsions:
REMARK  status: ('A' for Active; 'I' for Inactive)
REMARK    1  A    between atoms: C_1  and  N_2
REMARK    2  A    between atoms: C_4  and  C_5
REMARK    3  A    between atoms: C_5  and  C_6
REMARK    4  A    between atoms: N_8  and  C_9
REMARK    5  A    between atoms: C_13  and  O_14
REMARK    6  A    between atoms: O_14  and  C_15
REMARK                            x       y       z     vdW  Elec       q    Type
REMARK                         _______ _______ _______ _____ _____    ______ ____
ROOT
ATOM      1  C   UNL     1       5.404   5.764  16.132  0.00  0.00    +0.000 C 
ATOM      2  O   UNL     1       5.019   6.689  15.419  0.00  0.00    +0.000 OA
ATOM      3  N   UNL     1       5.944   4.580  15.658  0.00  0.00    +0.000 N 
ATOM      4  H   UNL     1       5.886   3.774  16.275  0.00  0.00    +0.000 HD
ENDROOT
BRANCH   3   5
ATOM      5  C   UNL     1       6.176   4.319  14.292  0.00  0.00    +0.000 A 
ATOM      6  C   UNL     1       7.293   4.907  13.696  0.00  0.00    +0.000 A 
ATOM      7  C   UNL     1       7.566   4.673  12.351  0.00  0.00    +0.000 A 
ATOM      8  C   UNL     1       6.691   3.898  11.592  0.00  0.00    +0.000 A 
ATOM      9  C   UNL     1       5.553   3.323  12.169  0.00  0.00    +0.000 A 
ATOM     10  C   UNL     1       5.297   3.535  13.525  0.00  0.00    +0.000 A 
BRANCH   9  11
ATOM     11  O   UNL     1       4.779   2.644  11.279  0.00  0.00    +0.000 OA
BRANCH  11  12
ATOM     12  C   UNL     1       3.534   3.169  10.849  0.00  0.00    +0.000 C 
ATOM     13  F   UNL     1       3.112   2.687   9.665  0.00  0.00    +0.000 F 
ATOM     14  F   UNL     1       2.594   2.929  11.788  0.00  0.00    +0.000 F 
ATOM     15  F   UNL     1       3.668   4.510  10.725  0.00  0.00    +0.000 F 
ENDBRANCH  11  12
ENDBRANCH   9  11
ENDBRANCH   3   5
BRANCH   1  16
ATOM     16  C   UNL     1       5.335   5.867  17.628  0.00  0.00    +0.000 C 
BRANCH  16  20
ATOM     17  C   UNL     1       3.871   1.385  18.386  0.00  0.00    +0.000 C 
ATOM     18  N   UNL     1       3.637   2.788  18.662  0.00  0.00    +0.000 N 
ATOM     19  N   UNL     1       4.470   3.683  18.051  0.00  0.00    +0.000 NA
ATOM     20  C   UNL     1       4.329   4.950  18.290  0.00  0.00    +0.000 A 
ATOM     21  C   UNL     1       3.245   5.496  19.141  0.00  0.00    +0.000 A 
ATOM     22  C   UNL     1       3.010   6.867  19.309  0.00  0.00    +0.000 A 
ATOM     23  C   UNL     1       1.961   7.298  20.127  0.00  0.00    +0.000 A 
ATOM     24  C   UNL     1       1.146   6.373  20.781  0.00  0.00    +0.000 A 
ATOM     25  C   UNL     1       1.380   5.010  20.611  0.00  0.00    +0.000 A 
ATOM     26  C   UNL     1       2.423   4.575  19.784  0.00  0.00    +0.000 A 
ATOM     27  C   UNL     1       2.633   3.134  19.561  0.00  0.00    +0.000 A 
ATOM     28  O   UNL     1       1.925   2.318  20.146  0.00  0.00    +0.000 OA
ENDBRANCH  16  20
ENDBRANCH   1  16
TORSDOF 5
ENDMDL
MODEL 2
REMARK VINA RESULT:      -8.2      2.066      2.320
REMARK  Name = 
REMARK  6 active torsions:
REMARK  status: ('A' for Active; 'I' for Inactive)
REMARK    1  A    between atoms: C_1  and  N_2
REMARK    2  A    between atoms: C_4  and  C_5
REMARK    3  A    between atoms: C_5  and  C_6
REMARK    4  A    between atoms: N_8  and  C_9
REMARK    5  A    between atoms: C_13  and  O_14
REMARK    6  A    between atoms: O_14  and  C_15
REMARK                            x       y       z     vdW  Elec       q    Type
REMARK                         _______ _______ _______ _____ _____    ______ ____
ROOT
ATOM      1  C   UNL     1       7.321   4.944  16.724  0.00  0.00    +0.000 C 
ATOM      2  O   UNL     1       8.233   4.121  16.666  0.00  0.00    +0.000 OA
ATOM      3  N   UNL     1       6.604   5.399  15.630  0.00  0.00    +0.000 N 
ATOM      4  H   UNL     1       6.152   6.304  15.728  0.00  0.00    +0.000 HD
ENDROOT
BRANCH   3   5
ATOM      5  C   UNL     1       6.794   4.920  14.318  0.00  0.00    +0.000 A 
ATOM      6  C   UNL     1       7.687   5.608  13.495  0.00  0.00    +0.000 A 
ATOM      7  C   UNL     1       7.911   5.168  12.194  0.00  0.00    +0.000 A 
ATOM      8  C   UNL     1       7.200   4.077  11.700  0.00  0.00    +0.000 A 
ATOM      9  C   UNL     1       6.282   3.392  12.504  0.00  0.00    +0.000 A 
ATOM     10  C   UNL     1       6.080   3.817  13.819  0.00  0.00    +0.000 A 
BRANCH   9  11
ATOM     11  O   UNL     1       5.635   2.388  11.853  0.00  0.00    +0.000 OA
BRANCH  11  12
ATOM     12  C   UNL     1       6.359   1.343  11.224  0.00  0.00    +0.000 C 
ATOM     13  F   UNL     1       7.678   1.346  11.492  0.00  0.00    +0.000 F 
ATOM     14  F   UNL     1       5.835   0.151  11.582  0.00  0.00    +0.000 F 
ATOM     15  F   UNL     1       6.208   1.480   9.886  0.00  0.00    +0.000 F 
ENDBRANCH  11  12
ENDBRANCH   9  11
ENDBRANCH   3   5
BRANCH   1  16
ATOM     16  C   UNL     1       6.889   5.518  18.041  0.00  0.00    +0.000 C 
BRANCH  16  20
ATOM     17  C   UNL     1       4.399   2.074  20.220  0.00  0.00    +0.000 C 
ATOM     18  N   UNL     1       4.350   3.384  19.602  0.00  0.00    +0.000 N 
ATOM     19  N   UNL     1       5.519   3.859  19.074  0.00  0.00    +0.000 NA
ATOM     20  C   UNL     1       5.542   5.041  18.540  0.00  0.00    +0.000 A 
ATOM     21  C   UNL     1       4.334   5.888  18.399  0.00  0.00    +0.000 A 
ATOM     22  C   UNL     1       4.323   7.112  17.718  0.00  0.00    +0.000 A 
ATOM     23  C   UNL     1       3.137   7.847  17.626  0.00  0.00    +0.000 A 
ATOM     24  C   UNL     1       1.961   7.371  18.209  0.00  0.00    +0.000 A 
ATOM     25  C   UNL     1       1.973   6.152  18.884  0.00  0.00    +0.000 A 
ATOM     26  C   UNL     1       3.157   5.409  18.969  0.00  0.00    +0.000 A 
ATOM     27  C   UNL     1       3.155   4.094  19.634  0.00  0.00    +0.000 A 
ATOM     28  O   UNL     1       2.124   3.680  20.159  0.00  0.00    +0.000 OA
ENDBRANCH  16  20
ENDBRANCH   1  16
TORSDOF 5
ENDMDL
MODEL 3
REMARK VINA RESULT:      -8.1      1.408      1.733
REMARK  Name = 
REMARK  6 active torsions:
REMARK  status: ('A' for Active; 'I' for Inactive)
REMARK    1  A    between atoms: C_1  and  N_2
REMARK    2  A    between atoms: C_4  and  C_5
REMARK    3  A    between atoms: C_5  and  C_6
REMARK    4  A    between atoms: N_8  and  C_9
REMARK    5  A    between atoms: C_13  and  O_14
REMARK    6  A    between atoms: O_14  and  C_15
REMARK                            x       y       z     vdW  Elec       q    Type
REMARK                         _______ _______ _______ _____ _____    ______ ____
ROOT
ATOM      1  C   UNL     1       7.205   4.941  16.679  0.00  0.00    +0.000 C 
ATOM      2  O   UNL     1       8.122   4.125  16.605  0.00  0.00    +0.000 OA
ATOM      3  N   UNL     1       6.440   5.363  15.605  0.00  0.00    +0.000 N 
ATOM      4  H   UNL     1       5.983   6.266  15.699  0.00  0.00    +0.000 HD
ENDROOT
BRANCH   3   5
ATOM      5  C   UNL     1       6.580   4.853  14.298  0.00  0.00    +0.000 A 
ATOM      6  C   UNL     1       7.645   5.319  13.527  0.00  0.00    +0.000 A 
ATOM      7  C   UNL     1       7.828   4.840  12.233  0.00  0.00    +0.000 A 
ATOM      8  C   UNL     1       6.912   3.938  11.694  0.00  0.00    +0.000 A 
ATOM      9  C   UNL     1       5.824   3.480  12.446  0.00  0.00    +0.000 A 
ATOM     10  C   UNL     1       5.660   3.940  13.754  0.00  0.00    +0.000 A 
BRANCH   9  11
ATOM     11  O   UNL     1       4.999   2.649  11.754  0.00  0.00    +0.000 OA
BRANCH  11  12
ATOM     12  C   UNL     1       3.857   3.151  11.081  0.00  0.00    +0.000 C 
ATOM     13  F   UNL     1       2.690   2.644  11.519  0.00  0.00    +0.000 F 
ATOM     14  F   UNL     1       3.825   4.497  11.186  0.00  0.00    +0.000 F 
ATOM     15  F   UNL     1       3.977   2.839   9.769  0.00  0.00    +0.000 F 
ENDBRANCH  11  12
ENDBRANCH   9  11
ENDBRANCH   3   5
BRANCH   1  16
ATOM     16  C   UNL     1       6.822   5.545  17.999  0.00  0.00    +0.000 C 
BRANCH  16  20
ATOM     17  C   UNL     1       4.334   2.183  20.305  0.00  0.00    +0.000 C 
ATOM     18  N   UNL     1       4.292   3.483  19.667  0.00  0.00    +0.000 N 
ATOM     19  N   UNL     1       5.453   3.928  19.098  0.00  0.00    +0.000 NA
ATOM     20  C   UNL     1       5.482   5.101  18.545  0.00  0.00    +0.000 A 
ATOM     21  C   UNL     1       4.286   5.968  18.424  0.00  0.00    +0.000 A 
ATOM     22  C   UNL     1       4.277   7.181  17.724  0.00  0.00    +0.000 A 
ATOM     23  C   UNL     1       3.102   7.936  17.654  0.00  0.00    +0.000 A 
ATOM     24  C   UNL     1       1.936   7.492  18.279  0.00  0.00    +0.000 A 
ATOM     25  C   UNL     1       1.945   6.283  18.973  0.00  0.00    +0.000 A 
ATOM     26  C   UNL     1       3.118   5.520  19.035  0.00  0.00    +0.000 A 
ATOM     27  C   UNL     1       3.111   4.216  19.722  0.00  0.00    +0.000 A 
ATOM     28  O   UNL     1       2.088   3.829  20.283  0.00  0.00    +0.000 OA
ENDBRANCH  16  20
ENDBRANCH   1  16
TORSDOF 5
ENDMDL
MODEL 4
REMARK VINA RESULT:      -8.0      5.246      8.279
REMARK  Name = 
REMARK  6 active torsions:
REMARK  status: ('A' for Active; 'I' for Inactive)
REMARK    1  A    between atoms: C_1  and  N_2
REMARK    2  A    between atoms: C_4  and  C_5
REMARK    3  A    between atoms: C_5  and  C_6
REMARK    4  A    between atoms: N_8  and  C_9
REMARK    5  A    between atoms: C_13  and  O_14
REMARK    6  A    between atoms: O_14  and  C_15
REMARK                            x       y       z     vdW  Elec       q    Type
REMARK                         _______ _______ _______ _____ _____    ______ ____
ROOT
ATOM      1  C   UNL     1       0.927   8.228  20.618  0.00  0.00    +0.000 C 
ATOM      2  O   UNL     1      -0.110   8.137  21.274  0.00  0.00    +0.000 OA
ATOM      3  N   UNL     1       1.140   9.155  19.612  0.00  0.00    +0.000 N 
ATOM      4  H   UNL     1       1.844   8.918  18.918  0.00  0.00    +0.000 HD
ENDROOT
BRANCH   3   5
ATOM      5  C   UNL     1       0.209  10.154  19.261  0.00  0.00    +0.000 A 
ATOM      6  C   UNL     1       0.014  11.208  20.155  0.00  0.00    +0.000 A 
ATOM      7  C   UNL     1      -0.889  12.221  19.847  0.00  0.00    +0.000 A 
ATOM      8  C   UNL     1      -1.638  12.148  18.674  0.00  0.00    +0.000 A 
ATOM      9  C   UNL     1      -1.472  11.084  17.779  0.00  0.00    +0.000 A 
ATOM     10  C   UNL     1      -0.543  10.085  18.076  0.00  0.00    +0.000 A 
BRANCH   9  11
ATOM     11  O   UNL     1      -2.316  11.137  16.713  0.00  0.00    +0.000 OA
BRANCH  11  12
ATOM     12  C   UNL     1      -3.379  10.209  16.580  0.00  0.00    +0.000 C 
ATOM     13  F   UNL     1      -3.618   9.480  17.685  0.00  0.00    +0.000 F 
ATOM     14  F   UNL     1      -4.507  10.862  16.225  0.00  0.00    +0.000 F 
ATOM     15  F   UNL     1      -3.062   9.353  15.580  0.00  0.00    +0.000 F 
ENDBRANCH  11  12
ENDBRANCH   9  11
ENDBRANCH   3   5
BRANCH   1  16
ATOM     16  C   UNL     1       2.089   7.318  20.890  0.00  0.00    +0.000 C 
BRANCH  16  20
ATOM     17  C   UNL     1       4.541   6.932  16.810  0.00  0.00    +0.000 C 
ATOM     18  N   UNL     1       3.695   6.254  17.772  0.00  0.00    +0.000 N 
ATOM     19  N   UNL     1       3.233   7.002  18.819  0.00  0.00    +0.000 NA
ATOM     20  C   UNL     1       2.501   6.438  19.730  0.00  0.00    +0.000 A 
ATOM     21  C   UNL     1       2.065   5.023  19.655  0.00  0.00    +0.000 A 
ATOM     22  C   UNL     1       1.178   4.438  20.567  0.00  0.00    +0.000 A 
ATOM     23  C   UNL     1       0.813   3.096  20.421  0.00  0.00    +0.000 A 
ATOM     24  C   UNL     1       1.328   2.332  19.372  0.00  0.00    +0.000 A 
ATOM     25  C   UNL     1       2.209   2.916  18.464  0.00  0.00    +0.000 A 
ATOM     26  C   UNL     1       2.568   4.263  18.602  0.00  0.00    +0.000 A 
ATOM     27  C   UNL     1       3.454   4.894  17.609  0.00  0.00    +0.000 A 
ATOM     28  O   UNL     1       3.919   4.220  16.693  0.00  0.00    +0.000 OA
ENDBRANCH  16  20
ENDBRANCH   1  16
TORSDOF 5
ENDMDL
MODEL 5
REMARK VINA RESULT:      -8.0      5.353      8.184
REMARK  Name = 
REMARK  6 active torsions:
REMARK  status: ('A' for Active; 'I' for Inactive)
REMARK    1  A    between atoms: C_1  and  N_2
REMARK    2  A    between atoms: C_4  and  C_5
REMARK    3  A    between atoms: C_5  and  C_6
REMARK    4  A    between atoms: N_8  and  C_9
REMARK    5  A    between atoms: C_13  and  O_14
REMARK    6  A    between atoms: O_14  and  C_15
REMARK                            x       y       z     vdW  Elec       q    Type
REMARK                         _______ _______ _______ _____ _____    ______ ____
ROOT
ATOM      1  C   UNL     1       1.816   8.458  18.784  0.00  0.00    +0.000 C 
ATOM      2  O   UNL     1       1.956   8.591  17.570  0.00  0.00    +0.000 OA
ATOM      3  N   UNL     1       1.121   9.338  19.595  0.00  0.00    +0.000 N 
ATOM      4  H   UNL     1       1.368   9.340  20.582  0.00  0.00    +0.000 HD
ENDROOT
BRANCH   3   5
ATOM      5  C   UNL     1       0.430  10.467  19.111  0.00  0.00    +0.000 A 
ATOM      6  C   UNL     1       1.088  11.697  19.138  0.00  0.00    +0.000 A 
ATOM      7  C   UNL     1       0.448  12.838  18.664  0.00  0.00    +0.000 A 
ATOM      8  C   UNL     1      -0.870  12.757  18.217  0.00  0.00    +0.000 A 
ATOM      9  C   UNL     1      -1.552  11.536  18.207  0.00  0.00    +0.000 A 
ATOM     10  C   UNL     1      -0.898  10.387  18.656  0.00  0.00    +0.000 A 
BRANCH   9  11
ATOM     11  O   UNL     1      -2.844  11.641  17.793  0.00  0.00    +0.000 OA
BRANCH  11  12
ATOM     12  C   UNL     1      -3.289  10.979  16.621  0.00  0.00    +0.000 C 
ATOM     13  F   UNL     1      -3.394   9.643  16.748  0.00  0.00    +0.000 F 
ATOM     14  F   UNL     1      -4.482  11.485  16.241  0.00  0.00    +0.000 F 
ATOM     15  F   UNL     1      -2.397  11.232  15.635  0.00  0.00    +0.000 F 
ENDBRANCH  11  12
ENDBRANCH   9  11
ENDBRANCH   3   5
BRANCH   1  16
ATOM     16  C   UNL     1       2.395   7.271  19.497  0.00  0.00    +0.000 C 
BRANCH  16  20
ATOM     17  C   UNL     1       5.663   6.194  16.184  0.00  0.00    +0.000 C 
ATOM     18  N   UNL     1       4.583   5.697  17.012  0.00  0.00    +0.000 N 
ATOM     19  N   UNL     1       3.949   6.608  17.810  0.00  0.00    +0.000 NA
ATOM     20  C   UNL     1       2.998   6.212  18.599  0.00  0.00    +0.000 A 
ATOM     21  C   UNL     1       2.499   4.816  18.625  0.00  0.00    +0.000 A 
ATOM     22  C   UNL     1       1.396   4.404  19.384  0.00  0.00    +0.000 A 
ATOM     23  C   UNL     1       0.987   3.067  19.348  0.00  0.00    +0.000 A 
ATOM     24  C   UNL     1       1.673   2.137  18.564  0.00  0.00    +0.000 A 
ATOM     25  C   UNL     1       2.768   2.550  17.808  0.00  0.00    +0.000 A 
ATOM     26  C   UNL     1       3.173   3.890  17.834  0.00  0.00    +0.000 A 
ATOM     27  C   UNL     1       4.297   4.335  16.992  0.00  0.00    +0.000 A 
ATOM     28  O   UNL     1       4.909   3.516  16.311  0.00  0.00    +0.000 OA
ENDBRANCH  16  20
ENDBRANCH   1  16
TORSDOF 5
ENDMDL
MODEL 6
REMARK VINA RESULT:      -7.9      6.466      8.602
REMARK  Name = 
REMARK  6 active torsions:
REMARK  status: ('A' for Active; 'I' for Inactive)
REMARK    1  A    between atoms: C_1  and  N_2
REMARK    2  A    between atoms: C_4  and  C_5
REMARK    3  A    between atoms: C_5  and  C_6
REMARK    4  A    between atoms: N_8  and  C_9
REMARK    5  A    between atoms: C_13  and  O_14
REMARK    6  A    between atoms: O_14  and  C_15
REMARK                            x       y       z     vdW  Elec       q    Type
REMARK                         _______ _______ _______ _____ _____    ______ ____
ROOT
ATOM      1  C   UNL     1       8.073   8.021  18.208  0.00  0.00    +0.000 C 
ATOM      2  O   UNL     1       7.519   8.624  17.291  0.00  0.00    +0.000 OA
ATOM      3  N   UNL     1       8.910   8.607  19.141  0.00  0.00    +0.000 N 
ATOM      4  H   UNL     1       9.577   7.994  19.603  0.00  0.00    +0.000 HD
ENDROOT
BRANCH   3   5
ATOM      5  C   UNL     1       9.178   9.991  19.190  0.00  0.00    +0.000 A 
ATOM      6  C   UNL     1       9.027  10.642  20.415  0.00  0.00    +0.000 A 
ATOM      7  C   UNL     1       9.287  12.006  20.512  0.00  0.00    +0.000 A 
ATOM      8  C   UNL     1       9.641  12.726  19.373  0.00  0.00    +0.000 A 
ATOM      9  C   UNL     1       9.772  12.092  18.132  0.00  0.00    +0.000 A 
ATOM     10  C   UNL     1       9.539  10.718  18.043  0.00  0.00    +0.000 A 
BRANCH   9  11
ATOM     11  O   UNL     1      10.070  12.946  17.116  0.00  0.00    +0.000 OA
BRANCH  11  12
ATOM     12  C   UNL     1      11.405  13.363  16.883  0.00  0.00    +0.000 C 
ATOM     13  F   UNL     1      12.333  12.620  17.514  0.00  0.00    +0.000 F 
ATOM     14  F   UNL     1      11.656  13.354  15.556  0.00  0.00    +0.000 F 
ATOM     15  F   UNL     1      11.526  14.637  17.321  0.00  0.00    +0.000 F 
ENDBRANCH  11  12
ENDBRANCH   9  11
ENDBRANCH   3   5
BRANCH   1  16
ATOM     16  C   UNL     1       7.852   6.548  18.400  0.00  0.00    +0.000 C 
BRANCH  16  20
ATOM     17  C   UNL     1       7.451   5.241  13.824  0.00  0.00    +0.000 C 
ATOM     18  N   UNL     1       6.828   5.242  15.131  0.00  0.00    +0.000 N 
ATOM     19  N   UNL     1       7.503   5.879  16.135  0.00  0.00    +0.000 NA
ATOM     20  C   UNL     1       7.009   5.880  17.335  0.00  0.00    +0.000 A 
ATOM     21  C   UNL     1       5.692   5.286  17.667  0.00  0.00    +0.000 A 
ATOM     22  C   UNL     1       5.096   5.387  18.930  0.00  0.00    +0.000 A 
ATOM     23  C   UNL     1       3.846   4.801  19.158  0.00  0.00    +0.000 A 
ATOM     24  C   UNL     1       3.189   4.114  18.137  0.00  0.00    +0.000 A 
ATOM     25  C   UNL     1       3.783   4.017  16.880  0.00  0.00    +0.000 A 
ATOM     26  C   UNL     1       5.029   4.612  16.646  0.00  0.00    +0.000 A 
ATOM     27  C   UNL     1       5.629   4.556  15.301  0.00  0.00    +0.000 A 
ATOM     28  O   UNL     1       5.058   3.941  14.404  0.00  0.00    +0.000 OA
ENDBRANCH  16  20
ENDBRANCH   1  16
TORSDOF 5
ENDMDL
MODEL 7
REMARK VINA RESULT:      -7.9      0.838      1.107
REMARK  Name = 
REMARK  6 active torsions:
REMARK  status: ('A' for Active; 'I' for Inactive)
REMARK    1  A    between atoms: C_1  and  N_2
REMARK    2  A    between atoms: C_4  and  C_5
REMARK    3  A    between atoms: C_5  and  C_6
REMARK    4  A    between atoms: N_8  and  C_9
REMARK    5  A    between atoms: C_13  and  O_14
REMARK    6  A    between atoms: O_14  and  C_15
REMARK                            x       y       z     vdW  Elec       q    Type
REMARK                         _______ _______ _______ _____ _____    ______ ____
ROOT
ATOM      1  C   UNL     1       6.443   5.023  16.848  0.00  0.00    +0.000 C 
ATOM      2  O   UNL     1       7.571   4.534  16.868  0.00  0.00    +0.000 OA
ATOM      3  N   UNL     1       5.671   5.170  15.709  0.00  0.00    +0.000 N 
ATOM      4  H   UNL     1       4.951   5.887  15.737  0.00  0.00    +0.000 HD
ENDROOT
BRANCH   3   5
ATOM      5  C   UNL     1       6.065   4.713  14.434  0.00  0.00    +0.000 A 
ATOM      6  C   UNL     1       7.278   5.172  13.922  0.00  0.00    +0.000 A 
ATOM      7  C   UNL     1       7.711   4.742  12.671  0.00  0.00    +0.000 A 
ATOM      8  C   UNL     1       6.902   3.899  11.911  0.00  0.00    +0.000 A 
ATOM      9  C   UNL     1       5.670   3.450  12.400  0.00  0.00    +0.000 A 
ATOM     10  C   UNL     1       5.252   3.859  13.668  0.00  0.00    +0.000 A 
BRANCH   9  11
ATOM     11  O   UNL     1       4.983   2.681  11.513  0.00  0.00    +0.000 OA
BRANCH  11  12
ATOM     12  C   UNL     1       3.754   3.124  10.964  0.00  0.00    +0.000 C 
ATOM     13  F   UNL     1       2.681   2.874  11.737  0.00  0.00    +0.000 F 
ATOM     14  F   UNL     1       3.823   4.449  10.712  0.00  0.00    +0.000 F 
ATOM     15  F   UNL     1       3.571   2.486   9.784  0.00  0.00    +0.000 F 
ENDBRANCH  11  12
ENDBRANCH   9  11
ENDBRANCH   3   5
BRANCH   1  16
ATOM     16  C   UNL     1       5.790   5.495  18.115  0.00  0.00    +0.000 C 
BRANCH  16  20
ATOM     17  C   UNL     1       3.900   1.128  18.526  0.00  0.00    +0.000 C 
ATOM     18  N   UNL     1       3.731   2.540  18.800  0.00  0.00    +0.000 N 
ATOM     19  N   UNL     1       4.712   3.378  18.345  0.00  0.00    +0.000 NA
ATOM     20  C   UNL     1       4.630   4.649  18.594  0.00  0.00    +0.000 A 
ATOM     21  C   UNL     1       3.473   5.264  19.286  0.00  0.00    +0.000 A 
ATOM     22  C   UNL     1       3.317   6.646  19.453  0.00  0.00    +0.000 A 
ATOM     23  C   UNL     1       2.191   7.145  20.115  0.00  0.00    +0.000 A 
ATOM     24  C   UNL     1       1.220   6.276  20.614  0.00  0.00    +0.000 A 
ATOM     25  C   UNL     1       1.375   4.901  20.445  0.00  0.00    +0.000 A 
ATOM     26  C   UNL     1       2.497   4.400  19.774  0.00  0.00    +0.000 A 
ATOM     27  C   UNL     1       2.631   2.950  19.547  0.00  0.00    +0.000 A 
ATOM     28  O   UNL     1       1.783   2.182  19.997  0.00  0.00    +0.000 OA
ENDBRANCH  16  20
ENDBRANCH   1  16
TORSDOF 5
ENDMDL
MODEL 8
REMARK VINA RESULT:      -7.9      5.280      8.103
REMARK  Name = 
REMARK  6 active torsions:
REMARK  status: ('A' for Active; 'I' for Inactive)
REMARK    1  A    between atoms: C_1  and  N_2
REMARK    2  A    between atoms: C_4  and  C_5
REMARK    3  A    between atoms: C_5  and  C_6
REMARK    4  A    between atoms: N_8  and  C_9
REMARK    5  A    between atoms: C_13  and  O_14
REMARK    6  A    between atoms: O_14  and  C_15
REMARK                            x       y       z     vdW  Elec       q    Type
REMARK                         _______ _______ _______ _____ _____    ______ ____
ROOT
ATOM      1  C   UNL     1       1.790   8.397  18.857  0.00  0.00    +0.000 C 
ATOM      2  O   UNL     1       1.696   8.322  17.633  0.00  0.00    +0.000 OA
ATOM      3  N   UNL     1       1.231   9.403  19.626  0.00  0.00    +0.000 N 
ATOM      4  H   UNL     1       1.658   9.571  20.534  0.00  0.00    +0.000 HD
ENDROOT
BRANCH   3   5
ATOM      5  C   UNL     1       0.427  10.435  19.100  0.00  0.00    +0.000 A 
ATOM      6  C   UNL     1       0.953  11.727  19.081  0.00  0.00    +0.000 A 
ATOM      7  C   UNL     1       0.198  12.776  18.565  0.00  0.00    +0.000 A 
ATOM      8  C   UNL     1      -1.101  12.541  18.120  0.00  0.00    +0.000 A 
ATOM      9  C   UNL     1      -1.652  11.255  18.156  0.00  0.00    +0.000 A 
ATOM     10  C   UNL     1      -0.882  10.198  18.647  0.00  0.00    +0.000 A 
BRANCH   9  11
ATOM     11  O   UNL     1      -2.946  11.208  17.737  0.00  0.00    +0.000 OA
BRANCH  11  12
ATOM     12  C   UNL     1      -3.274  10.744  16.438  0.00  0.00    +0.000 C 
ATOM     13  F   UNL     1      -2.477  11.220  15.464  0.00  0.00    +0.000 F 
ATOM     14  F   UNL     1      -3.244   9.394  16.419  0.00  0.00    +0.000 F 
ATOM     15  F   UNL     1      -4.540  11.137  16.164  0.00  0.00    +0.000 F 
ENDBRANCH  11  12
ENDBRANCH   9  11
ENDBRANCH   3   5
BRANCH   1  16
ATOM     16  C   UNL     1       2.528   7.347  19.635  0.00  0.00    +0.000 C 
BRANCH  16  20
ATOM     17  C   UNL     1       0.706   2.944  19.317  0.00  0.00    +0.000 C 
ATOM     18  N   UNL     1       1.702   3.870  18.819  0.00  0.00    +0.000 N 
ATOM     19  N   UNL     1       1.744   5.104  19.407  0.00  0.00    +0.000 NA
ATOM     20  C   UNL     1       2.593   5.986  18.977  0.00  0.00    +0.000 A 
ATOM     21  C   UNL     1       3.590   5.698  17.919  0.00  0.00    +0.000 A 
ATOM     22  C   UNL     1       4.588   6.601  17.531  0.00  0.00    +0.000 A 
ATOM     23  C   UNL     1       5.494   6.248  16.526  0.00  0.00    +0.000 A 
ATOM     24  C   UNL     1       5.411   5.002  15.902  0.00  0.00    +0.000 A 
ATOM     25  C   UNL     1       4.420   4.104  16.291  0.00  0.00    +0.000 A 
ATOM     26  C   UNL     1       3.518   4.451  17.304  0.00  0.00    +0.000 A 
ATOM     27  C   UNL     1       2.505   3.478  17.752  0.00  0.00    +0.000 A 
ATOM     28  O   UNL     1       2.422   2.386  17.196  0.00  0.00    +0.000 OA
ENDBRANCH  16  20
ENDBRANCH   1  16
TORSDOF 5
ENDMDL
MODEL 9
REMARK VINA RESULT:      -7.8      4.787      8.086
REMARK  Name = 
REMARK  6 active torsions:
REMARK  status: ('A' for Active; 'I' for Inactive)
REMARK    1  A    between atoms: C_1  and  N_2
REMARK    2  A    between atoms: C_4  and  C_5
REMARK    3  A    between atoms: C_5  and  C_6
REMARK    4  A    between atoms: N_8  and  C_9
REMARK    5  A    between atoms: C_13  and  O_14
REMARK    6  A    between atoms: O_14  and  C_15
REMARK                            x       y       z     vdW  Elec       q    Type
REMARK                         _______ _______ _______ _____ _____    ______ ____
ROOT
ATOM      1  C   UNL     1       2.486   4.729  18.100  0.00  0.00    +0.000 C 
ATOM      2  O   UNL     1       1.345   4.483  18.489  0.00  0.00    +0.000 OA
ATOM      3  N   UNL     1       3.046   5.994  18.060  0.00  0.00    +0.000 N 
ATOM      4  H   UNL     1       3.814   6.132  17.408  0.00  0.00    +0.000 HD
ENDROOT
BRANCH   3   5
ATOM      5  C   UNL     1       2.392   7.153  18.527  0.00  0.00    +0.000 A 
ATOM      6  C   UNL     1       2.052   8.132  17.592  0.00  0.00    +0.000 A 
ATOM      7  C   UNL     1       1.399   9.289  18.005  0.00  0.00    +0.000 A 
ATOM      8  C   UNL     1       1.139   9.492  19.359  0.00  0.00    +0.000 A 
ATOM      9  C   UNL     1       1.497   8.531  20.312  0.00  0.00    +0.000 A 
ATOM     10  C   UNL     1       2.125   7.357  19.891  0.00  0.00    +0.000 A 
BRANCH   9  11
ATOM     11  O   UNL     1       1.221   8.908  21.590  0.00  0.00    +0.000 OA
BRANCH  11  12
ATOM     12  C   UNL     1      -0.116   8.979  22.056  0.00  0.00    +0.000 C 
ATOM     13  F   UNL     1      -0.896   7.958  21.656  0.00  0.00    +0.000 F 
ATOM     14  F   UNL     1      -0.122   9.042  23.405  0.00  0.00    +0.000 F 
ATOM     15  F   UNL     1      -0.661  10.125  21.583  0.00  0.00    +0.000 F 
ENDBRANCH  11  12
ENDBRANCH   9  11
ENDBRANCH   3   5
BRANCH   1  16
ATOM     16  C   UNL     1       3.395   3.625  17.643  0.00  0.00    +0.000 C 
BRANCH  16  20
ATOM     17  C   UNL     1       5.770   3.987  13.516  0.00  0.00    +0.000 C 
ATOM     18  N   UNL     1       5.785   4.263  14.938  0.00  0.00    +0.000 N 
ATOM     19  N   UNL     1       4.708   3.829  15.660  0.00  0.00    +0.000 NA
ATOM     20  C   UNL     1       4.651   4.080  16.932  0.00  0.00    +0.000 A 
ATOM     21  C   UNL     1       5.744   4.753  17.672  0.00  0.00    +0.000 A 
ATOM     22  C   UNL     1       5.747   4.921  19.063  0.00  0.00    +0.000 A 
ATOM     23  C   UNL     1       6.822   5.564  19.684  0.00  0.00    +0.000 A 
ATOM     24  C   UNL     1       7.894   6.042  18.929  0.00  0.00    +0.000 A 
ATOM     25  C   UNL     1       7.892   5.872  17.546  0.00  0.00    +0.000 A 
ATOM     26  C   UNL     1       6.821   5.219  16.923  0.00  0.00    +0.000 A 
ATOM     27  C   UNL     1       6.846   4.991  15.467  0.00  0.00    +0.000 A 
ATOM     28  O   UNL     1       7.783   5.422  14.799  0.00  0.00    +0.000 OA
ENDBRANCH  16  20
ENDBRANCH   1  16
TORSDOF 5
ENDMDL
