MODEL 1
REMARK VINA RESULT:      -8.3      0.000      0.000
REMARK  Name = 
REMARK  5 active torsions:
REMARK  status: ('A' for Active; 'I' for Inactive)
REMARK    1  A    between atoms: C_8  and  C_9
REMARK    2  A    between atoms: C_9  and  C_10
REMARK    3  A    between atoms: C_13  and  C_14
REMARK    4  A    between atoms: C_14  and  N_15
REMARK    5  A    between atoms: C_18  and  C_19
REMARK                            x       y       z     vdW  Elec       q    Type
REMARK                         _______ _______ _______ _____ _____    ______ ____
ROOT
ATOM      1  C   UNL     1       4.418   4.090  17.516  0.00  0.00    +0.000 A 
ATOM      2  N   UNL     1       4.966   3.862  16.314  0.00  0.00    +0.000 NA
ATOM      3  O   UNL     1       6.299   4.235  16.485  0.00  0.00    +0.000 OA
ATOM      4  C   UNL     1       6.420   4.670  17.772  0.00  0.00    +0.000 A 
ATOM      5  N   UNL     1       5.302   4.564  18.460  0.00  0.00    +0.000 NA
ENDROOT
BRANCH   1   6
ATOM      6  C   UNL     1       2.952   4.050  17.752  0.00  0.00    +0.000 C 
BRANCH   6  14
ATOM      7  F   UNL     1       2.076   3.859  20.441  0.00  0.00    +0.000 F 
ATOM      8  C   UNL     1       2.120   5.083  19.898  0.00  0.00    +0.000 A 
ATOM      9  C   UNL     1       1.672   6.165  20.654  0.00  0.00    +0.000 A 
ATOM     10  C   UNL     1       1.674   7.444  20.100  0.00  0.00    +0.000 A 
ATOM     11  C   UNL     1       2.135   7.627  18.796  0.00  0.00    +0.000 A 
ATOM     12 BR   UNL     1       2.130   9.360  18.040  0.00  0.00    +0.000 Br
ATOM     13  C   UNL     1       2.584   6.542  18.039  0.00  0.00    +0.000 A 
ATOM     14  C   UNL     1       2.570   5.247  18.582  0.00  0.00    +0.000 A 
ENDBRANCH   6  14
ENDBRANCH   1   6
BRANCH   4  15
ATOM     15  C   UNL     1       7.747   5.170  18.178  0.00  0.00    +0.000 C 
BRANCH  15  16
ATOM     16  N   UNL     1       7.848   6.586  17.891  0.00  0.00    +0.000 N 
ATOM     17  N   UNL     1       7.071   7.160  16.955  0.00  0.00    +0.000 NA
ATOM     18  N   UNL     1       7.313   8.454  17.063  0.00  0.00    +0.000 NA
ATOM     19  C   UNL     1       8.214   8.618  18.092  0.00  0.00    +0.000 A 
ATOM     20  N   UNL     1       8.567   7.445  18.654  0.00  0.00    +0.000 NA
BRANCH  19  21
ATOM     21  C   UNL     1       8.673   9.943  18.501  0.00  0.00    +0.000 A 
ATOM     22  C   UNL     1       9.317  10.102  19.737  0.00  0.00    +0.000 A 
ATOM     23  C   UNL     1       9.765  11.356  20.161  0.00  0.00    +0.000 A 
ATOM     24  C   UNL     1       9.572  12.471  19.351  0.00  0.00    +0.000 A 
ATOM     25  C   UNL     1       8.934  12.332  18.118  0.00  0.00    +0.000 A 
ATOM     26  C   UNL     1       8.487  11.075  17.692  0.00  0.00    +0.000 A 
ENDBRANCH  19  21
ENDBRANCH  15  16
ENDBRANCH   4  15
TORSDOF 5
ENDMDL
MODEL 2
REMARK VINA RESULT:      -8.2      1.927      2.229
REMARK  Name = 
REMARK  5 active torsions:
REMARK  status: ('A' for Active; 'I' for Inactive)
REMARK    1  A    between atoms: C_8  and  C_9
REMARK    2  A    between atoms: C_9  and  C_10
REMARK    3  A    between atoms: C_13  and  C_14
REMARK    4  A    between atoms: C_14  and  N_15
REMARK    5  A    between atoms: C_18  and  C_19
REMARK                            x       y       z     vdW  Elec       q    Type
REMARK                         _______ _______ _______ _____ _____    ______ ____
ROOT
ATOM      1  C   UNL     1       5.332   4.523  17.255  0.00  0.00    +0.000 A 
ATOM      2  N   UNL     1       6.300   4.177  16.394  0.00  0.00    +0.000 NA
ATOM      3  O   UNL     1       7.453   4.712  16.963  0.00  0.00    +0.000 OA
ATOM      4  C   UNL     1       7.065   5.346  18.107  0.00  0.00    +0.000 A 
ATOM      5  N   UNL     1       5.777   5.226  18.353  0.00  0.00    +0.000 NA
ENDROOT
BRANCH   1   6
ATOM      6  C   UNL     1       3.887   4.362  16.949  0.00  0.00    +0.000 C 
BRANCH   6  14
ATOM      7  F   UNL     1       3.192   7.019  17.648  0.00  0.00    +0.000 F 
ATOM      8  C   UNL     1       2.808   6.046  18.486  0.00  0.00    +0.000 A 
ATOM      9  C   UNL     1       2.161   6.401  19.667  0.00  0.00    +0.000 A 
ATOM     10  C   UNL     1       1.781   5.411  20.572  0.00  0.00    +0.000 A 
ATOM     11  C   UNL     1       2.046   4.073  20.277  0.00  0.00    +0.000 A 
ATOM     12 BR   UNL     1       1.540   2.729  21.507  0.00  0.00    +0.000 Br
ATOM     13  C   UNL     1       2.696   3.718  19.091  0.00  0.00    +0.000 A 
ATOM     14  C   UNL     1       3.097   4.710  18.182  0.00  0.00    +0.000 A 
ENDBRANCH   6  14
ENDBRANCH   1   6
BRANCH   4  15
ATOM     15  C   UNL     1       8.121   6.041  18.867  0.00  0.00    +0.000 C 
BRANCH  15  16
ATOM     16  N   UNL     1       8.233   7.413  18.414  0.00  0.00    +0.000 N 
ATOM     17  N   UNL     1       7.494   7.863  17.384  0.00  0.00    +0.000 NA
ATOM     18  N   UNL     1       7.730   9.163  17.342  0.00  0.00    +0.000 NA
ATOM     19  C   UNL     1       8.588   9.456  18.379  0.00  0.00    +0.000 A 
ATOM     20  N   UNL     1       8.919   8.362  19.095  0.00  0.00    +0.000 NA
BRANCH  19  21
ATOM     21  C   UNL     1       9.029  10.824  18.641  0.00  0.00    +0.000 A 
ATOM     22  C   UNL     1       9.729  11.112  19.823  0.00  0.00    +0.000 A 
ATOM     23  C   UNL     1      10.162  12.410  20.106  0.00  0.00    +0.000 A 
ATOM     24  C   UNL     1       9.897  13.441  19.210  0.00  0.00    +0.000 A 
ATOM     25  C   UNL     1       9.203  13.173  18.029  0.00  0.00    +0.000 A 
ATOM     26  C   UNL     1       8.770  11.872  17.744  0.00  0.00    +0.000 A 
ENDBRANCH  19  21
ENDBRANCH  15  16
ENDBRANCH   4  15
TORSDOF 5
ENDMDL
MODEL 3
REMARK VINA RESULT:      -8.1      5.008      8.059
REMARK  Name = 
REMARK  5 active torsions:
REMARK  status: ('A' for Active; 'I' for Inactive)
REMARK    1  A    between atoms: C_8  and  C_9
REMARK    2  A    between atoms: C_9  and  C_10
REMARK    3  A    between atoms: C_13  and  C_14
REMARK    4  A    between atoms: C_14  and  N_15
REMARK    5  A    between atoms: C_18  and  C_19
REMARK                            x       y       z     vdW  Elec       q    Type
REMARK                         _______ _______ _______ _____ _____    ______ ____
ROOT
ATOM      1  C   UNL     1       2.714   5.438  18.674  0.00  0.00    +0.000 A 
ATOM      2  N   UNL     1       2.412   5.798  19.929  0.00  0.00    +0.000 NA
ATOM      3  O   UNL     1       2.265   7.182  19.848  0.00  0.00    +0.000 OA
ATOM      4  C   UNL     1       2.510   7.525  18.550  0.00  0.00    +0.000 A 
ATOM      5  N   UNL     1       2.753   6.485  17.779  0.00  0.00    +0.000 NA
ENDROOT
BRANCH   1   6
ATOM      6  C   UNL     1       3.183   4.074  18.318  0.00  0.00    +0.000 C 
BRANCH   6  14
ATOM      7  F   UNL     1       5.524   4.745  19.769  0.00  0.00    +0.000 F 
ATOM      8  C   UNL     1       5.657   4.548  18.450  0.00  0.00    +0.000 A 
ATOM      9  C   UNL     1       6.907   4.751  17.869  0.00  0.00    +0.000 A 
ATOM     10  C   UNL     1       7.065   4.587  16.494  0.00  0.00    +0.000 A 
ATOM     11  C   UNL     1       5.969   4.211  15.717  0.00  0.00    +0.000 A 
ATOM     12 BR   UNL     1       6.179   3.997  13.850  0.00  0.00    +0.000 Br
ATOM     13  C   UNL     1       4.716   4.008  16.301  0.00  0.00    +0.000 A 
ATOM     14  C   UNL     1       4.543   4.187  17.683  0.00  0.00    +0.000 A 
ENDBRANCH   6  14
ENDBRANCH   1   6
BRANCH   4  15
ATOM     15  C   UNL     1       2.462   8.963  18.227  0.00  0.00    +0.000 C 
BRANCH  15  16
ATOM     16  N   UNL     1       1.132   9.480  18.476  0.00  0.00    +0.000 N 
ATOM     17  N   UNL     1       0.844  10.125  19.620  0.00  0.00    +0.000 NA
ATOM     18  N   UNL     1      -0.384  10.582  19.450  0.00  0.00    +0.000 NA
ATOM     19  C   UNL     1      -0.784  10.219  18.183  0.00  0.00    +0.000 A 
ATOM     20  N   UNL     1       0.167   9.525  17.526  0.00  0.00    +0.000 NA
BRANCH  19  21
ATOM     21  C   UNL     1      -2.092  10.600  17.657  0.00  0.00    +0.000 A 
ATOM     22  C   UNL     1      -2.993  11.296  18.478  0.00  0.00    +0.000 A 
ATOM     23  C   UNL     1      -4.253  11.673  18.008  0.00  0.00    +0.000 A 
ATOM     24  C   UNL     1      -4.632  11.355  16.707  0.00  0.00    +0.000 A 
ATOM     25  C   UNL     1      -3.749  10.665  15.876  0.00  0.00    +0.000 A 
ATOM     26  C   UNL     1      -2.484  10.289  16.346  0.00  0.00    +0.000 A 
ENDBRANCH  19  21
ENDBRANCH  15  16
ENDBRANCH   4  15
TORSDOF 5
ENDMDL
MODEL 4
REMARK VINA RESULT:      -8.1      1.061      1.191
REMARK  Name = 
REMARK  5 active torsions:
REMARK  status: ('A' for Active; 'I' for Inactive)
REMARK    1  A    between atoms: C_8  and  C_9
REMARK    2  A    between atoms: C_9  and  C_10
REMARK    3  A    between atoms: C_13  and  C_14
REMARK    4  A    between atoms: C_14  and  N_15
REMARK    5  A    between atoms: C_18  and  C_19
REMARK                            x       y       z     vdW  Elec       q    Type
REMARK                         _______ _______ _______ _____ _____    ______ ____
ROOT
ATOM      1  C   UNL     1       4.095   5.006  18.517  0.00  0.00    +0.000 A 
ATOM      2  N   UNL     1       4.421   3.750  18.854  0.00  0.00    +0.000 NA
ATOM      3  O   UNL     1       5.812   3.782  18.939  0.00  0.00    +0.000 OA
ATOM      4  C   UNL     1       6.192   5.055  18.627  0.00  0.00    +0.000 A 
ATOM      5  N   UNL     1       5.172   5.857  18.398  0.00  0.00    +0.000 NA
ENDROOT
BRANCH   1   6
ATOM      6  C   UNL     1       2.726   5.396  18.093  0.00  0.00    +0.000 C 
BRANCH   6  14
ATOM      7  F   UNL     1       1.966   5.266  20.821  0.00  0.00    +0.000 F 
ATOM      8  C   UNL     1       1.916   6.467  20.228  0.00  0.00    +0.000 A 
ATOM      9  C   UNL     1       1.434   7.551  20.958  0.00  0.00    +0.000 A 
ATOM     10  C   UNL     1       1.338   8.805  20.356  0.00  0.00    +0.000 A 
ATOM     11  C   UNL     1       1.738   8.960  19.028  0.00  0.00    +0.000 A 
ATOM     12 BR   UNL     1       1.601  10.656  18.205  0.00  0.00    +0.000 Br
ATOM     13  C   UNL     1       2.222   7.872  18.296  0.00  0.00    +0.000 A 
ATOM     14  C   UNL     1       2.305   6.602  18.890  0.00  0.00    +0.000 A 
ENDBRANCH   6  14
ENDBRANCH   1   6
BRANCH   4  15
ATOM     15  C   UNL     1       7.642   5.323  18.600  0.00  0.00    +0.000 C 
BRANCH  15  16
ATOM     16  N   UNL     1       7.883   6.690  18.186  0.00  0.00    +0.000 N 
ATOM     17  N   UNL     1       7.324   7.183  17.067  0.00  0.00    +0.000 NA
ATOM     18  N   UNL     1       7.624   8.469  17.077  0.00  0.00    +0.000 NA
ATOM     19  C   UNL     1       8.335   8.715  18.232  0.00  0.00    +0.000 A 
ATOM     20  N   UNL     1       8.506   7.601  18.973  0.00  0.00    +0.000 NA
BRANCH  19  21
ATOM     21  C   UNL     1       8.796  10.058  18.573  0.00  0.00    +0.000 A 
ATOM     22  C   UNL     1       9.453  10.275  19.794  0.00  0.00    +0.000 A 
ATOM     23  C   UNL     1       9.904  11.547  20.154  0.00  0.00    +0.000 A 
ATOM     24  C   UNL     1       9.701  12.623  19.295  0.00  0.00    +0.000 A 
ATOM     25  C   UNL     1       9.050  12.427  18.076  0.00  0.00    +0.000 A 
ATOM     26  C   UNL     1       8.600  11.150  17.715  0.00  0.00    +0.000 A 
ENDBRANCH  19  21
ENDBRANCH  15  16
ENDBRANCH   4  15
TORSDOF 5
ENDMDL
MODEL 5
REMARK VINA RESULT:      -7.8      3.694      6.170
REMARK  Name = 
REMARK  5 active torsions:
REMARK  status: ('A' for Active; 'I' for Inactive)
REMARK    1  A    between atoms: C_8  and  C_9
REMARK    2  A    between atoms: C_9  and  C_10
REMARK    3  A    between atoms: C_13  and  C_14
REMARK    4  A    between atoms: C_14  and  N_15
REMARK    5  A    between atoms: C_18  and  C_19
REMARK                            x       y       z     vdW  Elec       q    Type
REMARK                         _______ _______ _______ _____ _____    ______ ____
ROOT
ATOM      1  C   UNL     1       3.962   4.554  18.707  0.00  0.00    +0.000 A 
ATOM      2  N   UNL     1       4.611   3.510  19.242  0.00  0.00    +0.000 NA
ATOM      3  O   UNL     1       5.910   3.647  18.757  0.00  0.00    +0.000 OA
ATOM      4  C   UNL     1       5.914   4.754  17.959  0.00  0.00    +0.000 A 
ATOM      5  N   UNL     1       4.751   5.370  17.926  0.00  0.00    +0.000 NA
ENDROOT
BRANCH   1   6
ATOM      6  C   UNL     1       2.484   4.698  18.763  0.00  0.00    +0.000 C 
BRANCH   6  14
ATOM      7  F   UNL     1       1.575   5.100  21.418  0.00  0.00    +0.000 F 
ATOM      8  C   UNL     1       1.689   6.185  20.640  0.00  0.00    +0.000 A 
ATOM      9  C   UNL     1       1.292   7.418  21.153  0.00  0.00    +0.000 A 
ATOM     10  C   UNL     1       1.367   8.557  20.353  0.00  0.00    +0.000 A 
ATOM     11  C   UNL     1       1.849   8.449  19.048  0.00  0.00    +0.000 A 
ATOM     12 BR   UNL     1       1.944   9.991  17.958  0.00  0.00    +0.000 Br
ATOM     13  C   UNL     1       2.247   7.212  18.534  0.00  0.00    +0.000 A 
ATOM     14  C   UNL     1       2.159   6.056  19.327  0.00  0.00    +0.000 A 
ENDBRANCH   6  14
ENDBRANCH   1   6
BRANCH   4  15
ATOM     15  C   UNL     1       7.185   5.076  17.284  0.00  0.00    +0.000 C 
BRANCH  15  16
ATOM     16  N   UNL     1       7.024   4.962  15.849  0.00  0.00    +0.000 N 
ATOM     17  N   UNL     1       7.820   5.645  15.007  0.00  0.00    +0.000 NA
ATOM     18  N   UNL     1       7.504   5.196  13.805  0.00  0.00    +0.000 NA
ATOM     19  C   UNL     1       6.539   4.226  13.971  0.00  0.00    +0.000 A 
ATOM     20  N   UNL     1       6.219   4.040  15.267  0.00  0.00    +0.000 NA
BRANCH  19  21
ATOM     21  C   UNL     1       5.988   3.496  12.833  0.00  0.00    +0.000 A 
ATOM     22  C   UNL     1       4.689   3.785  12.388  0.00  0.00    +0.000 A 
ATOM     23  C   UNL     1       4.129   3.103  11.304  0.00  0.00    +0.000 A 
ATOM     24  C   UNL     1       4.864   2.118  10.651  0.00  0.00    +0.000 A 
ATOM     25  C   UNL     1       6.158   1.818  11.079  0.00  0.00    +0.000 A 
ATOM     26  C   UNL     1       6.719   2.503  12.164  0.00  0.00    +0.000 A 
ENDBRANCH  19  21
ENDBRANCH  15  16
ENDBRANCH   4  15
TORSDOF 5
ENDMDL
MODEL 6
REMARK VINA RESULT:      -7.7      3.674      5.305
REMARK  Name = 
REMARK  5 active torsions:
REMARK  status: ('A' for Active; 'I' for Inactive)
REMARK    1  A    between atoms: C_8  and  C_9
REMARK    2  A    between atoms: C_9  and  C_10
REMARK    3  A    between atoms: C_13  and  C_14
REMARK    4  A    between atoms: C_14  and  N_15
REMARK    5  A    between atoms: C_18  and  C_19
REMARK                            x       y       z     vdW  Elec       q    Type
REMARK                         _______ _______ _______ _____ _____    ______ ____
ROOT
ATOM      1  C   UNL     1       3.476   4.539  20.034  0.00  0.00    +0.000 A 
ATOM      2  N   UNL     1       3.847   3.282  19.753  0.00  0.00    +0.000 NA
ATOM      3  O   UNL     1       5.192   3.405  19.409  0.00  0.00    +0.000 OA
ATOM      4  C   UNL     1       5.497   4.732  19.499  0.00  0.00    +0.000 A 
ATOM      5  N   UNL     1       4.488   5.467  19.918  0.00  0.00    +0.000 NA
ENDROOT
BRANCH   1   6
ATOM      6  C   UNL     1       2.058   4.933  20.235  0.00  0.00    +0.000 C 
BRANCH   6  14
ATOM      7  F   UNL     1       2.536   5.665  17.539  0.00  0.00    +0.000 F 
ATOM      8  C   UNL     1       2.153   6.637  18.378  0.00  0.00    +0.000 A 
ATOM      9  C   UNL     1       2.081   7.942  17.896  0.00  0.00    +0.000 A 
ATOM     10  C   UNL     1       1.719   8.978  18.756  0.00  0.00    +0.000 A 
ATOM     11  C   UNL     1       1.422   8.692  20.088  0.00  0.00    +0.000 A 
ATOM     12 BR   UNL     1       0.939  10.096  21.259  0.00  0.00    +0.000 Br
ATOM     13  C   UNL     1       1.494   7.382  20.571  0.00  0.00    +0.000 A 
ATOM     14  C   UNL     1       1.875   6.335  19.716  0.00  0.00    +0.000 A 
ENDBRANCH   6  14
ENDBRANCH   1   6
BRANCH   4  15
ATOM     15  C   UNL     1       6.871   5.119  19.128  0.00  0.00    +0.000 C 
BRANCH  15  16
ATOM     16  N   UNL     1       6.941   5.386  17.707  0.00  0.00    +0.000 N 
ATOM     17  N   UNL     1       7.611   6.453  17.235  0.00  0.00    +0.000 NA
ATOM     18  N   UNL     1       7.599   6.306  15.922  0.00  0.00    +0.000 NA
ATOM     19  C   UNL     1       6.942   5.127  15.648  0.00  0.00    +0.000 A 
ATOM     20  N   UNL     1       6.520   4.504  16.768  0.00  0.00    +0.000 NA
BRANCH  19  21
ATOM     21  C   UNL     1       6.780   4.643  14.280  0.00  0.00    +0.000 A 
ATOM     22  C   UNL     1       7.661   5.085  13.280  0.00  0.00    +0.000 A 
ATOM     23  C   UNL     1       7.533   4.645  11.960  0.00  0.00    +0.000 A 
ATOM     24  C   UNL     1       6.516   3.758  11.621  0.00  0.00    +0.000 A 
ATOM     25  C   UNL     1       5.631   3.307  12.601  0.00  0.00    +0.000 A 
ATOM     26  C   UNL     1       5.761   3.746  13.925  0.00  0.00    +0.000 A 
ENDBRANCH  19  21
ENDBRANCH  15  16
ENDBRANCH   4  15
TORSDOF 5
ENDMDL
MODEL 7
REMARK VINA RESULT:      -7.7      3.455      8.362
REMARK  Name = 
REMARK  5 active torsions:
REMARK  status: ('A' for Active; 'I' for Inactive)
REMARK    1  A    between atoms: C_8  and  C_9
REMARK    2  A    between atoms: C_9  and  C_10
REMARK    3  A    between atoms: C_13  and  C_14
REMARK    4  A    between atoms: C_14  and  N_15
REMARK    5  A    between atoms: C_18  and  C_19
REMARK                            x       y       z     vdW  Elec       q    Type
REMARK                         _______ _______ _______ _____ _____    ______ ____
ROOT
ATOM      1  C   UNL     1       8.720   9.553  18.742  0.00  0.00    +0.000 A 
ATOM      2  N   UNL     1       8.015   9.979  17.684  0.00  0.00    +0.000 NA
ATOM      3  O   UNL     1       7.485   8.807  17.149  0.00  0.00    +0.000 OA
ATOM      4  C   UNL     1       7.937   7.783  17.929  0.00  0.00    +0.000 A 
ATOM      5  N   UNL     1       8.669   8.191  18.945  0.00  0.00    +0.000 NA
ENDROOT
BRANCH   1   6
ATOM      6  C   UNL     1       9.651  10.432  19.495  0.00  0.00    +0.000 C 
BRANCH   6  14
ATOM      7  F   UNL     1      11.972  10.860  17.924  0.00  0.00    +0.000 F 
ATOM      8  C   UNL     1      11.064  11.845  17.954  0.00  0.00    +0.000 A 
ATOM      9  C   UNL     1      11.343  13.030  17.277  0.00  0.00    +0.000 A 
ATOM     10  C   UNL     1      10.431  14.083  17.320  0.00  0.00    +0.000 A 
ATOM     11  C   UNL     1       9.242  13.933  18.035  0.00  0.00    +0.000 A 
ATOM     12 BR   UNL     1       8.007  15.363  18.102  0.00  0.00    +0.000 Br
ATOM     13  C   UNL     1       8.962  12.743  18.713  0.00  0.00    +0.000 A 
ATOM     14  C   UNL     1       9.883  11.683  18.689  0.00  0.00    +0.000 A 
ENDBRANCH   6  14
ENDBRANCH   1   6
BRANCH   4  15
ATOM     15  C   UNL     1       7.543   6.420  17.524  0.00  0.00    +0.000 C 
BRANCH  15  16
ATOM     16  N   UNL     1       6.145   6.200  17.833  0.00  0.00    +0.000 N 
ATOM     17  N   UNL     1       5.180   6.561  16.968  0.00  0.00    +0.000 NA
ATOM     18  N   UNL     1       4.064   6.085  17.489  0.00  0.00    +0.000 NA
ATOM     19  C   UNL     1       4.404   5.418  18.646  0.00  0.00    +0.000 A 
ATOM     20  N   UNL     1       5.729   5.459  18.889  0.00  0.00    +0.000 NA
BRANCH  19  21
ATOM     21  C   UNL     1       3.399   4.737  19.458  0.00  0.00    +0.000 A 
ATOM     22  C   UNL     1       3.601   3.400  19.834  0.00  0.00    +0.000 A 
ATOM     23  C   UNL     1       2.659   2.718  20.608  0.00  0.00    +0.000 A 
ATOM     24  C   UNL     1       1.496   3.365  21.014  0.00  0.00    +0.000 A 
ATOM     25  C   UNL     1       1.277   4.695  20.651  0.00  0.00    +0.000 A 
ATOM     26  C   UNL     1       2.223   5.379  19.877  0.00  0.00    +0.000 A 
ENDBRANCH  19  21
ENDBRANCH  15  16
ENDBRANCH   4  15
TORSDOF 5
ENDMDL
MODEL 8
REMARK VINA RESULT:      -7.6      3.384      8.274
REMARK  Name = 
REMARK  5 active torsions:
REMARK  status: ('A' for Active; 'I' for Inactive)
REMARK    1  A    between atoms: C_8  and  C_9
REMARK    2  A    between atoms: C_9  and  C_10
REMARK    3  A    between atoms: C_13  and  C_14
REMARK    4  A    between atoms: C_14  and  N_15
REMARK    5  A    between atoms: C_18  and  C_19
REMARK                            x       y       z     vdW  Elec       q    Type
REMARK                         _______ _______ _______ _____ _____    ______ ____
ROOT
ATOM      1  C   UNL     1       8.559   9.402  18.699  0.00  0.00    +0.000 A 
ATOM      2  N   UNL     1       7.727   9.940  17.797  0.00  0.00    +0.000 NA
ATOM      3  O   UNL     1       7.205   8.832  17.130  0.00  0.00    +0.000 OA
ATOM      4  C   UNL     1       7.789   7.732  17.686  0.00  0.00    +0.000 A 
ATOM      5  N   UNL     1       8.601   8.025  18.681  0.00  0.00    +0.000 NA
ENDROOT
BRANCH   1   6
ATOM      6  C   UNL     1       9.517  10.213  19.494  0.00  0.00    +0.000 C 
BRANCH   6  14
ATOM      7  F   UNL     1      11.081  10.941  17.245  0.00  0.00    +0.000 F 
ATOM      8  C   UNL     1      10.362  11.909  17.829  0.00  0.00    +0.000 A 
ATOM      9  C   UNL     1      10.478  13.210  17.345  0.00  0.00    +0.000 A 
ATOM     10  C   UNL     1       9.767  14.242  17.956  0.00  0.00    +0.000 A 
ATOM     11  C   UNL     1       8.938  13.956  19.040  0.00  0.00    +0.000 A 
ATOM     12 BR   UNL     1       7.979  15.355  19.876  0.00  0.00    +0.000 Br
ATOM     13  C   UNL     1       8.821  12.650  19.525  0.00  0.00    +0.000 A 
ATOM     14  C   UNL     1       9.547  11.607  18.927  0.00  0.00    +0.000 A 
ENDBRANCH   6  14
ENDBRANCH   1   6
BRANCH   4  15
ATOM     15  C   UNL     1       7.427   6.426  17.103  0.00  0.00    +0.000 C 
BRANCH  15  16
ATOM     16  N   UNL     1       6.545   5.712  18.003  0.00  0.00    +0.000 N 
ATOM     17  N   UNL     1       6.954   5.355  19.234  0.00  0.00    +0.000 NA
ATOM     18  N   UNL     1       5.874   4.871  19.821  0.00  0.00    +0.000 NA
ATOM     19  C   UNL     1       4.834   4.985  18.925  0.00  0.00    +0.000 A 
ATOM     20  N   UNL     1       5.224   5.532  17.756  0.00  0.00    +0.000 NA
BRANCH  19  21
ATOM     21  C   UNL     1       3.478   4.569  19.272  0.00  0.00    +0.000 A 
ATOM     22  C   UNL     1       2.859   3.544  18.540  0.00  0.00    +0.000 A 
ATOM     23  C   UNL     1       1.561   3.124  18.843  0.00  0.00    +0.000 A 
ATOM     24  C   UNL     1       0.862   3.728  19.885  0.00  0.00    +0.000 A 
ATOM     25  C   UNL     1       1.462   4.748  20.624  0.00  0.00    +0.000 A 
ATOM     26  C   UNL     1       2.764   5.167  20.321  0.00  0.00    +0.000 A 
ENDBRANCH  19  21
ENDBRANCH  15  16
ENDBRANCH   4  15
TORSDOF 5
ENDMDL
MODEL 9
REMARK VINA RESULT:      -7.6      1.907      2.525
REMARK  Name = 
REMARK  5 active torsions:
REMARK  status: ('A' for Active; 'I' for Inactive)
REMARK    1  A    between atoms: C_8  and  C_9
REMARK    2  A    between atoms: C_9  and  C_10
REMARK    3  A    between atoms: C_13  and  C_14
REMARK    4  A    between atoms: C_14  and  N_15
REMARK    5  A    between atoms: C_18  and  C_19
REMARK                            x       y       z     vdW  Elec       q    Type
REMARK                         _______ _______ _______ _____ _____    ______ ____
ROOT
ATOM      1  C   UNL     1       4.108   5.599  18.864  0.00  0.00    +0.000 A 
ATOM      2  N   UNL     1       4.509   4.767  19.835  0.00  0.00    +0.000 NA
ATOM      3  O   UNL     1       5.899   4.786  19.732  0.00  0.00    +0.000 OA
ATOM      4  C   UNL     1       6.201   5.617  18.693  0.00  0.00    +0.000 A 
ATOM      5  N   UNL     1       5.138   6.173  18.150  0.00  0.00    +0.000 NA
ENDROOT
BRANCH   1   6
ATOM      6  C   UNL     1       2.688   5.721  18.444  0.00  0.00    +0.000 C 
BRANCH   6  14
ATOM      7  F   UNL     1       2.816   7.929  16.671  0.00  0.00    +0.000 F 
ATOM      8  C   UNL     1       2.316   8.155  17.894  0.00  0.00    +0.000 A 
ATOM      9  C   UNL     1       1.960   9.457  18.238  0.00  0.00    +0.000 A 
ATOM     10  C   UNL     1       1.470   9.726  19.515  0.00  0.00    +0.000 A 
ATOM     11  C   UNL     1       1.333   8.682  20.431  0.00  0.00    +0.000 A 
ATOM     12 BR   UNL     1       0.678   9.045  22.167  0.00  0.00    +0.000 Br
ATOM     13  C   UNL     1       1.691   7.376  20.085  0.00  0.00    +0.000 A 
ATOM     14  C   UNL     1       2.201   7.099  18.806  0.00  0.00    +0.000 A 
ENDBRANCH   6  14
ENDBRANCH   1   6
BRANCH   4  15
ATOM     15  C   UNL     1       7.630   5.759  18.355  0.00  0.00    +0.000 C 
BRANCH  15  16
ATOM     16  N   UNL     1       7.941   7.152  18.108  0.00  0.00    +0.000 N 
ATOM     17  N   UNL     1       7.353   7.824  17.103  0.00  0.00    +0.000 NA
ATOM     18  N   UNL     1       7.743   9.077  17.260  0.00  0.00    +0.000 NA
ATOM     19  C   UNL     1       8.538   9.119  18.385  0.00  0.00    +0.000 A 
ATOM     20  N   UNL     1       8.674   7.908  18.961  0.00  0.00    +0.000 NA
BRANCH  19  21
ATOM     21  C   UNL     1       9.113  10.373  18.866  0.00  0.00    +0.000 A 
ATOM     22  C   UNL     1       9.269  11.448  17.979  0.00  0.00    +0.000 A 
ATOM     23  C   UNL     1       9.819  12.660  18.405  0.00  0.00    +0.000 A 
ATOM     24  C   UNL     1      10.224  12.811  19.728  0.00  0.00    +0.000 A 
ATOM     25  C   UNL     1      10.075  11.753  20.625  0.00  0.00    +0.000 A 
ATOM     26  C   UNL     1       9.522  10.538  20.198  0.00  0.00    +0.000 A 
ENDBRANCH  19  21
ENDBRANCH  15  16
ENDBRANCH   4  15
TORSDOF 5
ENDMDL
