MODEL 1
REMARK VINA RESULT:      -8.8      0.000      0.000
REMARK  Name = 
REMARK  3 active torsions:
REMARK  status: ('A' for Active; 'I' for Inactive)
REMARK    1  A    between atoms: C_1  and  C_2
REMARK    2  A    between atoms: C_2  and  N_3
REMARK    3  A    between atoms: C_4  and  C_6
REMARK                            x       y       z     vdW  Elec       q    Type
REMARK                         _______ _______ _______ _____ _____    ______ ____
ROOT
ATOM      1  N   UNL     1       3.373   6.964  18.024  0.00  0.00    +0.000 N 
ATOM      2  C   UNL     1       2.685   7.249  19.175  0.00  0.00    +0.000 C 
ATOM      3  O   UNL     1       2.823   6.592  20.204  0.00  0.00    +0.000 OA
ATOM      4  H   UNL     1       3.122   7.446  17.172  0.00  0.00    +0.000 HD
ENDROOT
BRANCH   2   5
ATOM      5  C   UNL     1       1.607   8.287  19.067  0.00  0.00    +0.000 A 
ATOM      6  C   UNL     1       1.668   8.900  17.870  0.00  0.00    +0.000 A 
ATOM      7  N   UNL     1       1.468  10.249  17.761  0.00  0.00    +0.000 N 
ATOM      8  C   UNL     1       1.362  11.063  18.867  0.00  0.00    +0.000 A 
ATOM      9  O   UNL     1       1.560  12.277  18.803  0.00  0.00    +0.000 OA
ATOM     10  C   UNL     1       0.950  10.405  20.124  0.00  0.00    +0.000 A 
ATOM     11  C   UNL     1       0.461  11.178  21.180  0.00  0.00    +0.000 A 
ATOM     12  C   UNL     1      -0.166  10.550  22.250  0.00  0.00    +0.000 A 
ATOM     13  C   UNL     1      -0.304   9.160  22.251  0.00  0.00    +0.000 A 
ATOM     14  C   UNL     1       0.258   8.385  21.223  0.00  0.00    +0.000 A 
ATOM     15  C   UNL     1       0.940   9.005  20.168  0.00  0.00    +0.000 A 
ATOM     16  H   UNL     1       1.758  10.720  16.909  0.00  0.00    +0.000 HD
ENDBRANCH   2   5
BRANCH   1  18
ATOM     17  C   UNL     1       4.685   5.617  16.406  0.00  0.00    +0.000 C 
ATOM     18  C   UNL     1       4.191   5.742  17.864  0.00  0.00    +0.000 C 
ATOM     19  C   UNL     1       5.379   5.774  18.853  0.00  0.00    +0.000 C 
ATOM     20  C   UNL     1       6.006   4.396  18.966  0.00  0.00    +0.000 C 
ATOM     21  O   UNL     1       5.092   3.450  19.519  0.00  0.00    +0.000 OA
ATOM     22  C   UNL     1       3.829   3.485  18.992  0.00  0.00    +0.000 A 
ATOM     23  C   UNL     1       3.017   2.403  19.338  0.00  0.00    +0.000 A 
ATOM     24  C   UNL     1       1.705   2.332  18.876  0.00  0.00    +0.000 A 
ATOM     25  C   UNL     1       1.207   3.336  18.052  0.00  0.00    +0.000 A 
ATOM     26  C   UNL     1       2.016   4.417  17.702  0.00  0.00    +0.000 A 
ATOM     27  C   UNL     1       3.331   4.523  18.191  0.00  0.00    +0.000 A 
ENDBRANCH   1  18
TORSDOF 2
ENDMDL
MODEL 2
REMARK VINA RESULT:      -8.4      1.419      2.802
REMARK  Name = 
REMARK  3 active torsions:
REMARK  status: ('A' for Active; 'I' for Inactive)
REMARK    1  A    between atoms: C_1  and  C_2
REMARK    2  A    between atoms: C_2  and  N_3
REMARK    3  A    between atoms: C_4  and  C_6
REMARK                            x       y       z     vdW  Elec       q    Type
REMARK                         _______ _______ _______ _____ _____    ______ ____
ROOT
ATOM      1  N   UNL     1       2.657   7.159  18.400  0.00  0.00    +0.000 N 
ATOM      2  C   UNL     1       2.008   7.807  19.420  0.00  0.00    +0.000 C 
ATOM      3  O   UNL     1       1.854   7.300  20.528  0.00  0.00    +0.000 OA
ATOM      4  H   UNL     1       2.636   7.562  17.473  0.00  0.00    +0.000 HD
ENDROOT
BRANCH   2   5
ATOM      5  C   UNL     1       1.325   9.094  19.062  0.00  0.00    +0.000 A 
ATOM      6  C   UNL     1       1.751   9.532  17.863  0.00  0.00    +0.000 A 
ATOM      7  N   UNL     1       1.986  10.861  17.646  0.00  0.00    +0.000 N 
ATOM      8  C   UNL     1       1.961  11.785  18.667  0.00  0.00    +0.000 A 
ATOM      9  O   UNL     1       2.524  12.877  18.572  0.00  0.00    +0.000 OA
ATOM     10  C   UNL     1       1.182  11.411  19.865  0.00  0.00    +0.000 A 
ATOM     11  C   UNL     1       0.792  12.400  20.772  0.00  0.00    +0.000 A 
ATOM     12  C   UNL     1      -0.152  12.097  21.746  0.00  0.00    +0.000 A 
ATOM     13  C   UNL     1      -0.701  10.814  21.800  0.00  0.00    +0.000 A 
ATOM     14  C   UNL     1      -0.248   9.805  20.934  0.00  0.00    +0.000 A 
ATOM     15  C   UNL     1       0.744  10.086  19.985  0.00  0.00    +0.000 A 
ATOM     16  H   UNL     1       2.532  11.136  16.833  0.00  0.00    +0.000 HD
ENDBRANCH   2   5
BRANCH   1  18
ATOM     17  C   UNL     1       3.483   5.387  19.926  0.00  0.00    +0.000 C 
ATOM     18  C   UNL     1       3.058   5.738  18.483  0.00  0.00    +0.000 C 
ATOM     19  C   UNL     1       1.892   4.837  18.012  0.00  0.00    +0.000 C 
ATOM     20  C   UNL     1       2.392   3.430  17.741  0.00  0.00    +0.000 C 
ATOM     21  O   UNL     1       3.333   3.407  16.669  0.00  0.00    +0.000 OA
ATOM     22  C   UNL     1       4.296   4.378  16.719  0.00  0.00    +0.000 A 
ATOM     23  C   UNL     1       5.357   4.200  15.829  0.00  0.00    +0.000 A 
ATOM     24  C   UNL     1       6.393   5.131  15.774  0.00  0.00    +0.000 A 
ATOM     25  C   UNL     1       6.377   6.234  16.622  0.00  0.00    +0.000 A 
ATOM     26  C   UNL     1       5.320   6.412  17.515  0.00  0.00    +0.000 A 
ATOM     27  C   UNL     1       4.248   5.502  17.556  0.00  0.00    +0.000 A 
ENDBRANCH   1  18
TORSDOF 2
ENDMDL
MODEL 3
REMARK VINA RESULT:      -8.2      2.097      3.315
REMARK  Name = 
REMARK  3 active torsions:
REMARK  status: ('A' for Active; 'I' for Inactive)
REMARK    1  A    between atoms: C_1  and  C_2
REMARK    2  A    between atoms: C_2  and  N_3
REMARK    3  A    between atoms: C_4  and  C_6
REMARK                            x       y       z     vdW  Elec       q    Type
REMARK                         _______ _______ _______ _____ _____    ______ ____
ROOT
ATOM      1  N   UNL     1       2.636   7.599  17.948  0.00  0.00    +0.000 N 
ATOM      2  C   UNL     1       1.895   8.430  18.748  0.00  0.00    +0.000 C 
ATOM      3  O   UNL     1       1.537   8.108  19.879  0.00  0.00    +0.000 OA
ATOM      4  H   UNL     1       2.786   7.857  16.982  0.00  0.00    +0.000 HD
ENDROOT
BRANCH   2   5
ATOM      5  C   UNL     1       1.377   9.684  18.107  0.00  0.00    +0.000 A 
ATOM      6  C   UNL     1       2.377  10.567  17.934  0.00  0.00    +0.000 A 
ATOM      7  N   UNL     1       2.182  11.902  18.162  0.00  0.00    +0.000 N 
ATOM      8  C   UNL     1       1.024  12.384  18.731  0.00  0.00    +0.000 A 
ATOM      9  O   UNL     1       0.978  13.486  19.279  0.00  0.00    +0.000 OA
ATOM     10  C   UNL     1      -0.172  11.525  18.605  0.00  0.00    +0.000 A 
ATOM     11  C   UNL     1      -1.440  12.074  18.807  0.00  0.00    +0.000 A 
ATOM     12  C   UNL     1      -2.564  11.344  18.436  0.00  0.00    +0.000 A 
ATOM     13  C   UNL     1      -2.409  10.081  17.859  0.00  0.00    +0.000 A 
ATOM     14  C   UNL     1      -1.134   9.506  17.730  0.00  0.00    +0.000 A 
ATOM     15  C   UNL     1       0.001  10.210  18.152  0.00  0.00    +0.000 A 
ATOM     16  H   UNL     1       2.994  12.505  18.265  0.00  0.00    +0.000 HD
ENDBRANCH   2   5
BRANCH   1  18
ATOM     17  C   UNL     1       3.214   6.057  19.803  0.00  0.00    +0.000 C 
ATOM     18  C   UNL     1       2.906   6.187  18.295  0.00  0.00    +0.000 C 
ATOM     19  C   UNL     1       1.696   5.310  17.897  0.00  0.00    +0.000 C 
ATOM     20  C   UNL     1       2.086   3.843  17.901  0.00  0.00    +0.000 C 
ATOM     21  O   UNL     1       3.083   3.565  16.918  0.00  0.00    +0.000 OA
ATOM     22  C   UNL     1       4.122   4.454  16.876  0.00  0.00    +0.000 A 
ATOM     23  C   UNL     1       5.214   4.046  16.106  0.00  0.00    +0.000 A 
ATOM     24  C   UNL     1       6.328   4.873  15.973  0.00  0.00    +0.000 A 
ATOM     25  C   UNL     1       6.359   6.102  16.623  0.00  0.00    +0.000 A 
ATOM     26  C   UNL     1       5.271   6.511  17.394  0.00  0.00    +0.000 A 
ATOM     27  C   UNL     1       4.123   5.706  17.509  0.00  0.00    +0.000 A 
ENDBRANCH   1  18
TORSDOF 2
ENDMDL
MODEL 4
REMARK VINA RESULT:      -8.1      2.954      6.668
REMARK  Name = 
REMARK  3 active torsions:
REMARK  status: ('A' for Active; 'I' for Inactive)
REMARK    1  A    between atoms: C_1  and  C_2
REMARK    2  A    between atoms: C_2  and  N_3
REMARK    3  A    between atoms: C_4  and  C_6
REMARK                            x       y       z     vdW  Elec       q    Type
REMARK                         _______ _______ _______ _____ _____    ______ ____
ROOT
ATOM      1  N   UNL     1       3.793   3.851  17.935  0.00  0.00    +0.000 N 
ATOM      2  C   UNL     1       4.939   3.861  18.687  0.00  0.00    +0.000 C 
ATOM      3  O   UNL     1       4.928   3.701  19.906  0.00  0.00    +0.000 OA
ATOM      4  H   UNL     1       3.844   4.122  16.963  0.00  0.00    +0.000 HD
ENDROOT
BRANCH   2   5
ATOM      5  C   UNL     1       6.197   4.267  17.978  0.00  0.00    +0.000 A 
ATOM      6  C   UNL     1       6.991   4.975  18.803  0.00  0.00    +0.000 A 
ATOM      7  N   UNL     1       7.676   6.068  18.349  0.00  0.00    +0.000 N 
ATOM      8  C   UNL     1       7.466   6.593  17.093  0.00  0.00    +0.000 A 
ATOM      9  O   UNL     1       7.771   7.753  16.812  0.00  0.00    +0.000 OA
ATOM     10  C   UNL     1       6.898   5.671  16.088  0.00  0.00    +0.000 A 
ATOM     11  C   UNL     1       6.997   5.984  14.730  0.00  0.00    +0.000 A 
ATOM     12  C   UNL     1       6.705   5.008  13.784  0.00  0.00    +0.000 A 
ATOM     13  C   UNL     1       6.325   3.731  14.203  0.00  0.00    +0.000 A 
ATOM     14  C   UNL     1       6.153   3.448  15.568  0.00  0.00    +0.000 A 
ATOM     15  C   UNL     1       6.392   4.441  16.527  0.00  0.00    +0.000 A 
ATOM     16  H   UNL     1       8.061   6.721  19.027  0.00  0.00    +0.000 HD
ENDBRANCH   2   5
BRANCH   1  18
ATOM     17  C   UNL     1       1.376   3.574  17.452  0.00  0.00    +0.000 C 
ATOM     18  C   UNL     1       2.442   3.837  18.538  0.00  0.00    +0.000 C 
ATOM     19  C   UNL     1       2.377   2.766  19.651  0.00  0.00    +0.000 C 
ATOM     20  C   UNL     1       1.148   2.980  20.515  0.00  0.00    +0.000 C 
ATOM     21  O   UNL     1       1.206   4.227  21.206  0.00  0.00    +0.000 OA
ATOM     22  C   UNL     1       1.587   5.297  20.444  0.00  0.00    +0.000 A 
ATOM     23  C   UNL     1       1.394   6.544  21.042  0.00  0.00    +0.000 A 
ATOM     24  C   UNL     1       1.759   7.710  20.371  0.00  0.00    +0.000 A 
ATOM     25  C   UNL     1       2.301   7.631  19.093  0.00  0.00    +0.000 A 
ATOM     26  C   UNL     1       2.493   6.388  18.491  0.00  0.00    +0.000 A 
ATOM     27  C   UNL     1       2.166   5.199  19.170  0.00  0.00    +0.000 A 
ENDBRANCH   1  18
TORSDOF 2
ENDMDL
MODEL 5
REMARK VINA RESULT:      -8.1      1.043      1.199
REMARK  Name = 
REMARK  3 active torsions:
REMARK  status: ('A' for Active; 'I' for Inactive)
REMARK    1  A    between atoms: C_1  and  C_2
REMARK    2  A    between atoms: C_2  and  N_3
REMARK    3  A    between atoms: C_4  and  C_6
REMARK                            x       y       z     vdW  Elec       q    Type
REMARK                         _______ _______ _______ _____ _____    ______ ____
ROOT
ATOM      1  N   UNL     1       2.549   6.131  17.976  0.00  0.00    +0.000 N 
ATOM      2  C   UNL     1       2.572   7.040  19.002  0.00  0.00    +0.000 C 
ATOM      3  O   UNL     1       3.280   6.893  19.996  0.00  0.00    +0.000 OA
ATOM      4  H   UNL     1       1.852   6.230  17.251  0.00  0.00    +0.000 HD
ENDROOT
BRANCH   2   5
ATOM      5  C   UNL     1       1.548   8.135  18.945  0.00  0.00    +0.000 A 
ATOM      6  C   UNL     1       1.614   8.775  17.764  0.00  0.00    +0.000 A 
ATOM      7  N   UNL     1       1.481  10.135  17.695  0.00  0.00    +0.000 N 
ATOM      8  C   UNL     1       1.441  10.923  18.823  0.00  0.00    +0.000 A 
ATOM      9  O   UNL     1       1.700  12.127  18.786  0.00  0.00    +0.000 OA
ATOM     10  C   UNL     1       1.024  10.254  20.072  0.00  0.00    +0.000 A 
ATOM     11  C   UNL     1       0.598  11.022  21.158  0.00  0.00    +0.000 A 
ATOM     12  C   UNL     1      -0.037  10.398  22.226  0.00  0.00    +0.000 A 
ATOM     13  C   UNL     1      -0.247   9.017  22.194  0.00  0.00    +0.000 A 
ATOM     14  C   UNL     1       0.252   8.243  21.134  0.00  0.00    +0.000 A 
ATOM     15  C   UNL     1       0.942   8.855  20.080  0.00  0.00    +0.000 A 
ATOM     16  H   UNL     1       1.777  10.613  16.848  0.00  0.00    +0.000 HD
ENDBRANCH   2   5
BRANCH   1  18
ATOM     17  C   UNL     1       2.988   4.014  16.760  0.00  0.00    +0.000 C 
ATOM     18  C   UNL     1       3.222   4.816  18.059  0.00  0.00    +0.000 C 
ATOM     19  C   UNL     1       4.732   5.017  18.324  0.00  0.00    +0.000 C 
ATOM     20  C   UNL     1       5.364   3.711  18.772  0.00  0.00    +0.000 C 
ATOM     21  O   UNL     1       4.826   3.271  20.018  0.00  0.00    +0.000 OA
ATOM     22  C   UNL     1       3.463   3.333  20.117  0.00  0.00    +0.000 A 
ATOM     23  C   UNL     1       2.922   2.667  21.220  0.00  0.00    +0.000 A 
ATOM     24  C   UNL     1       1.546   2.671  21.438  0.00  0.00    +0.000 A 
ATOM     25  C   UNL     1       0.706   3.328  20.546  0.00  0.00    +0.000 A 
ATOM     26  C   UNL     1       1.242   3.992  19.442  0.00  0.00    +0.000 A 
ATOM     27  C   UNL     1       2.633   4.029  19.227  0.00  0.00    +0.000 A 
ENDBRANCH   1  18
TORSDOF 2
ENDMDL
MODEL 6
REMARK VINA RESULT:      -8.1      2.099      3.618
REMARK  Name = 
REMARK  3 active torsions:
REMARK  status: ('A' for Active; 'I' for Inactive)
REMARK    1  A    between atoms: C_1  and  C_2
REMARK    2  A    between atoms: C_2  and  N_3
REMARK    3  A    between atoms: C_4  and  C_6
REMARK                            x       y       z     vdW  Elec       q    Type
REMARK                         _______ _______ _______ _____ _____    ______ ____
ROOT
ATOM      1  N   UNL     1       3.049   6.341  19.800  0.00  0.00    +0.000 N 
ATOM      2  C   UNL     1       1.926   6.689  20.506  0.00  0.00    +0.000 C 
ATOM      3  O   UNL     1       1.070   5.868  20.827  0.00  0.00    +0.000 OA
ATOM      4  H   UNL     1       3.649   7.072  19.445  0.00  0.00    +0.000 HD
ENDROOT
BRANCH   2   5
ATOM      5  C   UNL     1       1.694   8.158  20.706  0.00  0.00    +0.000 A 
ATOM      6  C   UNL     1       1.840   8.481  22.004  0.00  0.00    +0.000 A 
ATOM      7  N   UNL     1       0.996   9.375  22.604  0.00  0.00    +0.000 N 
ATOM      8  C   UNL     1      -0.129   9.855  21.970  0.00  0.00    +0.000 A 
ATOM      9  O   UNL     1      -1.073  10.339  22.598  0.00  0.00    +0.000 OA
ATOM     10  C   UNL     1      -0.120   9.801  20.494  0.00  0.00    +0.000 A 
ATOM     11  C   UNL     1      -1.020  10.585  19.769  0.00  0.00    +0.000 A 
ATOM     12  C   UNL     1      -0.840  10.736  18.399  0.00  0.00    +0.000 A 
ATOM     13  C   UNL     1       0.239  10.111  17.770  0.00  0.00    +0.000 A 
ATOM     14  C   UNL     1       1.094   9.263  18.493  0.00  0.00    +0.000 A 
ATOM     15  C   UNL     1       0.889   9.060  19.864  0.00  0.00    +0.000 A 
ATOM     16  H   UNL     1       0.966   9.415  23.619  0.00  0.00    +0.000 HD
ENDBRANCH   2   5
BRANCH   1  18
ATOM     17  C   UNL     1       3.110   3.911  20.296  0.00  0.00    +0.000 C 
ATOM     18  C   UNL     1       3.235   4.999  19.207  0.00  0.00    +0.000 C 
ATOM     19  C   UNL     1       2.201   4.778  18.078  0.00  0.00    +0.000 C 
ATOM     20  C   UNL     1       2.600   3.587  17.225  0.00  0.00    +0.000 C 
ATOM     21  O   UNL     1       3.837   3.818  16.552  0.00  0.00    +0.000 OA
ATOM     22  C   UNL     1       4.831   4.351  17.328  0.00  0.00    +0.000 A 
ATOM     23  C   UNL     1       6.102   4.334  16.749  0.00  0.00    +0.000 A 
ATOM     24  C   UNL     1       7.193   4.863  17.435  0.00  0.00    +0.000 A 
ATOM     25  C   UNL     1       7.019   5.395  18.707  0.00  0.00    +0.000 A 
ATOM     26  C   UNL     1       5.752   5.411  19.290  0.00  0.00    +0.000 A 
ATOM     27  C   UNL     1       4.632   4.915  18.596  0.00  0.00    +0.000 A 
ENDBRANCH   1  18
TORSDOF 2
ENDMDL
MODEL 7
REMARK VINA RESULT:      -7.7      1.131      1.153
REMARK  Name = 
REMARK  3 active torsions:
REMARK  status: ('A' for Active; 'I' for Inactive)
REMARK    1  A    between atoms: C_1  and  C_2
REMARK    2  A    between atoms: C_2  and  N_3
REMARK    3  A    between atoms: C_4  and  C_6
REMARK                            x       y       z     vdW  Elec       q    Type
REMARK                         _______ _______ _______ _____ _____    ______ ____
ROOT
ATOM      1  N   UNL     1       2.689   6.506  18.102  0.00  0.00    +0.000 N 
ATOM      2  C   UNL     1       2.630   7.873  18.005  0.00  0.00    +0.000 C 
ATOM      3  O   UNL     1       3.595   8.550  17.657  0.00  0.00    +0.000 OA
ATOM      4  H   UNL     1       1.914   6.012  18.522  0.00  0.00    +0.000 HD
ENDROOT
BRANCH   2   5
ATOM      5  C   UNL     1       1.384   8.524  18.527  0.00  0.00    +0.000 A 
ATOM      6  C   UNL     1       0.737   9.159  17.532  0.00  0.00    +0.000 A 
ATOM      7  N   UNL     1       0.157  10.380  17.741  0.00  0.00    +0.000 N 
ATOM      8  C   UNL     1       0.342  11.088  18.908  0.00  0.00    +0.000 A 
ATOM      9  O   UNL     1       0.157  12.305  18.967  0.00  0.00    +0.000 OA
ATOM     10  C   UNL     1       0.729  10.299  20.095  0.00  0.00    +0.000 A 
ATOM     11  C   UNL     1       0.576  10.849  21.370  0.00  0.00    +0.000 A 
ATOM     12  C   UNL     1       0.687  10.026  22.484  0.00  0.00    +0.000 A 
ATOM     13  C   UNL     1       0.942   8.663  22.314  0.00  0.00    +0.000 A 
ATOM     14  C   UNL     1       1.170   8.132  21.033  0.00  0.00    +0.000 A 
ATOM     15  C   UNL     1       1.115   8.965  19.908  0.00  0.00    +0.000 A 
ATOM     16  H   UNL     1      -0.103  10.943  16.935  0.00  0.00    +0.000 HD
ENDBRANCH   2   5
BRANCH   1  18
ATOM     17  C   UNL     1       4.584   5.980  16.590  0.00  0.00    +0.000 C 
ATOM     18  C   UNL     1       3.955   5.750  17.982  0.00  0.00    +0.000 C 
ATOM     19  C   UNL     1       4.926   6.174  19.108  0.00  0.00    +0.000 C 
ATOM     20  C   UNL     1       6.060   5.173  19.229  0.00  0.00    +0.000 C 
ATOM     21  O   UNL     1       5.582   3.887  19.619  0.00  0.00    +0.000 OA
ATOM     22  C   UNL     1       4.474   3.448  18.945  0.00  0.00    +0.000 A 
ATOM     23  C   UNL     1       4.164   2.100  19.137  0.00  0.00    +0.000 A 
ATOM     24  C   UNL     1       3.049   1.541  18.516  0.00  0.00    +0.000 A 
ATOM     25  C   UNL     1       2.252   2.324  17.688  0.00  0.00    +0.000 A 
ATOM     26  C   UNL     1       2.561   3.670  17.492  0.00  0.00    +0.000 A 
ATOM     27  C   UNL     1       3.661   4.261  18.142  0.00  0.00    +0.000 A 
ENDBRANCH   1  18
TORSDOF 2
ENDMDL
MODEL 8
REMARK VINA RESULT:      -7.5      2.045      7.295
REMARK  Name = 
REMARK  3 active torsions:
REMARK  status: ('A' for Active; 'I' for Inactive)
REMARK    1  A    between atoms: C_1  and  C_2
REMARK    2  A    between atoms: C_2  and  N_3
REMARK    3  A    between atoms: C_4  and  C_6
REMARK                            x       y       z     vdW  Elec       q    Type
REMARK                         _______ _______ _______ _____ _____    ______ ____
ROOT
ATOM      1  N   UNL     1       1.637   9.143  19.363  0.00  0.00    +0.000 N 
ATOM      2  C   UNL     1       2.107   8.451  18.276  0.00  0.00    +0.000 C 
ATOM      3  O   UNL     1       1.766   8.721  17.127  0.00  0.00    +0.000 OA
ATOM      4  H   UNL     1       1.841   8.794  20.290  0.00  0.00    +0.000 HD
ENDROOT
BRANCH   2   5
ATOM      5  C   UNL     1       2.912   7.220  18.568  0.00  0.00    +0.000 A 
ATOM      6  C   UNL     1       4.029   7.203  17.817  0.00  0.00    +0.000 A 
ATOM      7  N   UNL     1       4.477   6.041  17.253  0.00  0.00    +0.000 N 
ATOM      8  C   UNL     1       3.735   4.880  17.282  0.00  0.00    +0.000 A 
ATOM      9  O   UNL     1       3.930   3.963  16.484  0.00  0.00    +0.000 OA
ATOM     10  C   UNL     1       2.725   4.779  18.355  0.00  0.00    +0.000 A 
ATOM     11  C   UNL     1       2.200   3.530  18.694  0.00  0.00    +0.000 A 
ATOM     12  C   UNL     1       1.459   3.398  19.863  0.00  0.00    +0.000 A 
ATOM     13  C   UNL     1       1.256   4.510  20.683  0.00  0.00    +0.000 A 
ATOM     14  C   UNL     1       1.722   5.778  20.296  0.00  0.00    +0.000 A 
ATOM     15  C   UNL     1       2.423   5.932  19.092  0.00  0.00    +0.000 A 
ATOM     16  H   UNL     1       5.162   6.092  16.503  0.00  0.00    +0.000 HD
ENDBRANCH   2   5
BRANCH   1  18
ATOM     17  C   UNL     1      -0.317   9.866  18.018  0.00  0.00    +0.000 C 
ATOM     18  C   UNL     1       0.549  10.140  19.267  0.00  0.00    +0.000 C 
ATOM     19  C   UNL     1      -0.306  10.107  20.555  0.00  0.00    +0.000 C 
ATOM     20  C   UNL     1      -1.181  11.345  20.636  0.00  0.00    +0.000 C 
ATOM     21  O   UNL     1      -0.397  12.533  20.744  0.00  0.00    +0.000 OA
ATOM     22  C   UNL     1       0.661  12.612  19.880  0.00  0.00    +0.000 A 
ATOM     23  C   UNL     1       1.265  13.868  19.803  0.00  0.00    +0.000 A 
ATOM     24  C   UNL     1       2.363  14.071  18.969  0.00  0.00    +0.000 A 
ATOM     25  C   UNL     1       2.849  13.020  18.198  0.00  0.00    +0.000 A 
ATOM     26  C   UNL     1       2.247  11.764  18.271  0.00  0.00    +0.000 A 
ATOM     27  C   UNL     1       1.161  11.533  19.136  0.00  0.00    +0.000 A 
ENDBRANCH   1  18
TORSDOF 2
ENDMDL
MODEL 9
REMARK VINA RESULT:      -7.5      2.198      2.923
REMARK  Name = 
REMARK  3 active torsions:
REMARK  status: ('A' for Active; 'I' for Inactive)
REMARK    1  A    between atoms: C_1  and  C_2
REMARK    2  A    between atoms: C_2  and  N_3
REMARK    3  A    between atoms: C_4  and  C_6
REMARK                            x       y       z     vdW  Elec       q    Type
REMARK                         _______ _______ _______ _____ _____    ______ ____
ROOT
ATOM      1  N   UNL     1       1.984   6.876  19.899  0.00  0.00    +0.000 N 
ATOM      2  C   UNL     1       1.728   8.107  19.353  0.00  0.00    +0.000 C 
ATOM      3  O   UNL     1       1.815   8.323  18.147  0.00  0.00    +0.000 OA
ATOM      4  H   UNL     1       2.032   6.788  20.905  0.00  0.00    +0.000 HD
ENDROOT
BRANCH   2   5
ATOM      5  C   UNL     1       1.521   9.235  20.321  0.00  0.00    +0.000 A 
ATOM      6  C   UNL     1       1.709   8.807  21.583  0.00  0.00    +0.000 A 
ATOM      7  N   UNL     1       0.894   9.232  22.596  0.00  0.00    +0.000 N 
ATOM      8  C   UNL     1      -0.243   9.972  22.358  0.00  0.00    +0.000 A 
ATOM      9  O   UNL     1      -1.162  10.037  23.176  0.00  0.00    +0.000 OA
ATOM     10  C   UNL     1      -0.277  10.724  21.086  0.00  0.00    +0.000 A 
ATOM     11  C   UNL     1      -1.187  11.771  20.927  0.00  0.00    +0.000 A 
ATOM     12  C   UNL     1      -1.046  12.639  19.851  0.00  0.00    +0.000 A 
ATOM     13  C   UNL     1       0.007  12.457  18.951  0.00  0.00    +0.000 A 
ATOM     14  C   UNL     1       0.872  11.358  19.074  0.00  0.00    +0.000 A 
ATOM     15  C   UNL     1       0.704  10.446  20.125  0.00  0.00    +0.000 A 
ATOM     16  H   UNL     1       0.894   8.718  23.473  0.00  0.00    +0.000 HD
ENDBRANCH   2   5
BRANCH   1  18
ATOM     17  C   UNL     1       1.761   5.547  17.817  0.00  0.00    +0.000 C 
ATOM     18  C   UNL     1       2.563   5.760  19.119  0.00  0.00    +0.000 C 
ATOM     19  C   UNL     1       4.051   6.051  18.815  0.00  0.00    +0.000 C 
ATOM     20  C   UNL     1       4.749   4.787  18.349  0.00  0.00    +0.000 C 
ATOM     21  O   UNL     1       4.769   3.794  19.373  0.00  0.00    +0.000 OA
ATOM     22  C   UNL     1       3.582   3.608  20.028  0.00  0.00    +0.000 A 
ATOM     23  C   UNL     1       3.528   2.472  20.839  0.00  0.00    +0.000 A 
ATOM     24  C   UNL     1       2.377   2.183  21.568  0.00  0.00    +0.000 A 
ATOM     25  C   UNL     1       1.271   3.021  21.476  0.00  0.00    +0.000 A 
ATOM     26  C   UNL     1       1.320   4.154  20.664  0.00  0.00    +0.000 A 
ATOM     27  C   UNL     1       2.487   4.482  19.950  0.00  0.00    +0.000 A 
ENDBRANCH   1  18
TORSDOF 2
ENDMDL
