MODEL 1
REMARK VINA RESULT:      -8.3      0.000      0.000
REMARK  Name = 
REMARK  6 active torsions:
REMARK  status: ('A' for Active; 'I' for Inactive)
REMARK    1  A    between atoms: N_3  and  C_4
REMARK    2  A    between atoms: C_4  and  C_5
REMARK    3  A    between atoms: C_19  and  C_20
REMARK    4  A    between atoms: C_20  and  C_21
REMARK    5  A    between atoms: C_21  and  C_22
REMARK    6  A    between atoms: C_22  and  C_23
REMARK                            x       y       z     vdW  Elec       q    Type
REMARK                         _______ _______ _______ _____ _____    ______ ____
ROOT
ATOM      1  O   UNL     1       4.162   7.250  18.062  0.00  0.00    +0.000 OA
ATOM      2  C   UNL     1       3.050   6.731  17.987  0.00  0.00    +0.000 C 
ATOM      3  N   UNL     1       1.932   7.505  17.851  0.00  0.00    +0.000 N 
ATOM      4  N   UNL     1       2.841   5.363  18.008  0.00  0.00    +0.000 N 
ATOM      5  C   UNL     1       1.547   4.677  17.887  0.00  0.00    +0.000 C 
ATOM      6  C   UNL     1       1.254   3.838  19.131  0.00  0.00    +0.000 C 
ATOM      7  C   UNL     1       2.428   2.941  19.533  0.00  0.00    +0.000 C 
ATOM      8  C   UNL     1       3.734   3.731  19.576  0.00  0.00    +0.000 C 
ATOM      9  C   UNL     1       3.994   4.475  18.256  0.00  0.00    +0.000 C 
ATOM     10  H   UNL     1       1.072   7.147  18.238  0.00  0.00    +0.000 HD
ENDROOT
BRANCH   3  11
ATOM     11  C   UNL     1       2.046   8.947  17.877  0.00  0.00    +0.000 C 
BRANCH  11  12
ATOM     12  C   UNL     1       0.914   9.506  18.657  0.00  0.00    +0.000 A 
ATOM     13  N   UNL     1      -0.142  10.133  18.166  0.00  0.00    +0.000 NA
ATOM     14  N   UNL     1      -0.949  10.510  19.215  0.00  0.00    +0.000 NA
ATOM     15  C   UNL     1      -0.380  10.100  20.324  0.00  0.00    +0.000 A 
ATOM     16  C   UNL     1      -0.756  10.215  21.691  0.00  0.00    +0.000 A 
ATOM     17  C   UNL     1       0.036   9.684  22.645  0.00  0.00    +0.000 A 
ATOM     18  C   UNL     1       1.267   8.986  22.302  0.00  0.00    +0.000 A 
ATOM     19  C   UNL     1       1.628   8.881  21.012  0.00  0.00    +0.000 A 
ATOM     20  N   UNL     1       0.803   9.443  20.032  0.00  0.00    +0.000 N 
ENDBRANCH  11  12
ENDBRANCH   3  11
BRANCH   9  21
ATOM     21  C   UNL     1       4.272   3.525  17.064  0.00  0.00    +0.000 C 
BRANCH  21  22
ATOM     22  C   UNL     1       4.959   4.218  15.877  0.00  0.00    +0.000 C 
BRANCH  22  23
ATOM     23  C   UNL     1       6.485   4.145  15.940  0.00  0.00    +0.000 C 
BRANCH  23  24
ATOM     24  C   UNL     1       7.068   5.151  16.900  0.00  0.00    +0.000 A 
ATOM     25  C   UNL     1       7.099   6.510  16.554  0.00  0.00    +0.000 A 
ATOM     26  C   UNL     1       7.602   7.457  17.446  0.00  0.00    +0.000 A 
ATOM     27  C   UNL     1       8.082   7.054  18.690  0.00  0.00    +0.000 A 
ATOM     28  C   UNL     1       8.075   5.704  19.035  0.00  0.00    +0.000 A 
ATOM     29  C   UNL     1       7.576   4.754  18.142  0.00  0.00    +0.000 A 
ENDBRANCH  23  24
ENDBRANCH  22  23
ENDBRANCH  21  22
ENDBRANCH   9  21
TORSDOF 6
ENDMDL
MODEL 2
REMARK VINA RESULT:      -8.2      0.924      1.841
REMARK  Name = 
REMARK  6 active torsions:
REMARK  status: ('A' for Active; 'I' for Inactive)
REMARK    1  A    between atoms: N_3  and  C_4
REMARK    2  A    between atoms: C_4  and  C_5
REMARK    3  A    between atoms: C_19  and  C_20
REMARK    4  A    between atoms: C_20  and  C_21
REMARK    5  A    between atoms: C_21  and  C_22
REMARK    6  A    between atoms: C_22  and  C_23
REMARK                            x       y       z     vdW  Elec       q    Type
REMARK                         _______ _______ _______ _____ _____    ______ ____
ROOT
ATOM      1  O   UNL     1       4.190   6.742  18.521  0.00  0.00    +0.000 OA
ATOM      2  C   UNL     1       3.091   6.260  18.253  0.00  0.00    +0.000 C 
ATOM      3  N   UNL     1       1.997   7.067  18.110  0.00  0.00    +0.000 N 
ATOM      4  N   UNL     1       2.876   4.908  18.053  0.00  0.00    +0.000 N 
ATOM      5  C   UNL     1       1.601   4.270  17.695  0.00  0.00    +0.000 C 
ATOM      6  C   UNL     1       1.171   3.267  18.766  0.00  0.00    +0.000 C 
ATOM      7  C   UNL     1       2.291   2.300  19.158  0.00  0.00    +0.000 C 
ATOM      8  C   UNL     1       3.588   3.051  19.456  0.00  0.00    +0.000 C 
ATOM      9  C   UNL     1       3.992   3.971  18.292  0.00  0.00    +0.000 C 
ATOM     10  H   UNL     1       1.099   6.674  18.347  0.00  0.00    +0.000 HD
ENDROOT
BRANCH   3  11
ATOM     11  C   UNL     1       2.113   8.488  18.357  0.00  0.00    +0.000 C 
BRANCH  11  12
ATOM     12  C   UNL     1       1.479   8.803  19.662  0.00  0.00    +0.000 A 
ATOM     13  N   UNL     1       1.567   8.086  20.770  0.00  0.00    +0.000 NA
ATOM     14  N   UNL     1       0.824   8.707  21.748  0.00  0.00    +0.000 NA
ATOM     15  C   UNL     1       0.305   9.793  21.227  0.00  0.00    +0.000 A 
ATOM     16  C   UNL     1      -0.542  10.801  21.764  0.00  0.00    +0.000 A 
ATOM     17  C   UNL     1      -0.928  11.831  20.982  0.00  0.00    +0.000 A 
ATOM     18  C   UNL     1      -0.486  11.936  19.599  0.00  0.00    +0.000 A 
ATOM     19  C   UNL     1       0.310  10.982  19.087  0.00  0.00    +0.000 A 
ATOM     20  N   UNL     1       0.696   9.915  19.904  0.00  0.00    +0.000 N 
ENDBRANCH  11  12
ENDBRANCH   3  11
BRANCH   9  21
ATOM     21  C   UNL     1       4.396   3.197  17.012  0.00  0.00    +0.000 C 
BRANCH  21  22
ATOM     22  C   UNL     1       4.991   4.095  15.917  0.00  0.00    +0.000 C 
BRANCH  22  23
ATOM     23  C   UNL     1       6.519   4.148  15.946  0.00  0.00    +0.000 C 
BRANCH  23  24
ATOM     24  C   UNL     1       7.038   5.192  16.902  0.00  0.00    +0.000 A 
ATOM     25  C   UNL     1       7.528   4.807  18.158  0.00  0.00    +0.000 A 
ATOM     26  C   UNL     1       8.046   5.758  19.038  0.00  0.00    +0.000 A 
ATOM     27  C   UNL     1       8.075   7.101  18.673  0.00  0.00    +0.000 A 
ATOM     28  C   UNL     1       7.572   7.497  17.434  0.00  0.00    +0.000 A 
ATOM     29  C   UNL     1       7.049   6.548  16.553  0.00  0.00    +0.000 A 
ENDBRANCH  23  24
ENDBRANCH  22  23
ENDBRANCH  21  22
ENDBRANCH   9  21
TORSDOF 6
ENDMDL
MODEL 3
REMARK VINA RESULT:      -8.1      0.424      1.006
REMARK  Name = 
REMARK  6 active torsions:
REMARK  status: ('A' for Active; 'I' for Inactive)
REMARK    1  A    between atoms: N_3  and  C_4
REMARK    2  A    between atoms: C_4  and  C_5
REMARK    3  A    between atoms: C_19  and  C_20
REMARK    4  A    between atoms: C_20  and  C_21
REMARK    5  A    between atoms: C_21  and  C_22
REMARK    6  A    between atoms: C_22  and  C_23
REMARK                            x       y       z     vdW  Elec       q    Type
REMARK                         _______ _______ _______ _____ _____    ______ ____
ROOT
ATOM      1  O   UNL     1       4.340   6.719  18.653  0.00  0.00    +0.000 OA
ATOM      2  C   UNL     1       3.215   6.342  18.332  0.00  0.00    +0.000 C 
ATOM      3  N   UNL     1       2.210   7.247  18.138  0.00  0.00    +0.000 N 
ATOM      4  N   UNL     1       2.885   5.016  18.118  0.00  0.00    +0.000 N 
ATOM      5  C   UNL     1       1.575   4.499  17.699  0.00  0.00    +0.000 C 
ATOM      6  C   UNL     1       1.001   3.544  18.745  0.00  0.00    +0.000 C 
ATOM      7  C   UNL     1       2.005   2.477  19.189  0.00  0.00    +0.000 C 
ATOM      8  C   UNL     1       3.351   3.104  19.550  0.00  0.00    +0.000 C 
ATOM      9  C   UNL     1       3.895   3.979  18.409  0.00  0.00    +0.000 C 
ATOM     10  H   UNL     1       1.269   6.941  18.330  0.00  0.00    +0.000 HD
ENDROOT
BRANCH   3  11
ATOM     11  C   UNL     1       2.446   8.652  18.393  0.00  0.00    +0.000 C 
BRANCH  11  12
ATOM     12  C   UNL     1       1.199   9.263  18.918  0.00  0.00    +0.000 A 
ATOM     13  N   UNL     1       0.231   9.806  18.199  0.00  0.00    +0.000 NA
ATOM     14  N   UNL     1      -0.737  10.274  19.059  0.00  0.00    +0.000 NA
ATOM     15  C   UNL     1      -0.350  10.000  20.283  0.00  0.00    +0.000 A 
ATOM     16  C   UNL     1      -0.941  10.251  21.551  0.00  0.00    +0.000 A 
ATOM     17  C   UNL     1      -0.308   9.846  22.672  0.00  0.00    +0.000 A 
ATOM     18  C   UNL     1       0.968   9.147  22.607  0.00  0.00    +0.000 A 
ATOM     19  C   UNL     1       1.531   8.912  21.410  0.00  0.00    +0.000 A 
ATOM     20  N   UNL     1       0.869   9.345  20.256  0.00  0.00    +0.000 N 
ENDBRANCH  11  12
ENDBRANCH   3  11
BRANCH   9  21
ATOM     21  C   UNL     1       4.286   3.167  17.149  0.00  0.00    +0.000 C 
BRANCH  21  22
ATOM     22  C   UNL     1       4.890   4.029  16.030  0.00  0.00    +0.000 C 
BRANCH  22  23
ATOM     23  C   UNL     1       6.419   4.041  16.040  0.00  0.00    +0.000 C 
BRANCH  23  24
ATOM     24  C   UNL     1       6.978   5.103  16.953  0.00  0.00    +0.000 A 
ATOM     25  C   UNL     1       7.489   4.744  18.210  0.00  0.00    +0.000 A 
ATOM     26  C   UNL     1       8.043   5.709  19.051  0.00  0.00    +0.000 A 
ATOM     27  C   UNL     1       8.088   7.041  18.646  0.00  0.00    +0.000 A 
ATOM     28  C   UNL     1       7.565   7.411  17.408  0.00  0.00    +0.000 A 
ATOM     29  C   UNL     1       7.006   6.447  16.567  0.00  0.00    +0.000 A 
ENDBRANCH  23  24
ENDBRANCH  22  23
ENDBRANCH  21  22
ENDBRANCH   9  21
TORSDOF 6
ENDMDL
MODEL 4
REMARK VINA RESULT:      -8.1      1.254      1.560
REMARK  Name = 
REMARK  6 active torsions:
REMARK  status: ('A' for Active; 'I' for Inactive)
REMARK    1  A    between atoms: N_3  and  C_4
REMARK    2  A    between atoms: C_4  and  C_5
REMARK    3  A    between atoms: C_19  and  C_20
REMARK    4  A    between atoms: C_20  and  C_21
REMARK    5  A    between atoms: C_21  and  C_22
REMARK    6  A    between atoms: C_22  and  C_23
REMARK                            x       y       z     vdW  Elec       q    Type
REMARK                         _______ _______ _______ _____ _____    ______ ____
ROOT
ATOM      1  O   UNL     1       4.085   6.113  19.773  0.00  0.00    +0.000 OA
ATOM      2  C   UNL     1       2.979   5.716  19.413  0.00  0.00    +0.000 C 
ATOM      3  N   UNL     1       1.842   6.281  19.918  0.00  0.00    +0.000 N 
ATOM      4  N   UNL     1       2.794   4.715  18.477  0.00  0.00    +0.000 N 
ATOM      5  C   UNL     1       1.505   4.217  17.975  0.00  0.00    +0.000 C 
ATOM      6  C   UNL     1       1.334   2.730  18.282  0.00  0.00    +0.000 C 
ATOM      7  C   UNL     1       2.552   1.896  17.877  0.00  0.00    +0.000 C 
ATOM      8  C   UNL     1       3.845   2.522  18.396  0.00  0.00    +0.000 C 
ATOM      9  C   UNL     1       3.977   3.993  17.969  0.00  0.00    +0.000 C 
ATOM     10  H   UNL     1       1.025   5.694  19.985  0.00  0.00    +0.000 HD
ENDROOT
BRANCH   3  11
ATOM     11  C   UNL     1       1.936   7.296  20.944  0.00  0.00    +0.000 C 
BRANCH  11  12
ATOM     12  C   UNL     1       1.274   8.534  20.461  0.00  0.00    +0.000 A 
ATOM     13  N   UNL     1       1.333   9.026  19.234  0.00  0.00    +0.000 NA
ATOM     14  N   UNL     1       0.602  10.191  19.200  0.00  0.00    +0.000 NA
ATOM     15  C   UNL     1       0.102  10.386  20.397  0.00  0.00    +0.000 A 
ATOM     16  C   UNL     1      -0.715  11.417  20.937  0.00  0.00    +0.000 A 
ATOM     17  C   UNL     1      -1.091  11.358  22.232  0.00  0.00    +0.000 A 
ATOM     18  C   UNL     1      -0.681  10.254  23.087  0.00  0.00    +0.000 A 
ATOM     19  C   UNL     1       0.096   9.280  22.582  0.00  0.00    +0.000 A 
ATOM     20  N   UNL     1       0.485   9.357  21.240  0.00  0.00    +0.000 N 
ENDBRANCH  11  12
ENDBRANCH   3  11
BRANCH   9  21
ATOM     21  C   UNL     1       4.165   4.171  16.441  0.00  0.00    +0.000 C 
BRANCH  21  22
ATOM     22  C   UNL     1       5.478   3.573  15.913  0.00  0.00    +0.000 C 
BRANCH  22  23
ATOM     23  C   UNL     1       6.496   4.634  15.494  0.00  0.00    +0.000 C 
BRANCH  23  24
ATOM     24  C   UNL     1       7.078   5.368  16.675  0.00  0.00    +0.000 A 
ATOM     25  C   UNL     1       7.137   6.770  16.666  0.00  0.00    +0.000 A 
ATOM     26  C   UNL     1       7.639   7.465  17.766  0.00  0.00    +0.000 A 
ATOM     27  C   UNL     1       8.090   6.766  18.883  0.00  0.00    +0.000 A 
ATOM     28  C   UNL     1       8.055   5.373  18.894  0.00  0.00    +0.000 A 
ATOM     29  C   UNL     1       7.557   4.675  17.792  0.00  0.00    +0.000 A 
ENDBRANCH  23  24
ENDBRANCH  22  23
ENDBRANCH  21  22
ENDBRANCH   9  21
TORSDOF 6
ENDMDL
MODEL 5
REMARK VINA RESULT:      -8.0      3.148      5.534
REMARK  Name = 
REMARK  6 active torsions:
REMARK  status: ('A' for Active; 'I' for Inactive)
REMARK    1  A    between atoms: N_3  and  C_4
REMARK    2  A    between atoms: C_4  and  C_5
REMARK    3  A    between atoms: C_19  and  C_20
REMARK    4  A    between atoms: C_20  and  C_21
REMARK    5  A    between atoms: C_21  and  C_22
REMARK    6  A    between atoms: C_22  and  C_23
REMARK                            x       y       z     vdW  Elec       q    Type
REMARK                         _______ _______ _______ _____ _____    ______ ____
ROOT
ATOM      1  O   UNL     1       4.751   6.210  19.001  0.00  0.00    +0.000 OA
ATOM      2  C   UNL     1       4.563   6.261  17.787  0.00  0.00    +0.000 C 
ATOM      3  N   UNL     1       3.299   6.401  17.287  0.00  0.00    +0.000 N 
ATOM      4  N   UNL     1       5.582   6.211  16.853  0.00  0.00    +0.000 N 
ATOM      5  C   UNL     1       5.433   6.304  15.393  0.00  0.00    +0.000 C 
ATOM      6  C   UNL     1       5.953   5.040  14.708  0.00  0.00    +0.000 C 
ATOM      7  C   UNL     1       7.347   4.633  15.192  0.00  0.00    +0.000 C 
ATOM      8  C   UNL     1       7.418   4.619  16.718  0.00  0.00    +0.000 C 
ATOM      9  C   UNL     1       6.959   5.957  17.320  0.00  0.00    +0.000 C 
ATOM     10  H   UNL     1       3.113   5.998  16.381  0.00  0.00    +0.000 HD
ENDROOT
BRANCH   3  11
ATOM     11  C   UNL     1       2.165   6.405  18.185  0.00  0.00    +0.000 C 
BRANCH  11  12
ATOM     12  C   UNL     1       1.706   5.009  18.388  0.00  0.00    +0.000 A 
ATOM     13  N   UNL     1       1.151   4.226  17.478  0.00  0.00    +0.000 NA
ATOM     14  N   UNL     1       0.854   3.019  18.068  0.00  0.00    +0.000 NA
ATOM     15  C   UNL     1       1.240   3.079  19.320  0.00  0.00    +0.000 A 
ATOM     16  C   UNL     1       1.179   2.141  20.387  0.00  0.00    +0.000 A 
ATOM     17  C   UNL     1       1.667   2.479  21.599  0.00  0.00    +0.000 A 
ATOM     18  C   UNL     1       2.264   3.786  21.834  0.00  0.00    +0.000 A 
ATOM     19  C   UNL     1       2.320   4.677  20.829  0.00  0.00    +0.000 A 
ATOM     20  N   UNL     1       1.803   4.318  19.580  0.00  0.00    +0.000 N 
ENDBRANCH  11  12
ENDBRANCH   3  11
BRANCH   9  21
ATOM     21  C   UNL     1       7.916   7.133  16.999  0.00  0.00    +0.000 C 
BRANCH  21  22
ATOM     22  C   UNL     1       7.993   8.182  18.118  0.00  0.00    +0.000 C 
BRANCH  22  23
ATOM     23  C   UNL     1       8.132   9.612  17.593  0.00  0.00    +0.000 C 
BRANCH  23  24
ATOM     24  C   UNL     1       9.100  10.431  18.408  0.00  0.00    +0.000 A 
ATOM     25  C   UNL     1       9.145  10.275  19.802  0.00  0.00    +0.000 A 
ATOM     26  C   UNL     1      10.061  10.999  20.566  0.00  0.00    +0.000 A 
ATOM     27  C   UNL     1      10.936  11.888  19.945  0.00  0.00    +0.000 A 
ATOM     28  C   UNL     1      10.885  12.064  18.564  0.00  0.00    +0.000 A 
ATOM     29  C   UNL     1       9.966  11.344  17.797  0.00  0.00    +0.000 A 
ENDBRANCH  23  24
ENDBRANCH  22  23
ENDBRANCH  21  22
ENDBRANCH   9  21
TORSDOF 6
ENDMDL
MODEL 6
REMARK VINA RESULT:      -8.0      1.082      1.658
REMARK  Name = 
REMARK  6 active torsions:
REMARK  status: ('A' for Active; 'I' for Inactive)
REMARK    1  A    between atoms: N_3  and  C_4
REMARK    2  A    between atoms: C_4  and  C_5
REMARK    3  A    between atoms: C_19  and  C_20
REMARK    4  A    between atoms: C_20  and  C_21
REMARK    5  A    between atoms: C_21  and  C_22
REMARK    6  A    between atoms: C_22  and  C_23
REMARK                            x       y       z     vdW  Elec       q    Type
REMARK                         _______ _______ _______ _____ _____    ______ ____
ROOT
ATOM      1  O   UNL     1       4.226   5.932  19.546  0.00  0.00    +0.000 OA
ATOM      2  C   UNL     1       3.097   5.647  19.153  0.00  0.00    +0.000 C 
ATOM      3  N   UNL     1       2.068   6.534  19.299  0.00  0.00    +0.000 N 
ATOM      4  N   UNL     1       2.784   4.454  18.525  0.00  0.00    +0.000 N 
ATOM      5  C   UNL     1       1.469   4.064  17.999  0.00  0.00    +0.000 C 
ATOM      6  C   UNL     1       0.955   2.800  18.689  0.00  0.00    +0.000 C 
ATOM      7  C   UNL     1       1.996   1.679  18.727  0.00  0.00    +0.000 C 
ATOM      8  C   UNL     1       3.342   2.194  19.234  0.00  0.00    +0.000 C 
ATOM      9  C   UNL     1       3.825   3.411  18.428  0.00  0.00    +0.000 C 
ATOM     10  H   UNL     1       1.141   6.152  19.408  0.00  0.00    +0.000 HD
ENDROOT
BRANCH   3  11
ATOM     11  C   UNL     1       2.287   7.783  19.994  0.00  0.00    +0.000 C 
BRANCH  11  12
ATOM     12  C   UNL     1       1.353   8.804  19.456  0.00  0.00    +0.000 A 
ATOM     13  N   UNL     1       1.117   9.054  18.179  0.00  0.00    +0.000 NA
ATOM     14  N   UNL     1       0.206  10.082  18.099  0.00  0.00    +0.000 NA
ATOM     15  C   UNL     1      -0.106  10.436  19.324  0.00  0.00    +0.000 A 
ATOM     16  C   UNL     1      -0.979  11.433  19.839  0.00  0.00    +0.000 A 
ATOM     17  C   UNL     1      -1.111  11.576  21.174  0.00  0.00    +0.000 A 
ATOM     18  C   UNL     1      -0.380  10.722  22.101  0.00  0.00    +0.000 A 
ATOM     19  C   UNL     1       0.450   9.782  21.617  0.00  0.00    +0.000 A 
ATOM     20  N   UNL     1       0.584   9.649  20.231  0.00  0.00    +0.000 N 
ENDBRANCH  11  12
ENDBRANCH   3  11
BRANCH   9  21
ATOM     21  C   UNL     1       4.182   3.070  16.960  0.00  0.00    +0.000 C 
BRANCH  21  22
ATOM     22  C   UNL     1       4.705   4.275  16.163  0.00  0.00    +0.000 C 
BRANCH  22  23
ATOM     23  C   UNL     1       6.229   4.298  16.040  0.00  0.00    +0.000 C 
BRANCH  23  24
ATOM     24  C   UNL     1       6.866   5.282  16.989  0.00  0.00    +0.000 A 
ATOM     25  C   UNL     1       7.377   4.837  18.217  0.00  0.00    +0.000 A 
ATOM     26  C   UNL     1       8.002   5.728  19.089  0.00  0.00    +0.000 A 
ATOM     27  C   UNL     1       8.118   7.073  18.744  0.00  0.00    +0.000 A 
ATOM     28  C   UNL     1       7.596   7.529  17.535  0.00  0.00    +0.000 A 
ATOM     29  C   UNL     1       6.966   6.639  16.662  0.00  0.00    +0.000 A 
ENDBRANCH  23  24
ENDBRANCH  22  23
ENDBRANCH  21  22
ENDBRANCH   9  21
TORSDOF 6
ENDMDL
MODEL 7
REMARK VINA RESULT:      -8.0      1.617      4.219
REMARK  Name = 
REMARK  6 active torsions:
REMARK  status: ('A' for Active; 'I' for Inactive)
REMARK    1  A    between atoms: N_3  and  C_4
REMARK    2  A    between atoms: C_4  and  C_5
REMARK    3  A    between atoms: C_19  and  C_20
REMARK    4  A    between atoms: C_20  and  C_21
REMARK    5  A    between atoms: C_21  and  C_22
REMARK    6  A    between atoms: C_22  and  C_23
REMARK                            x       y       z     vdW  Elec       q    Type
REMARK                         _______ _______ _______ _____ _____    ______ ____
ROOT
ATOM      1  O   UNL     1       1.870   5.695  18.076  0.00  0.00    +0.000 OA
ATOM      2  C   UNL     1       2.904   5.821  18.729  0.00  0.00    +0.000 C 
ATOM      3  N   UNL     1       2.863   6.311  20.004  0.00  0.00    +0.000 N 
ATOM      4  N   UNL     1       4.155   5.464  18.258  0.00  0.00    +0.000 N 
ATOM      5  C   UNL     1       5.423   5.553  18.995  0.00  0.00    +0.000 C 
ATOM      6  C   UNL     1       6.406   6.482  18.284  0.00  0.00    +0.000 C 
ATOM      7  C   UNL     1       6.546   6.170  16.792  0.00  0.00    +0.000 C 
ATOM      8  C   UNL     1       5.177   6.042  16.126  0.00  0.00    +0.000 C 
ATOM      9  C   UNL     1       4.283   5.024  16.854  0.00  0.00    +0.000 C 
ATOM     10  H   UNL     1       3.671   6.818  20.330  0.00  0.00    +0.000 HD
ENDROOT
BRANCH   3  11
ATOM     11  C   UNL     1       1.607   6.764  20.561  0.00  0.00    +0.000 C 
BRANCH  11  12
ATOM     12  C   UNL     1       1.406   8.190  20.200  0.00  0.00    +0.000 A 
ATOM     13  N   UNL     1       1.810   8.781  19.088  0.00  0.00    +0.000 NA
ATOM     14  N   UNL     1       1.446  10.107  19.145  0.00  0.00    +0.000 NA
ATOM     15  C   UNL     1       0.819  10.301  20.281  0.00  0.00    +0.000 A 
ATOM     16  C   UNL     1       0.236  11.458  20.867  0.00  0.00    +0.000 A 
ATOM     17  C   UNL     1      -0.360  11.364  22.074  0.00  0.00    +0.000 A 
ATOM     18  C   UNL     1      -0.426  10.097  22.787  0.00  0.00    +0.000 A 
ATOM     19  C   UNL     1       0.129   9.002  22.239  0.00  0.00    +0.000 A 
ATOM     20  N   UNL     1       0.751   9.114  20.991  0.00  0.00    +0.000 N 
ENDBRANCH  11  12
ENDBRANCH   3  11
BRANCH   9  21
ATOM     21  C   UNL     1       4.796   3.567  16.738  0.00  0.00    +0.000 C 
BRANCH  21  22
ATOM     22  C   UNL     1       3.684   2.515  16.869  0.00  0.00    +0.000 C 
BRANCH  22  23
ATOM     23  C   UNL     1       3.784   1.692  18.154  0.00  0.00    +0.000 C 
BRANCH  23  24
ATOM     24  C   UNL     1       2.890   2.222  19.246  0.00  0.00    +0.000 A 
ATOM     25  C   UNL     1       1.525   2.426  18.994  0.00  0.00    +0.000 A 
ATOM     26  C   UNL     1       0.678   2.881  20.004  0.00  0.00    +0.000 A 
ATOM     27  C   UNL     1       1.188   3.140  21.275  0.00  0.00    +0.000 A 
ATOM     28  C   UNL     1       2.546   2.959  21.530  0.00  0.00    +0.000 A 
ATOM     29  C   UNL     1       3.396   2.508  20.519  0.00  0.00    +0.000 A 
ENDBRANCH  23  24
ENDBRANCH  22  23
ENDBRANCH  21  22
ENDBRANCH   9  21
TORSDOF 6
ENDMDL
MODEL 8
REMARK VINA RESULT:      -7.9      0.937      1.615
REMARK  Name = 
REMARK  6 active torsions:
REMARK  status: ('A' for Active; 'I' for Inactive)
REMARK    1  A    between atoms: N_3  and  C_4
REMARK    2  A    between atoms: C_4  and  C_5
REMARK    3  A    between atoms: C_19  and  C_20
REMARK    4  A    between atoms: C_20  and  C_21
REMARK    5  A    between atoms: C_21  and  C_22
REMARK    6  A    between atoms: C_22  and  C_23
REMARK                            x       y       z     vdW  Elec       q    Type
REMARK                         _______ _______ _______ _____ _____    ______ ____
ROOT
ATOM      1  O   UNL     1       4.006   7.387  17.944  0.00  0.00    +0.000 OA
ATOM      2  C   UNL     1       2.957   6.748  17.994  0.00  0.00    +0.000 C 
ATOM      3  N   UNL     1       1.766   7.387  18.192  0.00  0.00    +0.000 N 
ATOM      4  N   UNL     1       2.888   5.376  17.831  0.00  0.00    +0.000 N 
ATOM      5  C   UNL     1       1.669   4.556  17.843  0.00  0.00    +0.000 C 
ATOM      6  C   UNL     1       1.714   3.522  18.967  0.00  0.00    +0.000 C 
ATOM      7  C   UNL     1       3.025   2.732  18.996  0.00  0.00    +0.000 C 
ATOM      8  C   UNL     1       4.231   3.666  18.925  0.00  0.00    +0.000 C 
ATOM      9  C   UNL     1       4.147   4.613  17.716  0.00  0.00    +0.000 C 
ATOM     10  H   UNL     1       1.039   6.874  18.669  0.00  0.00    +0.000 HD
ENDROOT
BRANCH   3  11
ATOM     11  C   UNL     1       1.744   8.815  18.429  0.00  0.00    +0.000 C 
BRANCH  11  12
ATOM     12  C   UNL     1       1.262   9.067  19.810  0.00  0.00    +0.000 A 
ATOM     13  N   UNL     1       1.488   8.308  20.870  0.00  0.00    +0.000 NA
ATOM     14  N   UNL     1       0.856   8.876  21.952  0.00  0.00    +0.000 NA
ATOM     15  C   UNL     1       0.264   9.972  21.540  0.00  0.00    +0.000 A 
ATOM     16  C   UNL     1      -0.528  10.943  22.212  0.00  0.00    +0.000 A 
ATOM     17  C   UNL     1      -1.016  11.996  21.524  0.00  0.00    +0.000 A 
ATOM     18  C   UNL     1      -0.740  12.163  20.104  0.00  0.00    +0.000 A 
ATOM     19  C   UNL     1       0.005  11.245  19.464  0.00  0.00    +0.000 A 
ATOM     20  N   UNL     1       0.498  10.153  20.187  0.00  0.00    +0.000 N 
ENDBRANCH  11  12
ENDBRANCH   3  11
BRANCH   9  21
ATOM     21  C   UNL     1       4.270   3.881  16.356  0.00  0.00    +0.000 C 
BRANCH  21  22
ATOM     22  C   UNL     1       5.323   4.498  15.423  0.00  0.00    +0.000 C 
BRANCH  22  23
ATOM     23  C   UNL     1       6.759   4.204  15.860  0.00  0.00    +0.000 C 
BRANCH  23  24
ATOM     24  C   UNL     1       7.254   5.180  16.896  0.00  0.00    +0.000 A 
ATOM     25  C   UNL     1       7.219   6.557  16.632  0.00  0.00    +0.000 A 
ATOM     26  C   UNL     1       7.640   7.474  17.595  0.00  0.00    +0.000 A 
ATOM     27  C   UNL     1       8.104   7.024  18.829  0.00  0.00    +0.000 A 
ATOM     28  C   UNL     1       8.161   5.656  19.094  0.00  0.00    +0.000 A 
ATOM     29  C   UNL     1       7.745   4.736  18.130  0.00  0.00    +0.000 A 
ENDBRANCH  23  24
ENDBRANCH  22  23
ENDBRANCH  21  22
ENDBRANCH   9  21
TORSDOF 6
ENDMDL
MODEL 9
REMARK VINA RESULT:      -7.8      2.701      4.661
REMARK  Name = 
REMARK  6 active torsions:
REMARK  status: ('A' for Active; 'I' for Inactive)
REMARK    1  A    between atoms: N_3  and  C_4
REMARK    2  A    between atoms: C_4  and  C_5
REMARK    3  A    between atoms: C_19  and  C_20
REMARK    4  A    between atoms: C_20  and  C_21
REMARK    5  A    between atoms: C_21  and  C_22
REMARK    6  A    between atoms: C_22  and  C_23
REMARK                            x       y       z     vdW  Elec       q    Type
REMARK                         _______ _______ _______ _____ _____    ______ ____
ROOT
ATOM      1  O   UNL     1       5.400   5.668  19.714  0.00  0.00    +0.000 OA
ATOM      2  C   UNL     1       4.873   5.729  18.605  0.00  0.00    +0.000 C 
ATOM      3  N   UNL     1       3.519   5.609  18.475  0.00  0.00    +0.000 N 
ATOM      4  N   UNL     1       5.578   5.945  17.434  0.00  0.00    +0.000 N 
ATOM      5  C   UNL     1       5.010   6.065  16.084  0.00  0.00    +0.000 C 
ATOM      6  C   UNL     1       5.559   4.977  15.160  0.00  0.00    +0.000 C 
ATOM      7  C   UNL     1       7.084   4.866  15.213  0.00  0.00    +0.000 C 
ATOM      8  C   UNL     1       7.582   4.804  16.656  0.00  0.00    +0.000 C 
ATOM      9  C   UNL     1       7.053   5.981  17.492  0.00  0.00    +0.000 C 
ATOM     10  H   UNL     1       3.170   5.213  17.615  0.00  0.00    +0.000 HD
ENDROOT
BRANCH   3  11
ATOM     11  C   UNL     1       2.705   5.325  19.637  0.00  0.00    +0.000 C 
BRANCH  11  12
ATOM     12  C   UNL     1       2.088   6.587  20.114  0.00  0.00    +0.000 A 
ATOM     13  N   UNL     1       1.589   6.809  21.319  0.00  0.00    +0.000 NA
ATOM     14  N   UNL     1       1.097   8.094  21.354  0.00  0.00    +0.000 NA
ATOM     15  C   UNL     1       1.313   8.638  20.180  0.00  0.00    +0.000 A 
ATOM     16  C   UNL     1       1.015   9.923  19.651  0.00  0.00    +0.000 A 
ATOM     17  C   UNL     1       1.364  10.217  18.381  0.00  0.00    +0.000 A 
ATOM     18  C   UNL     1       2.048   9.245  17.542  0.00  0.00    +0.000 A 
ATOM     19  C   UNL     1       2.327   8.026  18.036  0.00  0.00    +0.000 A 
ATOM     20  N   UNL     1       1.953   7.731  19.352  0.00  0.00    +0.000 N 
ENDBRANCH  11  12
ENDBRANCH   3  11
BRANCH   9  21
ATOM     21  C   UNL     1       7.626   7.351  17.050  0.00  0.00    +0.000 C 
BRANCH  21  22
ATOM     22  C   UNL     1       8.216   8.169  18.209  0.00  0.00    +0.000 C 
BRANCH  22  23
ATOM     23  C   UNL     1       8.077   9.679  18.010  0.00  0.00    +0.000 C 
BRANCH  23  24
ATOM     24  C   UNL     1       9.210  10.447  18.641  0.00  0.00    +0.000 A 
ATOM     25  C   UNL     1      10.220  10.991  17.834  0.00  0.00    +0.000 A 
ATOM     26  C   UNL     1      11.255  11.736  18.399  0.00  0.00    +0.000 A 
ATOM     27  C   UNL     1      11.293  11.940  19.777  0.00  0.00    +0.000 A 
ATOM     28  C   UNL     1      10.306  11.386  20.590  0.00  0.00    +0.000 A 
ATOM     29  C   UNL     1       9.271  10.637  20.026  0.00  0.00    +0.000 A 
ENDBRANCH  23  24
ENDBRANCH  22  23
ENDBRANCH  21  22
ENDBRANCH   9  21
TORSDOF 6
ENDMDL
