MODEL 1
REMARK VINA RESULT:      -8.6      0.000      0.000
REMARK  Name = 
REMARK  3 active torsions:
REMARK  status: ('A' for Active; 'I' for Inactive)
REMARK    1  A    between atoms: C_2  and  C_3
REMARK    2  A    between atoms: C_3  and  N_4
REMARK    3  A    between atoms: N_20  and  C_21
REMARK                            x       y       z     vdW  Elec       q    Type
REMARK                         _______ _______ _______ _____ _____    ______ ____
ROOT
ATOM      1  N   UNL     1       1.857   7.319  20.219  0.00  0.00    +0.000 N 
ATOM      2  C   UNL     1       2.147   7.844  18.995  0.00  0.00    +0.000 C 
ATOM      3  O   UNL     1       2.103   9.015  18.667  0.00  0.00    +0.000 OA
ATOM      4  N   UNL     1       2.531   6.811  18.166  0.00  0.00    +0.000 N 
ATOM      5  C   UNL     1       2.743   5.581  18.908  0.00  0.00    +0.000 C 
ATOM      6  C   UNL     1       2.144   4.370  18.202  0.00  0.00    +0.000 C 
ATOM      7  C   UNL     1       3.057   3.741  17.134  0.00  0.00    +0.000 C 
ATOM      8  C   UNL     1       4.479   4.243  17.063  0.00  0.00    +0.000 A 
ATOM      9  C   UNL     1       5.278   3.921  15.959  0.00  0.00    +0.000 A 
ATOM     10  C   UNL     1       6.606   4.348  15.889  0.00  0.00    +0.000 A 
ATOM     11  C   UNL     1       7.157   5.090  16.931  0.00  0.00    +0.000 A 
ATOM     12  C   UNL     1       6.377   5.410  18.036  0.00  0.00    +0.000 A 
ATOM     13  C   UNL     1       5.039   5.004  18.100  0.00  0.00    +0.000 A 
ATOM     14  C   UNL     1       4.210   5.357  19.296  0.00  0.00    +0.000 C 
ATOM     15  C   UNL     1       2.048   5.966  20.221  0.00  0.00    +0.000 C 
ATOM     16  O   UNL     1       1.835   5.213  21.166  0.00  0.00    +0.000 OA
ATOM     17  H   UNL     1       2.994   7.032  17.290  0.00  0.00    +0.000 HD
ENDROOT
BRANCH   1  18
ATOM     18  C   UNL     1       1.665   8.120  21.410  0.00  0.00    +0.000 C 
BRANCH  18  20
ATOM     19  O   UNL     1      -0.767   8.134  21.506  0.00  0.00    +0.000 OA
ATOM     20  C   UNL     1       0.267   8.774  21.329  0.00  0.00    +0.000 C 
ATOM     21  N   UNL     1       0.311  10.123  21.013  0.00  0.00    +0.000 N 
ATOM     22  H   UNL     1       1.165  10.487  20.605  0.00  0.00    +0.000 HD
BRANCH  21  23
ATOM     23  C   UNL     1      -0.801  11.001  20.966  0.00  0.00    +0.000 A 
ATOM     24  C   UNL     1      -1.414  11.425  19.784  0.00  0.00    +0.000 A 
ATOM     25  C   UNL     1      -2.461  12.357  19.829  0.00  0.00    +0.000 A 
ATOM     26  C   UNL     1      -2.904  12.854  21.053  0.00  0.00    +0.000 A 
ATOM     27 CL   UNL     1      -4.138  14.051  21.096  0.00  0.00    +0.000 Cl
ATOM     28  C   UNL     1      -2.346  12.394  22.242  0.00  0.00    +0.000 A 
ATOM     29  C   UNL     1      -1.309  11.465  22.188  0.00  0.00    +0.000 A 
ATOM     30  F   UNL     1      -0.766  11.033  23.333  0.00  0.00    +0.000 F 
ENDBRANCH  21  23
ENDBRANCH  18  20
ENDBRANCH   1  18
TORSDOF 3
ENDMDL
MODEL 2
REMARK VINA RESULT:      -8.6      1.003      1.348
REMARK  Name = 
REMARK  3 active torsions:
REMARK  status: ('A' for Active; 'I' for Inactive)
REMARK    1  A    between atoms: C_2  and  C_3
REMARK    2  A    between atoms: C_3  and  N_4
REMARK    3  A    between atoms: N_20  and  C_21
REMARK                            x       y       z     vdW  Elec       q    Type
REMARK                         _______ _______ _______ _____ _____    ______ ____
ROOT
ATOM      1  N   UNL     1       1.933   7.314  20.127  0.00  0.00    +0.000 N 
ATOM      2  C   UNL     1       2.229   7.825  18.899  0.00  0.00    +0.000 C 
ATOM      3  O   UNL     1       2.196   8.994  18.561  0.00  0.00    +0.000 OA
ATOM      4  N   UNL     1       2.603   6.782  18.079  0.00  0.00    +0.000 N 
ATOM      5  C   UNL     1       2.802   5.556  18.832  0.00  0.00    +0.000 C 
ATOM      6  C   UNL     1       2.193   4.345  18.136  0.00  0.00    +0.000 C 
ATOM      7  C   UNL     1       3.101   3.697  17.074  0.00  0.00    +0.000 C 
ATOM      8  C   UNL     1       4.527   4.185  17.000  0.00  0.00    +0.000 A 
ATOM      9  C   UNL     1       5.324   3.847  15.900  0.00  0.00    +0.000 A 
ATOM     10  C   UNL     1       6.656   4.260  15.828  0.00  0.00    +0.000 A 
ATOM     11  C   UNL     1       7.214   5.005  16.863  0.00  0.00    +0.000 A 
ATOM     12  C   UNL     1       6.436   5.342  17.965  0.00  0.00    +0.000 A 
ATOM     13  C   UNL     1       5.094   4.950  18.031  0.00  0.00    +0.000 A 
ATOM     14  C   UNL     1       4.267   5.321  19.223  0.00  0.00    +0.000 C 
ATOM     15  C   UNL     1       2.110   5.959  20.140  0.00  0.00    +0.000 C 
ATOM     16  O   UNL     1       1.889   5.216  21.092  0.00  0.00    +0.000 OA
ATOM     17  H   UNL     1       3.069   6.990  17.202  0.00  0.00    +0.000 HD
ENDROOT
BRANCH   1  18
ATOM     18  C   UNL     1       1.746   8.126  21.311  0.00  0.00    +0.000 C 
BRANCH  18  20
ATOM     19  O   UNL     1      -0.678   8.181  21.506  0.00  0.00    +0.000 OA
ATOM     20  C   UNL     1       0.353   8.788  21.226  0.00  0.00    +0.000 C 
ATOM     21  N   UNL     1       0.396  10.101  20.783  0.00  0.00    +0.000 N 
ATOM     22  H   UNL     1       1.235  10.414  20.307  0.00  0.00    +0.000 HD
BRANCH  21  23
ATOM     23  C   UNL     1      -0.709  10.985  20.699  0.00  0.00    +0.000 A 
ATOM     24  C   UNL     1      -1.225  11.700  21.783  0.00  0.00    +0.000 A 
ATOM     25  C   UNL     1      -2.370  12.492  21.624  0.00  0.00    +0.000 A 
ATOM     26  C   UNL     1      -2.993  12.580  20.380  0.00  0.00    +0.000 A 
ATOM     27 CL   UNL     1      -4.440  13.495  20.210  0.00  0.00    +0.000 Cl
ATOM     28  C   UNL     1      -2.457  11.925  19.277  0.00  0.00    +0.000 A 
ATOM     29  C   UNL     1      -1.316  11.143  19.444  0.00  0.00    +0.000 A 
ATOM     30  F   UNL     1      -0.807  10.504  18.383  0.00  0.00    +0.000 F 
ENDBRANCH  21  23
ENDBRANCH  18  20
ENDBRANCH   1  18
TORSDOF 3
ENDMDL
MODEL 3
REMARK VINA RESULT:      -8.5      1.753      2.114
REMARK  Name = 
REMARK  3 active torsions:
REMARK  status: ('A' for Active; 'I' for Inactive)
REMARK    1  A    between atoms: C_2  and  C_3
REMARK    2  A    between atoms: C_3  and  N_4
REMARK    3  A    between atoms: N_20  and  C_21
REMARK                            x       y       z     vdW  Elec       q    Type
REMARK                         _______ _______ _______ _____ _____    ______ ____
ROOT
ATOM      1  N   UNL     1       1.889   7.970  19.504  0.00  0.00    +0.000 N 
ATOM      2  C   UNL     1       2.274   8.266  18.230  0.00  0.00    +0.000 C 
ATOM      3  O   UNL     1       2.286   9.362  17.701  0.00  0.00    +0.000 OA
ATOM      4  N   UNL     1       2.679   7.096  17.623  0.00  0.00    +0.000 N 
ATOM      5  C   UNL     1       2.805   6.013  18.582  0.00  0.00    +0.000 C 
ATOM      6  C   UNL     1       2.218   4.707  18.059  0.00  0.00    +0.000 C 
ATOM      7  C   UNL     1       3.179   3.882  17.183  0.00  0.00    +0.000 C 
ATOM      8  C   UNL     1       4.617   4.338  17.124  0.00  0.00    +0.000 A 
ATOM      9  C   UNL     1       5.476   3.813  16.152  0.00  0.00    +0.000 A 
ATOM     10  C   UNL     1       6.817   4.197  16.100  0.00  0.00    +0.000 A 
ATOM     11  C   UNL     1       7.322   5.101  17.031  0.00  0.00    +0.000 A 
ATOM     12  C   UNL     1       6.482   5.625  18.007  0.00  0.00    +0.000 A 
ATOM     13  C   UNL     1       5.131   5.260  18.048  0.00  0.00    +0.000 A 
ATOM     14  C   UNL     1       4.237   5.834  19.104  0.00  0.00    +0.000 C 
ATOM     15  C   UNL     1       2.039   6.636  19.756  0.00  0.00    +0.000 C 
ATOM     16  O   UNL     1       1.742   6.066  20.802  0.00  0.00    +0.000 OA
ATOM     17  H   UNL     1       3.204   7.150  16.757  0.00  0.00    +0.000 HD
ENDROOT
BRANCH   1  18
ATOM     18  C   UNL     1       1.644   8.972  20.521  0.00  0.00    +0.000 C 
BRANCH  18  20
ATOM     19  O   UNL     1      -0.676   8.991  21.256  0.00  0.00    +0.000 OA
ATOM     20  C   UNL     1       0.157   9.384  20.442  0.00  0.00    +0.000 C 
ATOM     21  N   UNL     1      -0.129  10.201  19.359  0.00  0.00    +0.000 N 
ATOM     22  H   UNL     1       0.539  10.230  18.597  0.00  0.00    +0.000 HD
BRANCH  21  23
ATOM     23  C   UNL     1      -1.380  10.810  19.086  0.00  0.00    +0.000 A 
ATOM     24  C   UNL     1      -1.954  11.808  19.878  0.00  0.00    +0.000 A 
ATOM     25  C   UNL     1      -3.232  12.299  19.576  0.00  0.00    +0.000 A 
ATOM     26  C   UNL     1      -3.931  11.803  18.477  0.00  0.00    +0.000 A 
ATOM     27 CL   UNL     1      -5.527  12.356  18.155  0.00  0.00    +0.000 Cl
ATOM     28  C   UNL     1      -3.348  10.855  17.643  0.00  0.00    +0.000 A 
ATOM     29  C   UNL     1      -2.075  10.376  17.949  0.00  0.00    +0.000 A 
ATOM     30  F   UNL     1      -1.520   9.454  17.151  0.00  0.00    +0.000 F 
ENDBRANCH  21  23
ENDBRANCH  18  20
ENDBRANCH   1  18
TORSDOF 3
ENDMDL
MODEL 4
REMARK VINA RESULT:      -8.4      3.364      4.326
REMARK  Name = 
REMARK  3 active torsions:
REMARK  status: ('A' for Active; 'I' for Inactive)
REMARK    1  A    between atoms: C_2  and  C_3
REMARK    2  A    between atoms: C_3  and  N_4
REMARK    3  A    between atoms: N_20  and  C_21
REMARK                            x       y       z     vdW  Elec       q    Type
REMARK                         _______ _______ _______ _____ _____    ______ ____
ROOT
ATOM      1  N   UNL     1       1.306   8.810  19.623  0.00  0.00    +0.000 N 
ATOM      2  C   UNL     1       1.770   7.937  20.561  0.00  0.00    +0.000 C 
ATOM      3  O   UNL     1       1.462   7.888  21.737  0.00  0.00    +0.000 OA
ATOM      4  N   UNL     1       2.653   7.076  19.945  0.00  0.00    +0.000 N 
ATOM      5  C   UNL     1       2.609   7.210  18.500  0.00  0.00    +0.000 C 
ATOM      6  C   UNL     1       4.000   7.218  17.877  0.00  0.00    +0.000 C 
ATOM      7  C   UNL     1       4.585   5.819  17.609  0.00  0.00    +0.000 C 
ATOM      8  C   UNL     1       3.657   4.641  17.783  0.00  0.00    +0.000 A 
ATOM      9  C   UNL     1       4.178   3.343  17.823  0.00  0.00    +0.000 A 
ATOM     10  C   UNL     1       3.334   2.237  17.951  0.00  0.00    +0.000 A 
ATOM     11  C   UNL     1       1.955   2.415  18.025  0.00  0.00    +0.000 A 
ATOM     12  C   UNL     1       1.424   3.699  17.980  0.00  0.00    +0.000 A 
ATOM     13  C   UNL     1       2.268   4.812  17.874  0.00  0.00    +0.000 A 
ATOM     14  C   UNL     1       1.682   6.189  17.828  0.00  0.00    +0.000 C 
ATOM     15  C   UNL     1       1.856   8.543  18.401  0.00  0.00    +0.000 C 
ATOM     16  O   UNL     1       1.659   9.181  17.371  0.00  0.00    +0.000 OA
ATOM     17  H   UNL     1       2.927   6.226  20.427  0.00  0.00    +0.000 HD
ENDROOT
BRANCH   1  18
ATOM     18  C   UNL     1       0.179   9.694  19.838  0.00  0.00    +0.000 C 
BRANCH  18  20
ATOM     19  O   UNL     1       1.107  11.533  21.133  0.00  0.00    +0.000 OA
ATOM     20  C   UNL     1       0.721  11.126  20.039  0.00  0.00    +0.000 C 
ATOM     21  N   UNL     1       0.695  11.889  18.882  0.00  0.00    +0.000 N 
ATOM     22  H   UNL     1       0.103  11.577  18.120  0.00  0.00    +0.000 HD
BRANCH  21  23
ATOM     23  C   UNL     1       1.216  13.200  18.741  0.00  0.00    +0.000 A 
ATOM     24  C   UNL     1       0.532  14.359  19.119  0.00  0.00    +0.000 A 
ATOM     25  C   UNL     1       1.093  15.620  18.870  0.00  0.00    +0.000 A 
ATOM     26  C   UNL     1       2.340  15.724  18.258  0.00  0.00    +0.000 A 
ATOM     27 CL   UNL     1       2.988  17.273  17.890  0.00  0.00    +0.000 Cl
ATOM     28  C   UNL     1       3.061  14.579  17.933  0.00  0.00    +0.000 A 
ATOM     29  C   UNL     1       2.497  13.330  18.187  0.00  0.00    +0.000 A 
ATOM     30  F   UNL     1       3.188  12.229  17.864  0.00  0.00    +0.000 F 
ENDBRANCH  21  23
ENDBRANCH  18  20
ENDBRANCH   1  18
TORSDOF 3
ENDMDL
MODEL 5
REMARK VINA RESULT:      -8.4      3.334      4.287
REMARK  Name = 
REMARK  3 active torsions:
REMARK  status: ('A' for Active; 'I' for Inactive)
REMARK    1  A    between atoms: C_2  and  C_3
REMARK    2  A    between atoms: C_3  and  N_4
REMARK    3  A    between atoms: N_20  and  C_21
REMARK                            x       y       z     vdW  Elec       q    Type
REMARK                         _______ _______ _______ _____ _____    ______ ____
ROOT
ATOM      1  N   UNL     1       1.386   8.760  19.500  0.00  0.00    +0.000 N 
ATOM      2  C   UNL     1       1.761   7.905  20.493  0.00  0.00    +0.000 C 
ATOM      3  O   UNL     1       1.386   7.912  21.651  0.00  0.00    +0.000 OA
ATOM      4  N   UNL     1       2.644   6.990  19.960  0.00  0.00    +0.000 N 
ATOM      5  C   UNL     1       2.687   7.072  18.511  0.00  0.00    +0.000 C 
ATOM      6  C   UNL     1       4.110   7.005  17.970  0.00  0.00    +0.000 C 
ATOM      7  C   UNL     1       4.655   5.576  17.786  0.00  0.00    +0.000 C 
ATOM      8  C   UNL     1       3.673   4.441  17.948  0.00  0.00    +0.000 A 
ATOM      9  C   UNL     1       4.140   3.126  18.063  0.00  0.00    +0.000 A 
ATOM     10  C   UNL     1       3.247   2.058  18.181  0.00  0.00    +0.000 A 
ATOM     11  C   UNL     1       1.874   2.290  18.169  0.00  0.00    +0.000 A 
ATOM     12  C   UNL     1       1.397   3.590  18.047  0.00  0.00    +0.000 A 
ATOM     13  C   UNL     1       2.288   4.666  17.952  0.00  0.00    +0.000 A 
ATOM     14  C   UNL     1       1.760   6.061  17.823  0.00  0.00    +0.000 C 
ATOM     15  C   UNL     1       1.993   8.427  18.322  0.00  0.00    +0.000 C 
ATOM     16  O   UNL     1       1.880   9.033  17.261  0.00  0.00    +0.000 OA
ATOM     17  H   UNL     1       2.856   6.150  20.487  0.00  0.00    +0.000 HD
ENDROOT
BRANCH   1  18
ATOM     18  C   UNL     1       0.284   9.692  19.617  0.00  0.00    +0.000 C 
BRANCH  18  20
ATOM     19  O   UNL     1       1.177  11.516  20.957  0.00  0.00    +0.000 OA
ATOM     20  C   UNL     1       0.869  11.104  19.841  0.00  0.00    +0.000 C 
ATOM     21  N   UNL     1       0.976  11.844  18.674  0.00  0.00    +0.000 N 
ATOM     22  H   UNL     1       0.438  11.542  17.869  0.00  0.00    +0.000 HD
BRANCH  21  23
ATOM     23  C   UNL     1       1.563  13.129  18.557  0.00  0.00    +0.000 A 
ATOM     24  C   UNL     1       2.900  13.351  18.212  0.00  0.00    +0.000 A 
ATOM     25  C   UNL     1       3.415  14.654  18.196  0.00  0.00    +0.000 A 
ATOM     26  C   UNL     1       2.596  15.736  18.512  0.00  0.00    +0.000 A 
ATOM     27 CL   UNL     1       3.254  17.324  18.562  0.00  0.00    +0.000 Cl
ATOM     28  C   UNL     1       1.249  15.537  18.795  0.00  0.00    +0.000 A 
ATOM     29  C   UNL     1       0.743  14.239  18.805  0.00  0.00    +0.000 A 
ATOM     30  F   UNL     1      -0.552  14.049  19.089  0.00  0.00    +0.000 F 
ENDBRANCH  21  23
ENDBRANCH  18  20
ENDBRANCH   1  18
TORSDOF 3
ENDMDL
MODEL 6
REMARK VINA RESULT:      -8.2      1.554      1.814
REMARK  Name = 
REMARK  3 active torsions:
REMARK  status: ('A' for Active; 'I' for Inactive)
REMARK    1  A    between atoms: C_2  and  C_3
REMARK    2  A    between atoms: C_3  and  N_4
REMARK    3  A    between atoms: N_20  and  C_21
REMARK                            x       y       z     vdW  Elec       q    Type
REMARK                         _______ _______ _______ _____ _____    ______ ____
ROOT
ATOM      1  N   UNL     1       1.854   8.069  19.333  0.00  0.00    +0.000 N 
ATOM      2  C   UNL     1       2.244   8.321  18.052  0.00  0.00    +0.000 C 
ATOM      3  O   UNL     1       2.240   9.396  17.479  0.00  0.00    +0.000 OA
ATOM      4  N   UNL     1       2.678   7.137  17.495  0.00  0.00    +0.000 N 
ATOM      5  C   UNL     1       2.815   6.095  18.497  0.00  0.00    +0.000 C 
ATOM      6  C   UNL     1       2.258   4.759  18.022  0.00  0.00    +0.000 C 
ATOM      7  C   UNL     1       3.243   3.919  17.187  0.00  0.00    +0.000 C 
ATOM      8  C   UNL     1       4.672   4.400  17.122  0.00  0.00    +0.000 A 
ATOM      9  C   UNL     1       5.550   3.853  16.179  0.00  0.00    +0.000 A 
ATOM     10  C   UNL     1       6.884   4.260  16.123  0.00  0.00    +0.000 A 
ATOM     11  C   UNL     1       7.363   5.210  17.022  0.00  0.00    +0.000 A 
ATOM     12  C   UNL     1       6.504   5.756  17.969  0.00  0.00    +0.000 A 
ATOM     13  C   UNL     1       5.160   5.367  18.014  0.00  0.00    +0.000 A 
ATOM     14  C   UNL     1       4.245   5.965  19.038  0.00  0.00    +0.000 C 
ATOM     15  C   UNL     1       2.026   6.749  19.639  0.00  0.00    +0.000 C 
ATOM     16  O   UNL     1       1.731   6.215  20.704  0.00  0.00    +0.000 OA
ATOM     17  H   UNL     1       3.210   7.167  16.632  0.00  0.00    +0.000 HD
ENDROOT
BRANCH   1  18
ATOM     18  C   UNL     1       1.580   9.106  20.307  0.00  0.00    +0.000 C 
BRANCH  18  20
ATOM     19  O   UNL     1      -0.687   9.075  21.191  0.00  0.00    +0.000 OA
ATOM     20  C   UNL     1       0.065   9.406  20.277  0.00  0.00    +0.000 C 
ATOM     21  N   UNL     1      -0.343  10.049  19.118  0.00  0.00    +0.000 N 
ATOM     22  H   UNL     1       0.275  10.017  18.315  0.00  0.00    +0.000 HD
BRANCH  21  23
ATOM     23  C   UNL     1      -1.649  10.534  18.855  0.00  0.00    +0.000 A 
ATOM     24  C   UNL     1      -2.554   9.914  17.988  0.00  0.00    +0.000 A 
ATOM     25  C   UNL     1      -3.798  10.508  17.728  0.00  0.00    +0.000 A 
ATOM     26  C   UNL     1      -4.142  11.711  18.341  0.00  0.00    +0.000 A 
ATOM     27 CL   UNL     1      -5.638  12.469  17.960  0.00  0.00    +0.000 Cl
ATOM     28  C   UNL     1      -3.278  12.307  19.253  0.00  0.00    +0.000 A 
ATOM     29  C   UNL     1      -2.047  11.708  19.510  0.00  0.00    +0.000 A 
ATOM     30  F   UNL     1      -1.211  12.290  20.380  0.00  0.00    +0.000 F 
ENDBRANCH  21  23
ENDBRANCH  18  20
ENDBRANCH   1  18
TORSDOF 3
ENDMDL
MODEL 7
REMARK VINA RESULT:      -7.8      6.618      9.490
REMARK  Name = 
REMARK  3 active torsions:
REMARK  status: ('A' for Active; 'I' for Inactive)
REMARK    1  A    between atoms: C_2  and  C_3
REMARK    2  A    between atoms: C_3  and  N_4
REMARK    3  A    between atoms: N_20  and  C_21
REMARK                            x       y       z     vdW  Elec       q    Type
REMARK                         _______ _______ _______ _____ _____    ______ ____
ROOT
ATOM      1  N   UNL     1       5.867   6.435  17.814  0.00  0.00    +0.000 N 
ATOM      2  C   UNL     1       4.659   6.636  17.216  0.00  0.00    +0.000 C 
ATOM      3  O   UNL     1       4.450   7.145  16.130  0.00  0.00    +0.000 OA
ATOM      4  N   UNL     1       3.680   6.139  18.051  0.00  0.00    +0.000 N 
ATOM      5  C   UNL     1       4.249   5.359  19.136  0.00  0.00    +0.000 C 
ATOM      6  C   UNL     1       3.593   5.669  20.476  0.00  0.00    +0.000 C 
ATOM      7  C   UNL     1       2.299   4.880  20.749  0.00  0.00    +0.000 C 
ATOM      8  C   UNL     1       1.958   3.767  19.788  0.00  0.00    +0.000 A 
ATOM      9  C   UNL     1       0.682   3.192  19.810  0.00  0.00    +0.000 A 
ATOM     10  C   UNL     1       0.356   2.140  18.952  0.00  0.00    +0.000 A 
ATOM     11  C   UNL     1       1.309   1.636  18.071  0.00  0.00    +0.000 A 
ATOM     12  C   UNL     1       2.583   2.193  18.043  0.00  0.00    +0.000 A 
ATOM     13  C   UNL     1       2.907   3.263  18.885  0.00  0.00    +0.000 A 
ATOM     14  C   UNL     1       4.282   3.853  18.844  0.00  0.00    +0.000 C 
ATOM     15  C   UNL     1       5.711   5.810  19.019  0.00  0.00    +0.000 C 
ATOM     16  O   UNL     1       6.613   5.529  19.803  0.00  0.00    +0.000 OA
ATOM     17  H   UNL     1       2.746   5.997  17.681  0.00  0.00    +0.000 HD
ENDROOT
BRANCH   1  18
ATOM     18  C   UNL     1       7.135   6.595  17.133  0.00  0.00    +0.000 C 
BRANCH  18  20
ATOM     19  O   UNL     1       7.942   4.416  16.412  0.00  0.00    +0.000 OA
ATOM     20  C   UNL     1       7.298   5.426  16.137  0.00  0.00    +0.000 C 
ATOM     21  N   UNL     1       6.676   5.654  14.919  0.00  0.00    +0.000 N 
ATOM     22  H   UNL     1       6.428   6.609  14.683  0.00  0.00    +0.000 HD
BRANCH  21  23
ATOM     23  C   UNL     1       6.574   4.725  13.853  0.00  0.00    +0.000 A 
ATOM     24  C   UNL     1       5.540   3.795  13.720  0.00  0.00    +0.000 A 
ATOM     25  C   UNL     1       5.562   2.861  12.674  0.00  0.00    +0.000 A 
ATOM     26  C   UNL     1       6.609   2.865  11.754  0.00  0.00    +0.000 A 
ATOM     27 CL   UNL     1       6.668   1.671  10.518  0.00  0.00    +0.000 Cl
ATOM     28  C   UNL     1       7.613   3.824  11.836  0.00  0.00    +0.000 A 
ATOM     29  C   UNL     1       7.580   4.750  12.876  0.00  0.00    +0.000 A 
ATOM     30  F   UNL     1       8.554   5.666  12.960  0.00  0.00    +0.000 F 
ENDBRANCH  21  23
ENDBRANCH  18  20
ENDBRANCH   1  18
TORSDOF 3
ENDMDL
MODEL 8
REMARK VINA RESULT:      -7.7      1.234      1.234
REMARK  Name = 
REMARK  3 active torsions:
REMARK  status: ('A' for Active; 'I' for Inactive)
REMARK    1  A    between atoms: C_2  and  C_3
REMARK    2  A    between atoms: C_3  and  N_4
REMARK    3  A    between atoms: N_20  and  C_21
REMARK                            x       y       z     vdW  Elec       q    Type
REMARK                         _______ _______ _______ _____ _____    ______ ____
ROOT
ATOM      1  N   UNL     1       1.811   7.583  20.000  0.00  0.00    +0.000 N 
ATOM      2  C   UNL     1       2.213   8.068  18.791  0.00  0.00    +0.000 C 
ATOM      3  O   UNL     1       2.234   9.232  18.436  0.00  0.00    +0.000 OA
ATOM      4  N   UNL     1       2.624   7.004  18.017  0.00  0.00    +0.000 N 
ATOM      5  C   UNL     1       2.735   5.786  18.800  0.00  0.00    +0.000 C 
ATOM      6  C   UNL     1       2.153   4.579  18.076  0.00  0.00    +0.000 C 
ATOM      7  C   UNL     1       3.123   3.894  17.096  0.00  0.00    +0.000 C 
ATOM      8  C   UNL     1       4.563   4.348  17.125  0.00  0.00    +0.000 A 
ATOM      9  C   UNL     1       5.433   3.974  16.095  0.00  0.00    +0.000 A 
ATOM     10  C   UNL     1       6.776   4.356  16.120  0.00  0.00    +0.000 A 
ATOM     11  C   UNL     1       7.271   5.105  17.185  0.00  0.00    +0.000 A 
ATOM     12  C   UNL     1       6.418   5.476  18.219  0.00  0.00    +0.000 A 
ATOM     13  C   UNL     1       5.066   5.115  18.186  0.00  0.00    +0.000 A 
ATOM     14  C   UNL     1       4.160   5.524  19.306  0.00  0.00    +0.000 C 
ATOM     15  C   UNL     1       1.955   6.225  20.046  0.00  0.00    +0.000 C 
ATOM     16  O   UNL     1       1.643   5.502  20.988  0.00  0.00    +0.000 OA
ATOM     17  H   UNL     1       3.161   7.189  17.176  0.00  0.00    +0.000 HD
ENDROOT
BRANCH   1  18
ATOM     18  C   UNL     1       1.554   8.418  21.155  0.00  0.00    +0.000 C 
BRANCH  18  20
ATOM     19  O   UNL     1      -0.595   9.234  20.360  0.00  0.00    +0.000 OA
ATOM     20  C   UNL     1       0.539   9.508  20.744  0.00  0.00    +0.000 C 
ATOM     21  N   UNL     1       1.051  10.793  20.830  0.00  0.00    +0.000 N 
ATOM     22  H   UNL     1       2.058  10.902  20.871  0.00  0.00    +0.000 HD
BRANCH  21  23
ATOM     23  C   UNL     1       0.325  11.991  20.611  0.00  0.00    +0.000 A 
ATOM     24  C   UNL     1       0.320  12.695  19.404  0.00  0.00    +0.000 A 
ATOM     25  C   UNL     1      -0.365  13.914  19.302  0.00  0.00    +0.000 A 
ATOM     26  C   UNL     1      -1.055  14.423  20.400  0.00  0.00    +0.000 A 
ATOM     27 CL   UNL     1      -1.831  15.954  20.290  0.00  0.00    +0.000 Cl
ATOM     28  C   UNL     1      -1.112  13.705  21.590  0.00  0.00    +0.000 A 
ATOM     29  C   UNL     1      -0.431  12.492  21.681  0.00  0.00    +0.000 A 
ATOM     30  F   UNL     1      -0.478  11.807  22.830  0.00  0.00    +0.000 F 
ENDBRANCH  21  23
ENDBRANCH  18  20
ENDBRANCH   1  18
TORSDOF 3
ENDMDL
MODEL 9
REMARK VINA RESULT:      -7.5      3.698      9.928
REMARK  Name = 
REMARK  3 active torsions:
REMARK  status: ('A' for Active; 'I' for Inactive)
REMARK    1  A    between atoms: C_2  and  C_3
REMARK    2  A    between atoms: C_3  and  N_4
REMARK    3  A    between atoms: N_20  and  C_21
REMARK                            x       y       z     vdW  Elec       q    Type
REMARK                         _______ _______ _______ _____ _____    ______ ____
ROOT
ATOM      1  N   UNL     1      -0.019  10.445  21.854  0.00  0.00    +0.000 N 
ATOM      2  C   UNL     1      -0.512  10.316  23.118  0.00  0.00    +0.000 C 
ATOM      3  O   UNL     1      -0.118   9.562  23.988  0.00  0.00    +0.000 OA
ATOM      4  N   UNL     1      -1.547  11.215  23.268  0.00  0.00    +0.000 N 
ATOM      5  C   UNL     1      -1.605  12.152  22.161  0.00  0.00    +0.000 C 
ATOM      6  C   UNL     1      -3.030  12.380  21.671  0.00  0.00    +0.000 C 
ATOM      7  C   UNL     1      -3.810  13.449  22.459  0.00  0.00    +0.000 C 
ATOM      8  C   UNL     1      -3.030  14.277  23.451  0.00  0.00    +0.000 A 
ATOM      9  C   UNL     1      -3.708  15.068  24.386  0.00  0.00    +0.000 A 
ATOM     10  C   UNL     1      -3.006  15.865  25.291  0.00  0.00    +0.000 A 
ATOM     11  C   UNL     1      -1.614  15.895  25.263  0.00  0.00    +0.000 A 
ATOM     12  C   UNL     1      -0.928  15.120  24.335  0.00  0.00    +0.000 A 
ATOM     13  C   UNL     1      -1.627  14.301  23.441  0.00  0.00    +0.000 A 
ATOM     14  C   UNL     1      -0.875  13.470  22.448  0.00  0.00    +0.000 C 
ATOM     15  C   UNL     1      -0.698  11.413  21.168  0.00  0.00    +0.000 C 
ATOM     16  O   UNL     1      -0.506  11.731  19.998  0.00  0.00    +0.000 OA
ATOM     17  H   UNL     1      -1.887  11.419  24.202  0.00  0.00    +0.000 HD
ENDROOT
BRANCH   1  18
ATOM     18  C   UNL     1       1.226   9.851  21.414  0.00  0.00    +0.000 C 
BRANCH  18  20
ATOM     19  O   UNL     1      -0.167   7.878  21.120  0.00  0.00    +0.000 OA
ATOM     20  C   UNL     1       0.940   8.394  20.989  0.00  0.00    +0.000 C 
ATOM     21  N   UNL     1       2.055   7.742  20.483  0.00  0.00    +0.000 N 
ATOM     22  H   UNL     1       2.967   8.138  20.682  0.00  0.00    +0.000 HD
BRANCH  21  23
ATOM     23  C   UNL     1       2.072   6.438  19.927  0.00  0.00    +0.000 A 
ATOM     24  C   UNL     1       1.830   5.272  20.659  0.00  0.00    +0.000 A 
ATOM     25  C   UNL     1       1.945   4.018  20.042  0.00  0.00    +0.000 A 
ATOM     26  C   UNL     1       2.289   3.928  18.695  0.00  0.00    +0.000 A 
ATOM     27 CL   UNL     1       2.500   2.386  17.965  0.00  0.00    +0.000 Cl
ATOM     28  C   UNL     1       2.472   5.081  17.939  0.00  0.00    +0.000 A 
ATOM     29  C   UNL     1       2.351   6.323  18.558  0.00  0.00    +0.000 A 
ATOM     30  F   UNL     1       2.539   7.432  17.830  0.00  0.00    +0.000 F 
ENDBRANCH  21  23
ENDBRANCH  18  20
ENDBRANCH   1  18
TORSDOF 3
ENDMDL
