MODEL 1
REMARK VINA RESULT:      -8.9      0.000      0.000
REMARK  Name = 
REMARK  9 active torsions:
REMARK  status: ('A' for Active; 'I' for Inactive)
REMARK    1  A    between atoms: C_1  and  C_2
REMARK    2  A    between atoms: C_2  and  C_3
REMARK    3  A    between atoms: C_3  and  C_4
REMARK    4  A    between atoms: C_3  and  C_25
REMARK    5  A    between atoms: C_8  and  N_9
REMARK    6  A    between atoms: C_10  and  C_12
REMARK    7  A    between atoms: N_20  and  C_21
REMARK    8  A    between atoms: C_21  and  C_22
REMARK    9  A    between atoms: N_29  and  C_30
REMARK                            x       y       z     vdW  Elec       q    Type
REMARK                         _______ _______ _______ _____ _____    ______ ____
ROOT
ATOM      1  N   UNL     1       2.087   7.692  18.981  0.00  0.00    +0.000 N 
ATOM      2  C   UNL     1       1.802   8.912  18.395  0.00  0.00    +0.000 C 
ATOM      3  O   UNL     1       1.941   9.240  17.217  0.00  0.00    +0.000 OA
ATOM      4  H   UNL     1       1.789   7.592  19.949  0.00  0.00    +0.000 HD
ENDROOT
BRANCH   2   5
ATOM      5  C   UNL     1       1.085   9.947  19.264  0.00  0.00    +0.000 C 
ATOM      6  N   UNL     1       0.857   9.693  20.523  0.00  0.00    +0.000 NA
ATOM      7  C   UNL     1      -0.038  10.608  21.156  0.00  0.00    +0.000 A 
ATOM      8  C   UNL     1      -0.328  10.412  22.508  0.00  0.00    +0.000 A 
ATOM      9  C   UNL     1      -1.379  11.103  23.113  0.00  0.00    +0.000 A 
ATOM     10  C   UNL     1      -2.146  11.995  22.369  0.00  0.00    +0.000 A 
ATOM     11  C   UNL     1      -1.813  12.270  21.040  0.00  0.00    +0.000 A 
ATOM     12  C   UNL     1      -0.736  11.617  20.426  0.00  0.00    +0.000 A 
ATOM     13  N   UNL     1      -0.359  11.855  19.084  0.00  0.00    +0.000 N 
ATOM     14  N   UNL     1       0.659  11.082  18.576  0.00  0.00    +0.000 N 
ATOM     15  H   UNL     1       0.685  10.951  17.564  0.00  0.00    +0.000 HD
BRANCH  13  16
ATOM     16  C   UNL     1      -0.520  13.198  18.498  0.00  0.00    +0.000 C 
ATOM     17  C   UNL     1       0.659  14.122  18.776  0.00  0.00    +0.000 C 
ENDBRANCH  13  16
ENDBRANCH   2   5
BRANCH   1  22
ATOM     18  C   UNL     1       4.344   5.328  17.154  0.00  0.00    +0.000 A 
ATOM     19  C   UNL     1       3.530   4.185  17.100  0.00  0.00    +0.000 A 
ATOM     20  C   UNL     1       2.231   4.222  17.586  0.00  0.00    +0.000 A 
ATOM     21  C   UNL     1       1.736   5.386  18.168  0.00  0.00    +0.000 A 
ATOM     22  C   UNL     1       2.528   6.538  18.276  0.00  0.00    +0.000 A 
ATOM     23  C   UNL     1       3.814   6.515  17.718  0.00  0.00    +0.000 A 
BRANCH  18  24
ATOM     24  C   UNL     1       5.788   5.215  16.671  0.00  0.00    +0.000 C 
BRANCH  24  25
ATOM     25  C   UNL     1       6.792   5.430  17.775  0.00  0.00    +0.000 A 
ATOM     26  N   UNL     1       7.250   4.504  18.595  0.00  0.00    +0.000 NA
ATOM     27  N   UNL     1       8.227   5.062  19.381  0.00  0.00    +0.000 NA
ATOM     28  C   UNL     1       8.337   6.322  19.040  0.00  0.00    +0.000 A 
ATOM     29  N   UNL     1       7.452   6.602  18.048  0.00  0.00    +0.000 N 
ATOM     30  C   UNL     1       7.288   7.887  17.419  0.00  0.00    +0.000 C 
ENDBRANCH  24  25
BRANCH  24  32
ATOM     31  C   UNL     1       6.216   4.002  14.433  0.00  0.00    +0.000 C 
ATOM     32  C   UNL     1       6.075   3.875  15.946  0.00  0.00    +0.000 C 
ENDBRANCH  24  32
ENDBRANCH  18  24
ENDBRANCH   1  22
TORSDOF 6
ENDMDL
MODEL 2
REMARK VINA RESULT:      -8.2      2.130      3.192
REMARK  Name = 
REMARK  9 active torsions:
REMARK  status: ('A' for Active; 'I' for Inactive)
REMARK    1  A    between atoms: C_1  and  C_2
REMARK    2  A    between atoms: C_2  and  C_3
REMARK    3  A    between atoms: C_3  and  C_4
REMARK    4  A    between atoms: C_3  and  C_25
REMARK    5  A    between atoms: C_8  and  N_9
REMARK    6  A    between atoms: C_10  and  C_12
REMARK    7  A    between atoms: N_20  and  C_21
REMARK    8  A    between atoms: C_21  and  C_22
REMARK    9  A    between atoms: N_29  and  C_30
REMARK                            x       y       z     vdW  Elec       q    Type
REMARK                         _______ _______ _______ _____ _____    ______ ____
ROOT
ATOM      1  N   UNL     1       1.900   8.311  19.408  0.00  0.00    +0.000 N 
ATOM      2  C   UNL     1       2.105   8.991  18.221  0.00  0.00    +0.000 C 
ATOM      3  O   UNL     1       2.566   8.556  17.167  0.00  0.00    +0.000 OA
ATOM      4  H   UNL     1       1.399   8.828  20.127  0.00  0.00    +0.000 HD
ENDROOT
BRANCH   2   5
ATOM      5  C   UNL     1       1.560  10.418  18.139  0.00  0.00    +0.000 C 
ATOM      6  N   UNL     1       2.383  11.430  18.126  0.00  0.00    +0.000 NA
ATOM      7  C   UNL     1       1.758  12.700  18.310  0.00  0.00    +0.000 A 
ATOM      8  C   UNL     1       2.569  13.838  18.300  0.00  0.00    +0.000 A 
ATOM      9  C   UNL     1       2.066  15.068  18.727  0.00  0.00    +0.000 A 
ATOM     10  C   UNL     1       0.748  15.168  19.165  0.00  0.00    +0.000 A 
ATOM     11  C   UNL     1      -0.101  14.061  19.095  0.00  0.00    +0.000 A 
ATOM     12  C   UNL     1       0.373  12.827  18.632  0.00  0.00    +0.000 A 
ATOM     13  N   UNL     1      -0.443  11.676  18.546  0.00  0.00    +0.000 N 
ATOM     14  N   UNL     1       0.169  10.505  18.160  0.00  0.00    +0.000 N 
ATOM     15  H   UNL     1      -0.268   9.631  18.456  0.00  0.00    +0.000 HD
BRANCH  13  16
ATOM     16  C   UNL     1      -1.876  11.807  18.221  0.00  0.00    +0.000 C 
ATOM     17  C   UNL     1      -2.308  10.938  17.046  0.00  0.00    +0.000 C 
ENDBRANCH  13  16
ENDBRANCH   2   5
BRANCH   1  22
ATOM     18  C   UNL     1       3.174   4.839  18.827  0.00  0.00    +0.000 A 
ATOM     19  C   UNL     1       2.798   4.221  20.030  0.00  0.00    +0.000 A 
ATOM     20  C   UNL     1       2.065   4.919  20.980  0.00  0.00    +0.000 A 
ATOM     21  C   UNL     1       1.730   6.252  20.763  0.00  0.00    +0.000 A 
ATOM     22  C   UNL     1       2.119   6.918  19.592  0.00  0.00    +0.000 A 
ATOM     23  C   UNL     1       2.796   6.186  18.605  0.00  0.00    +0.000 A 
BRANCH  18  24
ATOM     24  C   UNL     1       4.040   4.050  17.847  0.00  0.00    +0.000 C 
BRANCH  24  25
ATOM     25  C   UNL     1       5.507   4.382  17.965  0.00  0.00    +0.000 A 
ATOM     26  N   UNL     1       6.148   4.663  19.082  0.00  0.00    +0.000 NA
ATOM     27  N   UNL     1       7.484   4.796  18.796  0.00  0.00    +0.000 NA
ATOM     28  C   UNL     1       7.633   4.611  17.509  0.00  0.00    +0.000 A 
ATOM     29  N   UNL     1       6.423   4.361  16.943  0.00  0.00    +0.000 N 
ATOM     30  C   UNL     1       6.196   4.106  15.544  0.00  0.00    +0.000 C 
ENDBRANCH  24  25
BRANCH  24  32
ATOM     31  C   UNL     1       2.416   2.056  17.631  0.00  0.00    +0.000 C 
ATOM     32  C   UNL     1       3.832   2.518  17.960  0.00  0.00    +0.000 C 
ENDBRANCH  24  32
ENDBRANCH  18  24
ENDBRANCH   1  22
TORSDOF 6
ENDMDL
MODEL 3
REMARK VINA RESULT:      -8.2      1.052      1.263
REMARK  Name = 
REMARK  9 active torsions:
REMARK  status: ('A' for Active; 'I' for Inactive)
REMARK    1  A    between atoms: C_1  and  C_2
REMARK    2  A    between atoms: C_2  and  C_3
REMARK    3  A    between atoms: C_3  and  C_4
REMARK    4  A    between atoms: C_3  and  C_25
REMARK    5  A    between atoms: C_8  and  N_9
REMARK    6  A    between atoms: C_10  and  C_12
REMARK    7  A    between atoms: N_20  and  C_21
REMARK    8  A    between atoms: C_21  and  C_22
REMARK    9  A    between atoms: N_29  and  C_30
REMARK                            x       y       z     vdW  Elec       q    Type
REMARK                         _______ _______ _______ _____ _____    ______ ____
ROOT
ATOM      1  N   UNL     1       1.778   7.679  18.699  0.00  0.00    +0.000 N 
ATOM      2  C   UNL     1       1.849   8.938  18.129  0.00  0.00    +0.000 C 
ATOM      3  O   UNL     1       2.471   9.283  17.126  0.00  0.00    +0.000 OA
ATOM      4  H   UNL     1       1.113   7.582  19.463  0.00  0.00    +0.000 HD
ENDROOT
BRANCH   2   5
ATOM      5  C   UNL     1       0.930  10.014  18.712  0.00  0.00    +0.000 C 
ATOM      6  N   UNL     1       1.111  10.433  19.934  0.00  0.00    +0.000 NA
ATOM      7  C   UNL     1       0.047  11.233  20.447  0.00  0.00    +0.000 A 
ATOM      8  C   UNL     1       0.166  11.729  21.747  0.00  0.00    +0.000 A 
ATOM      9  C   UNL     1      -0.935  12.293  22.392  0.00  0.00    +0.000 A 
ATOM     10  C   UNL     1      -2.164  12.364  21.741  0.00  0.00    +0.000 A 
ATOM     11  C   UNL     1      -2.278  11.955  20.410  0.00  0.00    +0.000 A 
ATOM     12  C   UNL     1      -1.174  11.424  19.730  0.00  0.00    +0.000 A 
ATOM     13  N   UNL     1      -1.237  10.992  18.386  0.00  0.00    +0.000 N 
ATOM     14  N   UNL     1      -0.105  10.406  17.866  0.00  0.00    +0.000 N 
ATOM     15  H   UNL     1      -0.231   9.761  17.085  0.00  0.00    +0.000 HD
BRANCH  13  16
ATOM     16  C   UNL     1      -2.120  11.682  17.428  0.00  0.00    +0.000 C 
ATOM     17  C   UNL     1      -2.632  10.771  16.318  0.00  0.00    +0.000 C 
ENDBRANCH  13  16
ENDBRANCH   2   5
BRANCH   1  22
ATOM     18  C   UNL     1       4.343   5.393  17.210  0.00  0.00    +0.000 A 
ATOM     19  C   UNL     1       3.671   4.164  17.292  0.00  0.00    +0.000 A 
ATOM     20  C   UNL     1       2.364   4.105  17.756  0.00  0.00    +0.000 A 
ATOM     21  C   UNL     1       1.722   5.265  18.181  0.00  0.00    +0.000 A 
ATOM     22  C   UNL     1       2.369   6.508  18.151  0.00  0.00    +0.000 A 
ATOM     23  C   UNL     1       3.664   6.570  17.613  0.00  0.00    +0.000 A 
BRANCH  18  24
ATOM     24  C   UNL     1       5.803   5.394  16.761  0.00  0.00    +0.000 C 
BRANCH  24  25
ATOM     25  C   UNL     1       6.766   5.590  17.904  0.00  0.00    +0.000 A 
ATOM     26  N   UNL     1       7.083   4.686  18.811  0.00  0.00    +0.000 NA
ATOM     27  N   UNL     1       8.071   5.201  19.612  0.00  0.00    +0.000 NA
ATOM     28  C   UNL     1       8.329   6.414  19.193  0.00  0.00    +0.000 A 
ATOM     29  N   UNL     1       7.529   6.707  18.134  0.00  0.00    +0.000 N 
ATOM     30  C   UNL     1       7.532   7.952  17.410  0.00  0.00    +0.000 C 
ENDBRANCH  24  25
BRANCH  24  32
ATOM     31  C   UNL     1       6.235   4.335  14.447  0.00  0.00    +0.000 C 
ATOM     32  C   UNL     1       6.184   4.125  15.957  0.00  0.00    +0.000 C 
ENDBRANCH  24  32
ENDBRANCH  18  24
ENDBRANCH   1  22
TORSDOF 6
ENDMDL
MODEL 4
REMARK VINA RESULT:      -8.1      0.879      1.312
REMARK  Name = 
REMARK  9 active torsions:
REMARK  status: ('A' for Active; 'I' for Inactive)
REMARK    1  A    between atoms: C_1  and  C_2
REMARK    2  A    between atoms: C_2  and  C_3
REMARK    3  A    between atoms: C_3  and  C_4
REMARK    4  A    between atoms: C_3  and  C_25
REMARK    5  A    between atoms: C_8  and  N_9
REMARK    6  A    between atoms: C_10  and  C_12
REMARK    7  A    between atoms: N_20  and  C_21
REMARK    8  A    between atoms: C_21  and  C_22
REMARK    9  A    between atoms: N_29  and  C_30
REMARK                            x       y       z     vdW  Elec       q    Type
REMARK                         _______ _______ _______ _____ _____    ______ ____
ROOT
ATOM      1  N   UNL     1       1.928   7.826  19.650  0.00  0.00    +0.000 N 
ATOM      2  C   UNL     1       1.545   8.940  18.924  0.00  0.00    +0.000 C 
ATOM      3  O   UNL     1       1.596   9.106  17.706  0.00  0.00    +0.000 OA
ATOM      4  H   UNL     1       1.693   7.848  20.640  0.00  0.00    +0.000 HD
ENDROOT
BRANCH   2   5
ATOM      5  C   UNL     1       0.827  10.052  19.690  0.00  0.00    +0.000 C 
ATOM      6  N   UNL     1       0.476   9.865  20.933  0.00  0.00    +0.000 NA
ATOM      7  C   UNL     1      -0.406  10.860  21.452  0.00  0.00    +0.000 A 
ATOM      8  C   UNL     1      -0.823  10.738  22.780  0.00  0.00    +0.000 A 
ATOM      9  C   UNL     1      -1.873  11.518  23.265  0.00  0.00    +0.000 A 
ATOM     10  C   UNL     1      -2.512  12.427  22.426  0.00  0.00    +0.000 A 
ATOM     11  C   UNL     1      -2.049  12.626  21.123  0.00  0.00    +0.000 A 
ATOM     12  C   UNL     1      -0.970  11.881  20.629  0.00  0.00    +0.000 A 
ATOM     13  N   UNL     1      -0.464  12.040  19.318  0.00  0.00    +0.000 N 
ATOM     14  N   UNL     1       0.539  11.183  18.928  0.00  0.00    +0.000 N 
ATOM     15  H   UNL     1       0.643  11.010  17.928  0.00  0.00    +0.000 HD
BRANCH  13  16
ATOM     16  C   UNL     1      -0.484  13.366  18.674  0.00  0.00    +0.000 C 
ATOM     17  C   UNL     1       0.625  14.290  19.163  0.00  0.00    +0.000 C 
ENDBRANCH  13  16
ENDBRANCH   2   5
BRANCH   1  22
ATOM     18  C   UNL     1       3.946   5.439  17.589  0.00  0.00    +0.000 A 
ATOM     19  C   UNL     1       3.505   4.213  18.108  0.00  0.00    +0.000 A 
ATOM     20  C   UNL     1       2.500   4.174  19.065  0.00  0.00    +0.000 A 
ATOM     21  C   UNL     1       1.947   5.358  19.545  0.00  0.00    +0.000 A 
ATOM     22  C   UNL     1       2.386   6.606  19.081  0.00  0.00    +0.000 A 
ATOM     23  C   UNL     1       3.350   6.634  18.062  0.00  0.00    +0.000 A 
BRANCH  18  24
ATOM     24  C   UNL     1       5.103   5.431  16.591  0.00  0.00    +0.000 C 
BRANCH  24  25
ATOM     25  C   UNL     1       6.284   6.243  17.060  0.00  0.00    +0.000 A 
ATOM     26  N   UNL     1       6.807   7.280  16.435  0.00  0.00    +0.000 NA
ATOM     27  N   UNL     1       7.790   7.816  17.228  0.00  0.00    +0.000 NA
ATOM     28  C   UNL     1       7.863   7.089  18.315  0.00  0.00    +0.000 A 
ATOM     29  N   UNL     1       6.949   6.086  18.251  0.00  0.00    +0.000 N 
ATOM     30  C   UNL     1       6.737   5.088  19.268  0.00  0.00    +0.000 C 
ENDBRANCH  24  25
BRANCH  24  32
ATOM     31  C   UNL     1       6.177   3.887  14.824  0.00  0.00    +0.000 C 
ATOM     32  C   UNL     1       5.560   3.999  16.214  0.00  0.00    +0.000 C 
ENDBRANCH  24  32
ENDBRANCH  18  24
ENDBRANCH   1  22
TORSDOF 6
ENDMDL
MODEL 5
REMARK VINA RESULT:      -8.1      1.264      1.492
REMARK  Name = 
REMARK  9 active torsions:
REMARK  status: ('A' for Active; 'I' for Inactive)
REMARK    1  A    between atoms: C_1  and  C_2
REMARK    2  A    between atoms: C_2  and  C_3
REMARK    3  A    between atoms: C_3  and  C_4
REMARK    4  A    between atoms: C_3  and  C_25
REMARK    5  A    between atoms: C_8  and  N_9
REMARK    6  A    between atoms: C_10  and  C_12
REMARK    7  A    between atoms: N_20  and  C_21
REMARK    8  A    between atoms: C_21  and  C_22
REMARK    9  A    between atoms: N_29  and  C_30
REMARK                            x       y       z     vdW  Elec       q    Type
REMARK                         _______ _______ _______ _____ _____    ______ ____
ROOT
ATOM      1  N   UNL     1       1.562   8.191  20.442  0.00  0.00    +0.000 N 
ATOM      2  C   UNL     1       1.136   9.202  19.600  0.00  0.00    +0.000 C 
ATOM      3  O   UNL     1       1.104   9.203  18.370  0.00  0.00    +0.000 OA
ATOM      4  H   UNL     1       1.397   8.349  21.434  0.00  0.00    +0.000 HD
ENDROOT
BRANCH   2   5
ATOM      5  C   UNL     1       0.480  10.418  20.256  0.00  0.00    +0.000 C 
ATOM      6  N   UNL     1      -0.122  10.292  21.407  0.00  0.00    +0.000 NA
ATOM      7  C   UNL     1      -0.911  11.420  21.786  0.00  0.00    +0.000 A 
ATOM      8  C   UNL     1      -1.582  11.369  23.010  0.00  0.00    +0.000 A 
ATOM      9  C   UNL     1      -2.562  12.313  23.319  0.00  0.00    +0.000 A 
ATOM     10  C   UNL     1      -2.876  13.316  22.405  0.00  0.00    +0.000 A 
ATOM     11  C   UNL     1      -2.152  13.435  21.216  0.00  0.00    +0.000 A 
ATOM     12  C   UNL     1      -1.136  12.521  20.906  0.00  0.00    +0.000 A 
ATOM     13  N   UNL     1      -0.377  12.594  19.715  0.00  0.00    +0.000 N 
ATOM     14  N   UNL     1       0.527  11.582  19.490  0.00  0.00    +0.000 N 
ATOM     15  H   UNL     1       0.786  11.395  18.521  0.00  0.00    +0.000 HD
BRANCH  13  16
ATOM     16  C   UNL     1      -0.059  13.905  19.120  0.00  0.00    +0.000 C 
ATOM     17  C   UNL     1       1.398  14.033  18.690  0.00  0.00    +0.000 C 
ENDBRANCH  13  16
ENDBRANCH   2   5
BRANCH   1  22
ATOM     18  C   UNL     1       3.559   5.506  18.763  0.00  0.00    +0.000 A 
ATOM     19  C   UNL     1       2.984   4.361  19.335  0.00  0.00    +0.000 A 
ATOM     20  C   UNL     1       1.903   4.472  20.199  0.00  0.00    +0.000 A 
ATOM     21  C   UNL     1       1.403   5.727  20.533  0.00  0.00    +0.000 A 
ATOM     22  C   UNL     1       1.972   6.899  20.013  0.00  0.00    +0.000 A 
ATOM     23  C   UNL     1       3.017   6.775  19.086  0.00  0.00    +0.000 A 
BRANCH  18  24
ATOM     24  C   UNL     1       4.791   5.334  17.876  0.00  0.00    +0.000 C 
BRANCH  24  25
ATOM     25  C   UNL     1       6.083   5.542  18.625  0.00  0.00    +0.000 A 
ATOM     26  N   UNL     1       6.440   4.929  19.736  0.00  0.00    +0.000 NA
ATOM     27  N   UNL     1       7.725   5.300  20.045  0.00  0.00    +0.000 NA
ATOM     28  C   UNL     1       8.124   6.144  19.128  0.00  0.00    +0.000 A 
ATOM     29  N   UNL     1       7.128   6.336  18.224  0.00  0.00    +0.000 N 
ATOM     30  C   UNL     1       7.205   7.198  17.073  0.00  0.00    +0.000 C 
ENDBRANCH  24  25
BRANCH  24  32
ATOM     31  C   UNL     1       5.630   3.969  15.852  0.00  0.00    +0.000 C 
ATOM     32  C   UNL     1       4.816   3.968  17.143  0.00  0.00    +0.000 C 
ENDBRANCH  24  32
ENDBRANCH  18  24
ENDBRANCH   1  22
TORSDOF 6
ENDMDL
MODEL 6
REMARK VINA RESULT:      -8.0      2.211      9.339
REMARK  Name = 
REMARK  9 active torsions:
REMARK  status: ('A' for Active; 'I' for Inactive)
REMARK    1  A    between atoms: C_1  and  C_2
REMARK    2  A    between atoms: C_2  and  C_3
REMARK    3  A    between atoms: C_3  and  C_4
REMARK    4  A    between atoms: C_3  and  C_25
REMARK    5  A    between atoms: C_8  and  N_9
REMARK    6  A    between atoms: C_10  and  C_12
REMARK    7  A    between atoms: N_20  and  C_21
REMARK    8  A    between atoms: C_21  and  C_22
REMARK    9  A    between atoms: N_29  and  C_30
REMARK                            x       y       z     vdW  Elec       q    Type
REMARK                         _______ _______ _______ _____ _____    ______ ____
ROOT
ATOM      1  N   UNL     1       2.298   7.706  20.275  0.00  0.00    +0.000 N 
ATOM      2  C   UNL     1       2.120   6.334  20.260  0.00  0.00    +0.000 C 
ATOM      3  O   UNL     1       1.190   5.684  20.736  0.00  0.00    +0.000 OA
ATOM      4  H   UNL     1       3.079   8.051  19.721  0.00  0.00    +0.000 HD
ENDROOT
BRANCH   2   5
ATOM      5  C   UNL     1       3.107   5.517  19.424  0.00  0.00    +0.000 C 
ATOM      6  N   UNL     1       4.305   5.981  19.194  0.00  0.00    +0.000 NA
ATOM      7  C   UNL     1       5.034   5.262  18.199  0.00  0.00    +0.000 A 
ATOM      8  C   UNL     1       6.330   5.689  17.900  0.00  0.00    +0.000 A 
ATOM      9  C   UNL     1       6.991   5.201  16.772  0.00  0.00    +0.000 A 
ATOM     10  C   UNL     1       6.361   4.282  15.937  0.00  0.00    +0.000 A 
ATOM     11  C   UNL     1       5.103   3.777  16.272  0.00  0.00    +0.000 A 
ATOM     12  C   UNL     1       4.438   4.224  17.421  0.00  0.00    +0.000 A 
ATOM     13  N   UNL     1       3.162   3.749  17.803  0.00  0.00    +0.000 N 
ATOM     14  N   UNL     1       2.582   4.336  18.904  0.00  0.00    +0.000 N 
ATOM     15  H   UNL     1       1.563   4.306  18.966  0.00  0.00    +0.000 HD
BRANCH  13  16
ATOM     16  C   UNL     1       2.778   2.353  17.523  0.00  0.00    +0.000 C 
ATOM     17  C   UNL     1       3.465   1.345  18.437  0.00  0.00    +0.000 C 
ENDBRANCH  13  16
ENDBRANCH   2   5
BRANCH   1  22
ATOM     18  C   UNL     1      -0.394  10.306  20.373  0.00  0.00    +0.000 A 
ATOM     19  C   UNL     1      -0.693  10.316  21.744  0.00  0.00    +0.000 A 
ATOM     20  C   UNL     1       0.038   9.537  22.629  0.00  0.00    +0.000 A 
ATOM     21  C   UNL     1       1.052   8.708  22.157  0.00  0.00    +0.000 A 
ATOM     22  C   UNL     1       1.357   8.639  20.791  0.00  0.00    +0.000 A 
ATOM     23  C   UNL     1       0.663   9.483  19.911  0.00  0.00    +0.000 A 
BRANCH  18  24
ATOM     24  C   UNL     1      -1.274  11.126  19.431  0.00  0.00    +0.000 C 
BRANCH  24  25
ATOM     25  C   UNL     1      -0.858  12.574  19.356  0.00  0.00    +0.000 A 
ATOM     26  N   UNL     1       0.044  13.077  18.536  0.00  0.00    +0.000 NA
ATOM     27  N   UNL     1       0.060  14.441  18.689  0.00  0.00    +0.000 NA
ATOM     28  C   UNL     1      -0.819  14.746  19.610  0.00  0.00    +0.000 A 
ATOM     29  N   UNL     1      -1.411  13.610  20.066  0.00  0.00    +0.000 N 
ATOM     30  C   UNL     1      -2.431  13.554  21.081  0.00  0.00    +0.000 C 
ENDBRANCH  24  25
BRANCH  24  32
ATOM     31  C   UNL     1      -2.683   9.840  17.692  0.00  0.00    +0.000 C 
ATOM     32  C   UNL     1      -1.355  10.522  18.006  0.00  0.00    +0.000 C 
ENDBRANCH  24  32
ENDBRANCH  18  24
ENDBRANCH   1  22
TORSDOF 6
ENDMDL
MODEL 7
REMARK VINA RESULT:      -8.0      0.815      2.298
REMARK  Name = 
REMARK  9 active torsions:
REMARK  status: ('A' for Active; 'I' for Inactive)
REMARK    1  A    between atoms: C_1  and  C_2
REMARK    2  A    between atoms: C_2  and  C_3
REMARK    3  A    between atoms: C_3  and  C_4
REMARK    4  A    between atoms: C_3  and  C_25
REMARK    5  A    between atoms: C_8  and  N_9
REMARK    6  A    between atoms: C_10  and  C_12
REMARK    7  A    between atoms: N_20  and  C_21
REMARK    8  A    between atoms: C_21  and  C_22
REMARK    9  A    between atoms: N_29  and  C_30
REMARK                            x       y       z     vdW  Elec       q    Type
REMARK                         _______ _______ _______ _____ _____    ______ ____
ROOT
ATOM      1  N   UNL     1       1.890   7.745  18.868  0.00  0.00    +0.000 N 
ATOM      2  C   UNL     1       1.865   9.005  18.298  0.00  0.00    +0.000 C 
ATOM      3  O   UNL     1       2.330   9.358  17.216  0.00  0.00    +0.000 OA
ATOM      4  H   UNL     1       1.345   7.640  19.721  0.00  0.00    +0.000 HD
ENDROOT
BRANCH   2   5
ATOM      5  C   UNL     1       1.031  10.070  19.012  0.00  0.00    +0.000 C 
ATOM      6  N   UNL     1       0.739  11.186  18.403  0.00  0.00    +0.000 NA
ATOM      7  C   UNL     1       0.190  12.195  19.250  0.00  0.00    +0.000 A 
ATOM      8  C   UNL     1      -0.158  13.418  18.673  0.00  0.00    +0.000 A 
ATOM      9  C   UNL     1      -0.453  14.520  19.477  0.00  0.00    +0.000 A 
ATOM     10  C   UNL     1      -0.403  14.405  20.864  0.00  0.00    +0.000 A 
ATOM     11  C   UNL     1      -0.145  13.167  21.457  0.00  0.00    +0.000 A 
ATOM     12  C   UNL     1       0.114  12.039  20.668  0.00  0.00    +0.000 A 
ATOM     13  N   UNL     1       0.384  10.764  21.217  0.00  0.00    +0.000 N 
ATOM     14  N   UNL     1       0.712   9.761  20.334  0.00  0.00    +0.000 N 
ATOM     15  H   UNL     1       1.269   8.986  20.694  0.00  0.00    +0.000 HD
BRANCH  13  16
ATOM     16  C   UNL     1      -0.264  10.348  22.474  0.00  0.00    +0.000 C 
ATOM     17  C   UNL     1      -0.277   8.837  22.672  0.00  0.00    +0.000 C 
ENDBRANCH  13  16
ENDBRANCH   2   5
BRANCH   1  22
ATOM     18  C   UNL     1       4.304   5.413  17.208  0.00  0.00    +0.000 A 
ATOM     19  C   UNL     1       3.556   4.225  17.208  0.00  0.00    +0.000 A 
ATOM     20  C   UNL     1       2.249   4.216  17.674  0.00  0.00    +0.000 A 
ATOM     21  C   UNL     1       1.681   5.381  18.182  0.00  0.00    +0.000 A 
ATOM     22  C   UNL     1       2.406   6.580  18.236  0.00  0.00    +0.000 A 
ATOM     23  C   UNL     1       3.701   6.598  17.697  0.00  0.00    +0.000 A 
BRANCH  18  24
ATOM     24  C   UNL     1       5.761   5.355  16.752  0.00  0.00    +0.000 C 
BRANCH  24  25
ATOM     25  C   UNL     1       6.736   5.549  17.885  0.00  0.00    +0.000 A 
ATOM     26  N   UNL     1       7.058   4.648  18.791  0.00  0.00    +0.000 NA
ATOM     27  N   UNL     1       8.057   5.161  19.581  0.00  0.00    +0.000 NA
ATOM     28  C   UNL     1       8.316   6.371  19.155  0.00  0.00    +0.000 A 
ATOM     29  N   UNL     1       7.507   6.664  18.103  0.00  0.00    +0.000 N 
ATOM     30  C   UNL     1       7.508   7.906  17.374  0.00  0.00    +0.000 C 
ENDBRANCH  24  25
BRANCH  24  32
ATOM     31  C   UNL     1       6.614   4.281  14.565  0.00  0.00    +0.000 C 
ATOM     32  C   UNL     1       6.096   4.052  15.981  0.00  0.00    +0.000 C 
ENDBRANCH  24  32
ENDBRANCH  18  24
ENDBRANCH   1  22
TORSDOF 6
ENDMDL
MODEL 8
REMARK VINA RESULT:      -7.8      4.882      9.287
REMARK  Name = 
REMARK  9 active torsions:
REMARK  status: ('A' for Active; 'I' for Inactive)
REMARK    1  A    between atoms: C_1  and  C_2
REMARK    2  A    between atoms: C_2  and  C_3
REMARK    3  A    between atoms: C_3  and  C_4
REMARK    4  A    between atoms: C_3  and  C_25
REMARK    5  A    between atoms: C_8  and  N_9
REMARK    6  A    between atoms: C_10  and  C_12
REMARK    7  A    between atoms: N_20  and  C_21
REMARK    8  A    between atoms: C_21  and  C_22
REMARK    9  A    between atoms: N_29  and  C_30
REMARK                            x       y       z     vdW  Elec       q    Type
REMARK                         _______ _______ _______ _____ _____    ______ ____
ROOT
ATOM      1  N   UNL     1       7.779   9.110  17.669  0.00  0.00    +0.000 N 
ATOM      2  C   UNL     1       7.810   7.772  18.022  0.00  0.00    +0.000 C 
ATOM      3  O   UNL     1       8.558   7.216  18.825  0.00  0.00    +0.000 OA
ATOM      4  H   UNL     1       7.003   9.386  17.071  0.00  0.00    +0.000 HD
ENDROOT
BRANCH   2   5
ATOM      5  C   UNL     1       6.689   6.886  17.475  0.00  0.00    +0.000 C 
ATOM      6  N   UNL     1       5.465   7.050  17.895  0.00  0.00    +0.000 NA
ATOM      7  C   UNL     1       4.567   6.008  17.514  0.00  0.00    +0.000 A 
ATOM      8  C   UNL     1       3.234   6.112  17.917  0.00  0.00    +0.000 A 
ATOM      9  C   UNL     1       2.374   5.018  17.804  0.00  0.00    +0.000 A 
ATOM     10  C   UNL     1       2.843   3.814  17.286  0.00  0.00    +0.000 A 
ATOM     11  C   UNL     1       4.147   3.720  16.795  0.00  0.00    +0.000 A 
ATOM     12  C   UNL     1       5.014   4.819  16.863  0.00  0.00    +0.000 A 
ATOM     13  N   UNL     1       6.344   4.776  16.385  0.00  0.00    +0.000 N 
ATOM     14  N   UNL     1       7.118   5.894  16.594  0.00  0.00    +0.000 N 
ATOM     15  H   UNL     1       8.130   5.763  16.624  0.00  0.00    +0.000 HD
BRANCH  13  16
ATOM     16  C   UNL     1       6.682   3.953  15.209  0.00  0.00    +0.000 C 
ATOM     17  C   UNL     1       5.972   4.402  13.936  0.00  0.00    +0.000 C 
ENDBRANCH  13  16
ENDBRANCH   2   5
BRANCH   1  22
ATOM     18  C   UNL     1       9.336  12.457  18.289  0.00  0.00    +0.000 A 
ATOM     19  C   UNL     1       9.953  12.229  19.529  0.00  0.00    +0.000 A 
ATOM     20  C   UNL     1       9.922  10.969  20.109  0.00  0.00    +0.000 A 
ATOM     21  C   UNL     1       9.244   9.928  19.481  0.00  0.00    +0.000 A 
ATOM     22  C   UNL     1       8.583  10.122  18.261  0.00  0.00    +0.000 A 
ATOM     23  C   UNL     1       8.680  11.379  17.646  0.00  0.00    +0.000 A 
BRANCH  18  24
ATOM     24  C   UNL     1       9.337  13.878  17.728  0.00  0.00    +0.000 C 
BRANCH  24  25
ATOM     25  C   UNL     1       8.638  14.863  18.631  0.00  0.00    +0.000 A 
ATOM     26  N   UNL     1       9.220  15.651  19.514  0.00  0.00    +0.000 NA
ATOM     27  N   UNL     1       8.267  16.478  20.055  0.00  0.00    +0.000 NA
ATOM     28  C   UNL     1       7.119  16.171  19.505  0.00  0.00    +0.000 A 
ATOM     29  N   UNL     1       7.298  15.158  18.617  0.00  0.00    +0.000 N 
ATOM     30  C   UNL     1       6.258  14.558  17.821  0.00  0.00    +0.000 C 
ENDBRANCH  24  25
BRANCH  24  32
ATOM     31  C   UNL     1      11.609  13.393  16.603  0.00  0.00    +0.000 C 
ATOM     32  C   UNL     1      10.762  14.388  17.389  0.00  0.00    +0.000 C 
ENDBRANCH  24  32
ENDBRANCH  18  24
ENDBRANCH   1  22
TORSDOF 6
ENDMDL
MODEL 9
REMARK VINA RESULT:      -7.8      3.539     10.039
REMARK  Name = 
REMARK  9 active torsions:
REMARK  status: ('A' for Active; 'I' for Inactive)
REMARK    1  A    between atoms: C_1  and  C_2
REMARK    2  A    between atoms: C_2  and  C_3
REMARK    3  A    between atoms: C_3  and  C_4
REMARK    4  A    between atoms: C_3  and  C_25
REMARK    5  A    between atoms: C_8  and  N_9
REMARK    6  A    between atoms: C_10  and  C_12
REMARK    7  A    between atoms: N_20  and  C_21
REMARK    8  A    between atoms: C_21  and  C_22
REMARK    9  A    between atoms: N_29  and  C_30
REMARK                            x       y       z     vdW  Elec       q    Type
REMARK                         _______ _______ _______ _____ _____    ______ ____
ROOT
ATOM      1  N   UNL     1       0.494   9.552  18.778  0.00  0.00    +0.000 N 
ATOM      2  C   UNL     1       0.926   8.780  19.842  0.00  0.00    +0.000 C 
ATOM      3  O   UNL     1       0.487   8.757  20.991  0.00  0.00    +0.000 OA
ATOM      4  H   UNL     1       0.917   9.334  17.879  0.00  0.00    +0.000 HD
ENDROOT
BRANCH   2   5
ATOM      5  C   UNL     1       1.974   7.708  19.538  0.00  0.00    +0.000 C 
ATOM      6  N   UNL     1       2.769   7.847  18.513  0.00  0.00    +0.000 NA
ATOM      7  C   UNL     1       3.516   6.677  18.183  0.00  0.00    +0.000 A 
ATOM      8  C   UNL     1       4.398   6.744  17.102  0.00  0.00    +0.000 A 
ATOM      9  C   UNL     1       4.957   5.581  16.572  0.00  0.00    +0.000 A 
ATOM     10  C   UNL     1       4.637   4.341  17.120  0.00  0.00    +0.000 A 
ATOM     11  C   UNL     1       3.829   4.264  18.256  0.00  0.00    +0.000 A 
ATOM     12  C   UNL     1       3.290   5.423  18.829  0.00  0.00    +0.000 A 
ATOM     13  N   UNL     1       2.464   5.400  19.976  0.00  0.00    +0.000 N 
ATOM     14  N   UNL     1       1.927   6.600  20.382  0.00  0.00    +0.000 N 
ATOM     15  H   UNL     1       1.062   6.565  20.924  0.00  0.00    +0.000 HD
BRANCH  13  16
ATOM     16  C   UNL     1       2.683   4.389  21.026  0.00  0.00    +0.000 C 
ATOM     17  C   UNL     1       1.586   3.333  21.084  0.00  0.00    +0.000 C 
ENDBRANCH  13  16
ENDBRANCH   2   5
BRANCH   1  22
ATOM     18  C   UNL     1      -2.853  11.021  17.963  0.00  0.00    +0.000 A 
ATOM     19  C   UNL     1      -2.984  11.954  19.003  0.00  0.00    +0.000 A 
ATOM     20  C   UNL     1      -1.951  12.150  19.908  0.00  0.00    +0.000 A 
ATOM     21  C   UNL     1      -0.787  11.393  19.814  0.00  0.00    +0.000 A 
ATOM     22  C   UNL     1      -0.629  10.423  18.813  0.00  0.00    +0.000 A 
ATOM     23  C   UNL     1      -1.648  10.282  17.859  0.00  0.00    +0.000 A 
BRANCH  18  24
ATOM     24  C   UNL     1      -4.046  10.792  17.038  0.00  0.00    +0.000 C 
BRANCH  24  25
ATOM     25  C   UNL     1      -5.270  11.566  17.459  0.00  0.00    +0.000 A 
ATOM     26  N   UNL     1      -5.611  12.765  17.031  0.00  0.00    +0.000 NA
ATOM     27  N   UNL     1      -6.840  13.082  17.555  0.00  0.00    +0.000 NA
ATOM     28  C   UNL     1      -7.219  12.079  18.307  0.00  0.00    +0.000 A 
ATOM     29  N   UNL     1      -6.265  11.112  18.288  0.00  0.00    +0.000 N 
ATOM     30  C   UNL     1      -6.335   9.860  18.998  0.00  0.00    +0.000 C 
ENDBRANCH  24  25
BRANCH  24  32
ATOM     31  C   UNL     1      -3.156   9.892  14.788  0.00  0.00    +0.000 C 
ATOM     32  C   UNL     1      -3.717  11.087  15.551  0.00  0.00    +0.000 C 
ENDBRANCH  24  32
ENDBRANCH  18  24
ENDBRANCH   1  22
TORSDOF 6
ENDMDL
