MODEL 1
REMARK VINA RESULT:      -8.0      0.000      0.000
REMARK  Name = 
REMARK  4 active torsions:
REMARK  status: ('A' for Active; 'I' for Inactive)
REMARK    1  A    between atoms: C_1  and  C_2
REMARK    2  A    between atoms: C_6  and  N_7
REMARK    3  A    between atoms: C_8  and  C_10
REMARK    4  A    between atoms: C_12  and  C_13
REMARK                            x       y       z     vdW  Elec       q    Type
REMARK                         _______ _______ _______ _____ _____    ______ ____
ROOT
ATOM      1  N   UNL     1       1.913   8.271  19.379  0.00  0.00    +0.000 N 
ATOM      2  C   UNL     1       2.074   7.039  19.988  0.00  0.00    +0.000 C 
ATOM      3  O   UNL     1       1.458   6.641  20.973  0.00  0.00    +0.000 OA
ATOM      4  H   UNL     1       2.426   8.380  18.509  0.00  0.00    +0.000 HD
ENDROOT
BRANCH   1  10
ATOM      5  C   UNL     1      -1.855  13.091  23.358  0.00  0.00    +0.000 C 
ATOM      6  C   UNL     1      -1.160  12.168  22.439  0.00  0.00    +0.000 A 
ATOM      7  N   UNL     1      -0.248  11.261  22.727  0.00  0.00    +0.000 NA
ATOM      8  C   UNL     1       0.047  10.704  21.508  0.00  0.00    +0.000 A 
ATOM      9  C   UNL     1       0.940   9.683  21.158  0.00  0.00    +0.000 A 
ATOM     10  C   UNL     1       1.049   9.302  19.808  0.00  0.00    +0.000 A 
ATOM     11  C   UNL     1       0.279   9.964  18.834  0.00  0.00    +0.000 A 
ATOM     12  C   UNL     1      -0.632  10.982  19.169  0.00  0.00    +0.000 A 
ATOM     13  C   UNL     1      -0.703  11.309  20.518  0.00  0.00    +0.000 A 
ATOM     14  O   UNL     1      -1.490  12.256  21.111  0.00  0.00    +0.000 OA
ENDBRANCH   1  10
BRANCH   2  15
ATOM     15  C   UNL     1       3.045   6.157  19.326  0.00  0.00    +0.000 A 
ATOM     16  C   UNL     1       3.612   6.410  18.055  0.00  0.00    +0.000 A 
ATOM     17  C   UNL     1       4.493   5.383  17.799  0.00  0.00    +0.000 A 
ATOM     18  N   UNL     1       4.376   4.557  18.891  0.00  0.00    +0.000 N 
ATOM     19  N   UNL     1       3.530   5.014  19.849  0.00  0.00    +0.000 NA
ATOM     20  H   UNL     1       4.851   3.675  19.044  0.00  0.00    +0.000 HD
BRANCH  17  21
ATOM     21  C   UNL     1       5.374   5.191  16.640  0.00  0.00    +0.000 A 
ATOM     22  C   UNL     1       4.859   4.444  15.561  0.00  0.00    +0.000 A 
ATOM     23  C   UNL     1       5.645   4.111  14.455  0.00  0.00    +0.000 A 
ATOM     24  C   UNL     1       6.969   4.529  14.401  0.00  0.00    +0.000 A 
ATOM     25  C   UNL     1       7.493   5.299  15.439  0.00  0.00    +0.000 A 
ATOM     26  C   UNL     1       6.704   5.635  16.551  0.00  0.00    +0.000 A 
ATOM     27 CL   UNL     1       7.461   6.577  17.789  0.00  0.00    +0.000 Cl
ENDBRANCH  17  21
ENDBRANCH   2  15
TORSDOF 3
ENDMDL
MODEL 2
REMARK VINA RESULT:      -7.9      1.058      1.502
REMARK  Name = 
REMARK  4 active torsions:
REMARK  status: ('A' for Active; 'I' for Inactive)
REMARK    1  A    between atoms: C_1  and  C_2
REMARK    2  A    between atoms: C_6  and  N_7
REMARK    3  A    between atoms: C_8  and  C_10
REMARK    4  A    between atoms: C_12  and  C_13
REMARK                            x       y       z     vdW  Elec       q    Type
REMARK                         _______ _______ _______ _____ _____    ______ ____
ROOT
ATOM      1  N   UNL     1       2.084   7.701  20.086  0.00  0.00    +0.000 N 
ATOM      2  C   UNL     1       2.014   6.331  20.257  0.00  0.00    +0.000 C 
ATOM      3  O   UNL     1       1.171   5.733  20.921  0.00  0.00    +0.000 OA
ATOM      4  H   UNL     1       2.781   8.006  19.412  0.00  0.00    +0.000 HD
ENDROOT
BRANCH   1  10
ATOM      5  C   UNL     1      -2.619  13.154  21.270  0.00  0.00    +0.000 C 
ATOM      6  C   UNL     1      -1.662  12.035  21.171  0.00  0.00    +0.000 A 
ATOM      7  N   UNL     1      -1.162  11.479  20.086  0.00  0.00    +0.000 NA
ATOM      8  C   UNL     1      -0.338  10.498  20.576  0.00  0.00    +0.000 A 
ATOM      9  C   UNL     1       0.475   9.568  19.917  0.00  0.00    +0.000 A 
ATOM     10  C   UNL     1       1.229   8.657  20.677  0.00  0.00    +0.000 A 
ATOM     11  C   UNL     1       1.137   8.679  22.081  0.00  0.00    +0.000 A 
ATOM     12  C   UNL     1       0.336   9.614  22.761  0.00  0.00    +0.000 A 
ATOM     13  C   UNL     1      -0.378  10.495  21.958  0.00  0.00    +0.000 A 
ATOM     14  O   UNL     1      -1.229  11.488  22.353  0.00  0.00    +0.000 OA
ENDBRANCH   1  10
BRANCH   2  15
ATOM     15  C   UNL     1       3.037   5.573  19.521  0.00  0.00    +0.000 A 
ATOM     16  C   UNL     1       3.548   5.950  18.257  0.00  0.00    +0.000 A 
ATOM     17  C   UNL     1       4.503   5.017  17.919  0.00  0.00    +0.000 A 
ATOM     18  N   UNL     1       4.480   4.118  18.958  0.00  0.00    +0.000 N 
ATOM     19  N   UNL     1       3.626   4.444  19.960  0.00  0.00    +0.000 NA
ATOM     20  H   UNL     1       5.029   3.271  19.045  0.00  0.00    +0.000 HD
BRANCH  17  21
ATOM     21  C   UNL     1       5.366   4.969  16.732  0.00  0.00    +0.000 A 
ATOM     22  C   UNL     1       4.841   4.345  15.582  0.00  0.00    +0.000 A 
ATOM     23  C   UNL     1       5.612   4.151  14.433  0.00  0.00    +0.000 A 
ATOM     24  C   UNL     1       6.930   4.588  14.408  0.00  0.00    +0.000 A 
ATOM     25  C   UNL     1       7.464   5.238  15.520  0.00  0.00    +0.000 A 
ATOM     26  C   UNL     1       6.690   5.436  16.675  0.00  0.00    +0.000 A 
ATOM     27 CL   UNL     1       7.458   6.237  18.002  0.00  0.00    +0.000 Cl
ENDBRANCH  17  21
ENDBRANCH   2  15
TORSDOF 3
ENDMDL
MODEL 3
REMARK VINA RESULT:      -7.9      5.979      7.881
REMARK  Name = 
REMARK  4 active torsions:
REMARK  status: ('A' for Active; 'I' for Inactive)
REMARK    1  A    between atoms: C_1  and  C_2
REMARK    2  A    between atoms: C_6  and  N_7
REMARK    3  A    between atoms: C_8  and  C_10
REMARK    4  A    between atoms: C_12  and  C_13
REMARK                            x       y       z     vdW  Elec       q    Type
REMARK                         _______ _______ _______ _____ _____    ______ ____
ROOT
ATOM      1  N   UNL     1       7.629   9.042  17.773  0.00  0.00    +0.000 N 
ATOM      2  C   UNL     1       7.776   7.708  18.106  0.00  0.00    +0.000 C 
ATOM      3  O   UNL     1       8.638   7.244  18.847  0.00  0.00    +0.000 OA
ATOM      4  H   UNL     1       6.791   9.253  17.238  0.00  0.00    +0.000 HD
ENDROOT
BRANCH   1  10
ATOM      5  C   UNL     1      11.195  15.383  18.349  0.00  0.00    +0.000 C 
ATOM      6  C   UNL     1      10.545  14.058  18.348  0.00  0.00    +0.000 A 
ATOM      7  N   UNL     1       9.625  13.600  17.523  0.00  0.00    +0.000 NA
ATOM      8  C   UNL     1       9.388  12.328  17.981  0.00  0.00    +0.000 A 
ATOM      9  C   UNL     1       8.516  11.334  17.518  0.00  0.00    +0.000 A 
ATOM     10  C   UNL     1       8.469  10.099  18.188  0.00  0.00    +0.000 A 
ATOM     11  C   UNL     1       9.279   9.890  19.319  0.00  0.00    +0.000 A 
ATOM     12  C   UNL     1      10.170  10.871  19.790  0.00  0.00    +0.000 A 
ATOM     13  C   UNL     1      10.179  12.067  19.083  0.00  0.00    +0.000 A 
ATOM     14  O   UNL     1      10.935  13.179  19.326  0.00  0.00    +0.000 OA
ENDBRANCH   1  10
BRANCH   2  15
ATOM     15  C   UNL     1       6.754   6.822  17.529  0.00  0.00    +0.000 A 
ATOM     16  C   UNL     1       5.829   6.073  18.292  0.00  0.00    +0.000 A 
ATOM     17  C   UNL     1       5.022   5.404  17.398  0.00  0.00    +0.000 A 
ATOM     18  N   UNL     1       5.528   5.745  16.167  0.00  0.00    +0.000 N 
ATOM     19  N   UNL     1       6.558   6.628  16.210  0.00  0.00    +0.000 NA
ATOM     20  H   UNL     1       5.210   5.415  15.263  0.00  0.00    +0.000 HD
BRANCH  17  21
ATOM     21  C   UNL     1       3.875   4.527  17.667  0.00  0.00    +0.000 A 
ATOM     22  C   UNL     1       4.098   3.138  17.587  0.00  0.00    +0.000 A 
ATOM     23  C   UNL     1       3.057   2.216  17.721  0.00  0.00    +0.000 A 
ATOM     24  C   UNL     1       1.763   2.669  17.948  0.00  0.00    +0.000 A 
ATOM     25  C   UNL     1       1.521   4.038  18.065  0.00  0.00    +0.000 A 
ATOM     26  C   UNL     1       2.567   4.965  17.932  0.00  0.00    +0.000 A 
ATOM     27 CL   UNL     1       2.150   6.638  18.077  0.00  0.00    +0.000 Cl
ENDBRANCH  17  21
ENDBRANCH   2  15
TORSDOF 3
ENDMDL
MODEL 4
REMARK VINA RESULT:      -7.9      6.431      8.241
REMARK  Name = 
REMARK  4 active torsions:
REMARK  status: ('A' for Active; 'I' for Inactive)
REMARK    1  A    between atoms: C_1  and  C_2
REMARK    2  A    between atoms: C_6  and  N_7
REMARK    3  A    between atoms: C_8  and  C_10
REMARK    4  A    between atoms: C_12  and  C_13
REMARK                            x       y       z     vdW  Elec       q    Type
REMARK                         _______ _______ _______ _____ _____    ______ ____
ROOT
ATOM      1  N   UNL     1       8.758   8.800  19.182  0.00  0.00    +0.000 N 
ATOM      2  C   UNL     1       8.090   8.207  18.125  0.00  0.00    +0.000 C 
ATOM      3  O   UNL     1       7.950   8.691  17.005  0.00  0.00    +0.000 OA
ATOM      4  H   UNL     1       8.869   8.202  19.997  0.00  0.00    +0.000 HD
ENDROOT
BRANCH   1  10
ATOM      5  C   UNL     1      11.816  15.123  17.203  0.00  0.00    +0.000 C 
ATOM      6  C   UNL     1      11.213  13.887  17.737  0.00  0.00    +0.000 A 
ATOM      7  N   UNL     1      10.722  12.861  17.070  0.00  0.00    +0.000 NA
ATOM      8  C   UNL     1      10.300  12.007  18.058  0.00  0.00    +0.000 A 
ATOM      9  C   UNL     1       9.693  10.747  17.984  0.00  0.00    +0.000 A 
ATOM     10  C   UNL     1       9.355  10.079  19.175  0.00  0.00    +0.000 A 
ATOM     11  C   UNL     1       9.609  10.694  20.414  0.00  0.00    +0.000 A 
ATOM     12  C   UNL     1      10.229  11.954  20.508  0.00  0.00    +0.000 A 
ATOM     13  C   UNL     1      10.548  12.561  19.300  0.00  0.00    +0.000 A 
ATOM     14  O   UNL     1      11.143  13.775  19.103  0.00  0.00    +0.000 OA
ENDBRANCH   1  10
BRANCH   2  15
ATOM     15  C   UNL     1       7.565   6.865  18.414  0.00  0.00    +0.000 A 
ATOM     16  C   UNL     1       6.259   6.435  18.086  0.00  0.00    +0.000 A 
ATOM     17  C   UNL     1       6.160   5.119  18.480  0.00  0.00    +0.000 A 
ATOM     18  N   UNL     1       7.377   4.848  19.058  0.00  0.00    +0.000 N 
ATOM     19  N   UNL     1       8.262   5.875  19.005  0.00  0.00    +0.000 NA
ATOM     20  H   UNL     1       7.665   3.982  19.497  0.00  0.00    +0.000 HD
BRANCH  17  21
ATOM     21  C   UNL     1       5.031   4.192  18.328  0.00  0.00    +0.000 A 
ATOM     22  C   UNL     1       4.437   3.707  19.510  0.00  0.00    +0.000 A 
ATOM     23  C   UNL     1       3.427   2.741  19.483  0.00  0.00    +0.000 A 
ATOM     24  C   UNL     1       2.983   2.245  18.264  0.00  0.00    +0.000 A 
ATOM     25  C   UNL     1       3.530   2.734  17.078  0.00  0.00    +0.000 A 
ATOM     26  C   UNL     1       4.544   3.705  17.104  0.00  0.00    +0.000 A 
ATOM     27 CL   UNL     1       5.163   4.227  15.575  0.00  0.00    +0.000 Cl
ENDBRANCH  17  21
ENDBRANCH   2  15
TORSDOF 3
ENDMDL
MODEL 5
REMARK VINA RESULT:      -7.8      3.602      4.380
REMARK  Name = 
REMARK  4 active torsions:
REMARK  status: ('A' for Active; 'I' for Inactive)
REMARK    1  A    between atoms: C_1  and  C_2
REMARK    2  A    between atoms: C_6  and  N_7
REMARK    3  A    between atoms: C_8  and  C_10
REMARK    4  A    between atoms: C_12  and  C_13
REMARK                            x       y       z     vdW  Elec       q    Type
REMARK                         _______ _______ _______ _____ _____    ______ ____
ROOT
ATOM      1  N   UNL     1       1.190  10.305  19.475  0.00  0.00    +0.000 N 
ATOM      2  C   UNL     1       1.727   9.417  18.561  0.00  0.00    +0.000 C 
ATOM      3  O   UNL     1       2.044   9.683  17.404  0.00  0.00    +0.000 OA
ATOM      4  H   UNL     1       1.097   9.935  20.416  0.00  0.00    +0.000 HD
ENDROOT
BRANCH   1  10
ATOM      5  C   UNL     1       1.456  17.534  18.509  0.00  0.00    +0.000 C 
ATOM      6  C   UNL     1       1.262  16.081  18.681  0.00  0.00    +0.000 A 
ATOM      7  N   UNL     1       2.171  15.158  18.926  0.00  0.00    +0.000 NA
ATOM      8  C   UNL     1       1.442  13.997  18.987  0.00  0.00    +0.000 A 
ATOM      9  C   UNL     1       1.840  12.675  19.222  0.00  0.00    +0.000 A 
ATOM     10  C   UNL     1       0.869  11.658  19.228  0.00  0.00    +0.000 A 
ATOM     11  C   UNL     1      -0.477  11.980  18.977  0.00  0.00    +0.000 A 
ATOM     12  C   UNL     1      -0.897  13.304  18.752  0.00  0.00    +0.000 A 
ATOM     13  C   UNL     1       0.104  14.266  18.767  0.00  0.00    +0.000 A 
ATOM     14  O   UNL     1      -0.023  15.613  18.572  0.00  0.00    +0.000 OA
ENDBRANCH   1  10
BRANCH   2  15
ATOM     15  C   UNL     1       1.959   8.066  19.090  0.00  0.00    +0.000 A 
ATOM     16  C   UNL     1       2.230   6.933  18.288  0.00  0.00    +0.000 A 
ATOM     17  C   UNL     1       2.423   5.873  19.146  0.00  0.00    +0.000 A 
ATOM     18  N   UNL     1       2.214   6.407  20.395  0.00  0.00    +0.000 N 
ATOM     19  N   UNL     1       1.963   7.740  20.398  0.00  0.00    +0.000 NA
ATOM     20  H   UNL     1       2.238   5.916  21.281  0.00  0.00    +0.000 HD
BRANCH  17  21
ATOM     21  C   UNL     1       2.776   4.483  18.830  0.00  0.00    +0.000 A 
ATOM     22  C   UNL     1       3.791   4.281  17.873  0.00  0.00    +0.000 A 
ATOM     23  C   UNL     1       4.133   3.004  17.421  0.00  0.00    +0.000 A 
ATOM     24  C   UNL     1       3.469   1.895  17.928  0.00  0.00    +0.000 A 
ATOM     25  C   UNL     1       2.484   2.064  18.901  0.00  0.00    +0.000 A 
ATOM     26  C   UNL     1       2.140   3.347  19.357  0.00  0.00    +0.000 A 
ATOM     27 CL   UNL     1       0.893   3.442  20.552  0.00  0.00    +0.000 Cl
ENDBRANCH  17  21
ENDBRANCH   2  15
TORSDOF 3
ENDMDL
MODEL 6
REMARK VINA RESULT:      -7.7      1.524      1.921
REMARK  Name = 
REMARK  4 active torsions:
REMARK  status: ('A' for Active; 'I' for Inactive)
REMARK    1  A    between atoms: C_1  and  C_2
REMARK    2  A    between atoms: C_6  and  N_7
REMARK    3  A    between atoms: C_8  and  C_10
REMARK    4  A    between atoms: C_12  and  C_13
REMARK                            x       y       z     vdW  Elec       q    Type
REMARK                         _______ _______ _______ _____ _____    ______ ____
ROOT
ATOM      1  N   UNL     1       1.401   8.497  20.794  0.00  0.00    +0.000 N 
ATOM      2  C   UNL     1       1.638   8.362  19.438  0.00  0.00    +0.000 C 
ATOM      3  O   UNL     1       1.286   9.152  18.567  0.00  0.00    +0.000 OA
ATOM      4  H   UNL     1       1.866   7.803  21.373  0.00  0.00    +0.000 HD
ENDROOT
BRANCH   1  10
ATOM      5  C   UNL     1      -1.341  14.987  22.696  0.00  0.00    +0.000 C 
ATOM      6  C   UNL     1      -0.867  13.618  22.413  0.00  0.00    +0.000 A 
ATOM      7  N   UNL     1      -0.019  13.221  21.485  0.00  0.00    +0.000 NA
ATOM      8  C   UNL     1       0.055  11.864  21.676  0.00  0.00    +0.000 A 
ATOM      9  C   UNL     1       0.793  10.882  21.004  0.00  0.00    +0.000 A 
ATOM     10  C   UNL     1       0.677   9.541  21.410  0.00  0.00    +0.000 A 
ATOM     11  C   UNL     1      -0.191   9.206  22.466  0.00  0.00    +0.000 A 
ATOM     12  C   UNL     1      -0.930  10.181  23.160  0.00  0.00    +0.000 A 
ATOM     13  C   UNL     1      -0.768  11.488  22.721  0.00  0.00    +0.000 A 
ATOM     14  O   UNL     1      -1.366  12.617  23.208  0.00  0.00    +0.000 OA
ENDBRANCH   1  10
BRANCH   2  15
ATOM     15  C   UNL     1       2.423   7.173  19.074  0.00  0.00    +0.000 A 
ATOM     16  C   UNL     1       3.444   7.164  18.096  0.00  0.00    +0.000 A 
ATOM     17  C   UNL     1       3.962   5.888  18.070  0.00  0.00    +0.000 A 
ATOM     18  N   UNL     1       3.204   5.198  18.986  0.00  0.00    +0.000 N 
ATOM     19  N   UNL     1       2.284   5.956  19.634  0.00  0.00    +0.000 NA
ATOM     20  H   UNL     1       3.272   4.214  19.217  0.00  0.00    +0.000 HD
BRANCH  17  21
ATOM     21  C   UNL     1       5.070   5.358  17.266  0.00  0.00    +0.000 A 
ATOM     22  C   UNL     1       4.768   4.942  15.954  0.00  0.00    +0.000 A 
ATOM     23  C   UNL     1       5.721   4.326  15.139  0.00  0.00    +0.000 A 
ATOM     24  C   UNL     1       7.008   4.121  15.621  0.00  0.00    +0.000 A 
ATOM     25  C   UNL     1       7.343   4.554  16.903  0.00  0.00    +0.000 A 
ATOM     26  C   UNL     1       6.386   5.174  17.723  0.00  0.00    +0.000 A 
ATOM     27 CL   UNL     1       6.904   5.655  19.302  0.00  0.00    +0.000 Cl
ENDBRANCH  17  21
ENDBRANCH   2  15
TORSDOF 3
ENDMDL
MODEL 7
REMARK VINA RESULT:      -7.7      3.343      4.108
REMARK  Name = 
REMARK  4 active torsions:
REMARK  status: ('A' for Active; 'I' for Inactive)
REMARK    1  A    between atoms: C_1  and  C_2
REMARK    2  A    between atoms: C_6  and  N_7
REMARK    3  A    between atoms: C_8  and  C_10
REMARK    4  A    between atoms: C_12  and  C_13
REMARK                            x       y       z     vdW  Elec       q    Type
REMARK                         _______ _______ _______ _____ _____    ______ ____
ROOT
ATOM      1  N   UNL     1       1.170  10.344  19.422  0.00  0.00    +0.000 N 
ATOM      2  C   UNL     1       1.724   9.469  18.505  0.00  0.00    +0.000 C 
ATOM      3  O   UNL     1       2.058   9.750  17.357  0.00  0.00    +0.000 OA
ATOM      4  H   UNL     1       1.064   9.961  20.358  0.00  0.00    +0.000 HD
ENDROOT
BRANCH   1  10
ATOM      5  C   UNL     1       1.424  17.588  18.582  0.00  0.00    +0.000 C 
ATOM      6  C   UNL     1       1.234  16.132  18.725  0.00  0.00    +0.000 A 
ATOM      7  N   UNL     1       2.140  15.210  18.982  0.00  0.00    +0.000 NA
ATOM      8  C   UNL     1       1.416  14.044  19.002  0.00  0.00    +0.000 A 
ATOM      9  C   UNL     1       1.815  12.721  19.228  0.00  0.00    +0.000 A 
ATOM     10  C   UNL     1       0.850  11.699  19.188  0.00  0.00    +0.000 A 
ATOM     11  C   UNL     1      -0.490  12.018  18.900  0.00  0.00    +0.000 A 
ATOM     12  C   UNL     1      -0.911  13.343  18.684  0.00  0.00    +0.000 A 
ATOM     13  C   UNL     1       0.085  14.310  18.745  0.00  0.00    +0.000 A 
ATOM     14  O   UNL     1      -0.045  15.659  18.569  0.00  0.00    +0.000 OA
ENDBRANCH   1  10
BRANCH   2  15
ATOM     15  C   UNL     1       1.952   8.111  19.021  0.00  0.00    +0.000 A 
ATOM     16  C   UNL     1       2.275   6.997  18.213  0.00  0.00    +0.000 A 
ATOM     17  C   UNL     1       2.445   5.924  19.060  0.00  0.00    +0.000 A 
ATOM     18  N   UNL     1       2.172   6.433  20.307  0.00  0.00    +0.000 N 
ATOM     19  N   UNL     1       1.901   7.762  20.322  0.00  0.00    +0.000 NA
ATOM     20  H   UNL     1       2.162   5.926  21.184  0.00  0.00    +0.000 HD
BRANCH  17  21
ATOM     21  C   UNL     1       2.833   4.546  18.736  0.00  0.00    +0.000 A 
ATOM     22  C   UNL     1       1.807   3.670  18.327  0.00  0.00    +0.000 A 
ATOM     23  C   UNL     1       2.046   2.313  18.096  0.00  0.00    +0.000 A 
ATOM     24  C   UNL     1       3.327   1.803  18.263  0.00  0.00    +0.000 A 
ATOM     25  C   UNL     1       4.367   2.654  18.634  0.00  0.00    +0.000 A 
ATOM     26  C   UNL     1       4.129   4.018  18.865  0.00  0.00    +0.000 A 
ATOM     27 CL   UNL     1       5.488   4.979  19.339  0.00  0.00    +0.000 Cl
ENDBRANCH  17  21
ENDBRANCH   2  15
TORSDOF 3
ENDMDL
MODEL 8
REMARK VINA RESULT:      -7.7      2.875      9.481
REMARK  Name = 
REMARK  4 active torsions:
REMARK  status: ('A' for Active; 'I' for Inactive)
REMARK    1  A    between atoms: C_1  and  C_2
REMARK    2  A    between atoms: C_6  and  N_7
REMARK    3  A    between atoms: C_8  and  C_10
REMARK    4  A    between atoms: C_12  and  C_13
REMARK                            x       y       z     vdW  Elec       q    Type
REMARK                         _______ _______ _______ _____ _____    ______ ____
ROOT
ATOM      1  N   UNL     1       2.593   7.129  19.348  0.00  0.00    +0.000 N 
ATOM      2  C   UNL     1       1.828   8.251  19.085  0.00  0.00    +0.000 C 
ATOM      3  O   UNL     1       1.579   8.705  17.971  0.00  0.00    +0.000 OA
ATOM      4  H   UNL     1       2.596   6.841  20.322  0.00  0.00    +0.000 HD
ENDROOT
BRANCH   1  10
ATOM      5  C   UNL     1       6.894   4.733  13.961  0.00  0.00    +0.000 C 
ATOM      6  C   UNL     1       5.974   5.085  15.060  0.00  0.00    +0.000 A 
ATOM      7  N   UNL     1       5.814   6.253  15.650  0.00  0.00    +0.000 NA
ATOM      8  C   UNL     1       4.844   6.008  16.590  0.00  0.00    +0.000 A 
ATOM      9  C   UNL     1       4.241   6.856  17.528  0.00  0.00    +0.000 A 
ATOM     10  C   UNL     1       3.259   6.335  18.388  0.00  0.00    +0.000 A 
ATOM     11  C   UNL     1       2.914   4.973  18.308  0.00  0.00    +0.000 A 
ATOM     12  C   UNL     1       3.500   4.111  17.364  0.00  0.00    +0.000 A 
ATOM     13  C   UNL     1       4.457   4.683  16.535  0.00  0.00    +0.000 A 
ATOM     14  O   UNL     1       5.179   4.078  15.545  0.00  0.00    +0.000 OA
ENDBRANCH   1  10
BRANCH   2  15
ATOM     15  C   UNL     1       1.252   8.887  20.279  0.00  0.00    +0.000 A 
ATOM     16  C   UNL     1       0.691  10.185  20.296  0.00  0.00    +0.000 A 
ATOM     17  C   UNL     1       0.230  10.405  21.575  0.00  0.00    +0.000 A 
ATOM     18  N   UNL     1       0.577   9.264  22.259  0.00  0.00    +0.000 N 
ATOM     19  N   UNL     1       1.169   8.312  21.495  0.00  0.00    +0.000 NA
ATOM     20  H   UNL     1       0.430   9.074  23.243  0.00  0.00    +0.000 HD
BRANCH  17  21
ATOM     21  C   UNL     1      -0.476  11.574  22.113  0.00  0.00    +0.000 A 
ATOM     22  C   UNL     1      -1.632  11.326  22.881  0.00  0.00    +0.000 A 
ATOM     23  C   UNL     1      -2.439  12.365  23.353  0.00  0.00    +0.000 A 
ATOM     24  C   UNL     1      -2.098  13.682  23.071  0.00  0.00    +0.000 A 
ATOM     25  C   UNL     1      -0.941  13.956  22.343  0.00  0.00    +0.000 A 
ATOM     26  C   UNL     1      -0.129  12.913  21.870  0.00  0.00    +0.000 A 
ATOM     27 CL   UNL     1       1.273  13.366  20.961  0.00  0.00    +0.000 Cl
ENDBRANCH  17  21
ENDBRANCH   2  15
TORSDOF 3
ENDMDL
MODEL 9
REMARK VINA RESULT:      -7.6      1.555      1.734
REMARK  Name = 
REMARK  4 active torsions:
REMARK  status: ('A' for Active; 'I' for Inactive)
REMARK    1  A    between atoms: C_1  and  C_2
REMARK    2  A    between atoms: C_6  and  N_7
REMARK    3  A    between atoms: C_8  and  C_10
REMARK    4  A    between atoms: C_12  and  C_13
REMARK                            x       y       z     vdW  Elec       q    Type
REMARK                         _______ _______ _______ _____ _____    ______ ____
ROOT
ATOM      1  N   UNL     1       0.935   9.064  19.803  0.00  0.00    +0.000 N 
ATOM      2  C   UNL     1       1.733   9.076  18.674  0.00  0.00    +0.000 C 
ATOM      3  O   UNL     1       1.876  10.025  17.907  0.00  0.00    +0.000 OA
ATOM      4  H   UNL     1       1.030   8.231  20.376  0.00  0.00    +0.000 HD
ENDROOT
BRANCH   1  10
ATOM      5  C   UNL     1      -2.267  14.309  23.740  0.00  0.00    +0.000 C 
ATOM      6  C   UNL     1      -1.710  13.280  22.839  0.00  0.00    +0.000 A 
ATOM      7  N   UNL     1      -0.706  12.456  23.061  0.00  0.00    +0.000 NA
ATOM      8  C   UNL     1      -0.623  11.731  21.899  0.00  0.00    +0.000 A 
ATOM      9  C   UNL     1       0.245  10.697  21.523  0.00  0.00    +0.000 A 
ATOM     10  C   UNL     1       0.110  10.121  20.248  0.00  0.00    +0.000 A 
ATOM     11  C   UNL     1      -0.874  10.604  19.366  0.00  0.00    +0.000 A 
ATOM     12  C   UNL     1      -1.762  11.632  19.732  0.00  0.00    +0.000 A 
ATOM     13  C   UNL     1      -1.588  12.156  21.006  0.00  0.00    +0.000 A 
ATOM     14  O   UNL     1      -2.300  13.156  21.607  0.00  0.00    +0.000 OA
ENDBRANCH   1  10
BRANCH   2  15
ATOM     15  C   UNL     1       2.487   7.834  18.449  0.00  0.00    +0.000 A 
ATOM     16  C   UNL     1       3.584   7.719  17.564  0.00  0.00    +0.000 A 
ATOM     17  C   UNL     1       4.039   6.422  17.659  0.00  0.00    +0.000 A 
ATOM     18  N   UNL     1       3.176   5.826  18.546  0.00  0.00    +0.000 N 
ATOM     19  N   UNL     1       2.244   6.662  19.068  0.00  0.00    +0.000 NA
ATOM     20  H   UNL     1       3.177   4.856  18.841  0.00  0.00    +0.000 HD
BRANCH  17  21
ATOM     21  C   UNL     1       5.183   5.795  16.986  0.00  0.00    +0.000 A 
ATOM     22  C   UNL     1       5.105   5.656  15.585  0.00  0.00    +0.000 A 
ATOM     23  C   UNL     1       6.088   4.980  14.857  0.00  0.00    +0.000 A 
ATOM     24  C   UNL     1       7.180   4.434  15.519  0.00  0.00    +0.000 A 
ATOM     25  C   UNL     1       7.299   4.587  16.900  0.00  0.00    +0.000 A 
ATOM     26  C   UNL     1       6.313   5.267  17.633  0.00  0.00    +0.000 A 
ATOM     27 CL   UNL     1       6.552   5.382  19.343  0.00  0.00    +0.000 Cl
ENDBRANCH  17  21
ENDBRANCH   2  15
TORSDOF 3
ENDMDL
