MODEL 1
REMARK VINA RESULT:      -8.2      0.000      0.000
REMARK  Name = 
REMARK  3 active torsions:
REMARK  status: ('A' for Active; 'I' for Inactive)
REMARK    1  A    between atoms: C_2  and  C_15
REMARK    2  A    between atoms: N_3  and  C_4
REMARK    3  A    between atoms: C_9  and  N_10
REMARK                            x       y       z     vdW  Elec       q    Type
REMARK                         _______ _______ _______ _____ _____    ______ ____
ROOT
ATOM      1  O   UNL     1       5.946   4.854  19.297  0.00  0.00    +0.000 OA
ATOM      2  C   UNL     1       5.466   4.440  18.259  0.00  0.00    +0.000 C 
ATOM      3  N   UNL     1       4.192   3.867  18.092  0.00  0.00    +0.000 N 
ATOM      4  H   UNL     1       4.017   3.553  17.135  0.00  0.00    +0.000 HD
ENDROOT
BRANCH   2   5
ATOM      5  C   UNL     1       6.248   4.553  16.957  0.00  0.00    +0.000 A 
ATOM      6  C   UNL     1       7.130   5.599  16.700  0.00  0.00    +0.000 A 
ATOM      7  N   UNL     1       7.669   5.825  15.468  0.00  0.00    +0.000 NA
ATOM      8  C   UNL     1       7.243   5.029  14.471  0.00  0.00    +0.000 A 
ATOM      9  C   UNL     1       7.537   5.356  13.150  0.00  0.00    +0.000 A 
ATOM     10  C   UNL     1       6.990   4.635  12.086  0.00  0.00    +0.000 A 
ATOM     11  C   UNL     1       6.217   3.511  12.350  0.00  0.00    +0.000 A 
ATOM     12  C   UNL     1       5.956   3.146  13.673  0.00  0.00    +0.000 A 
ATOM     13  C   UNL     1       6.400   3.918  14.737  0.00  0.00    +0.000 A 
ATOM     14  N   UNL     1       5.936   3.656  15.982  0.00  0.00    +0.000 NA
ENDBRANCH   2   5
BRANCH   3  15
ATOM     15  C   UNL     1       3.112   3.692  19.020  0.00  0.00    +0.000 A 
ATOM     16  C   UNL     1       2.755   2.429  19.515  0.00  0.00    +0.000 A 
ATOM     17  C   UNL     1       1.712   2.262  20.448  0.00  0.00    +0.000 A 
ATOM     18  C   UNL     1       1.016   3.356  20.942  0.00  0.00    +0.000 A 
ATOM     19  C   UNL     1       1.339   4.621  20.478  0.00  0.00    +0.000 A 
ATOM     20  C   UNL     1       2.348   4.802  19.495  0.00  0.00    +0.000 A 
BRANCH  20  21
ATOM     21  N   UNL     1       2.498   6.115  18.975  0.00  0.00    +0.000 N 
ATOM     22  C   UNL     1       2.257   7.323  19.595  0.00  0.00    +0.000 A 
ATOM     23  N   UNL     1       2.431   8.297  18.734  0.00  0.00    +0.000 NA
ATOM     24  N   UNL     1       2.793   7.695  17.562  0.00  0.00    +0.000 NA
ATOM     25  N   UNL     1       2.849   6.379  17.700  0.00  0.00    +0.000 NA
ENDBRANCH  20  21
ENDBRANCH   3  15
TORSDOF 3
ENDMDL
MODEL 2
REMARK VINA RESULT:      -8.2      3.553      8.313
REMARK  Name = 
REMARK  3 active torsions:
REMARK  status: ('A' for Active; 'I' for Inactive)
REMARK    1  A    between atoms: C_2  and  C_15
REMARK    2  A    between atoms: N_3  and  C_4
REMARK    3  A    between atoms: C_9  and  N_10
REMARK                            x       y       z     vdW  Elec       q    Type
REMARK                         _______ _______ _______ _____ _____    ______ ____
ROOT
ATOM      1  O   UNL     1       1.834   8.839  17.474  0.00  0.00    +0.000 OA
ATOM      2  C   UNL     1       2.024   8.308  18.551  0.00  0.00    +0.000 C 
ATOM      3  N   UNL     1       2.731   7.115  18.786  0.00  0.00    +0.000 N 
ATOM      4  H   UNL     1       2.728   6.836  19.770  0.00  0.00    +0.000 HD
ENDROOT
BRANCH   2   5
ATOM      5  C   UNL     1       1.507   8.962  19.826  0.00  0.00    +0.000 A 
ATOM      6  C   UNL     1       1.436   8.285  21.040  0.00  0.00    +0.000 A 
ATOM      7  N   UNL     1       0.784   8.786  22.128  0.00  0.00    +0.000 NA
ATOM      8  C   UNL     1       0.129   9.948  21.953  0.00  0.00    +0.000 A 
ATOM      9  C   UNL     1      -0.769  10.389  22.921  0.00  0.00    +0.000 A 
ATOM     10  C   UNL     1      -1.572  11.512  22.707  0.00  0.00    +0.000 A 
ATOM     11  C   UNL     1      -1.402  12.260  21.549  0.00  0.00    +0.000 A 
ATOM     12  C   UNL     1      -0.470  11.853  20.593  0.00  0.00    +0.000 A 
ATOM     13  C   UNL     1       0.254  10.678  20.742  0.00  0.00    +0.000 A 
ATOM     14  N   UNL     1       0.973  10.207  19.695  0.00  0.00    +0.000 NA
ENDBRANCH   2   5
BRANCH   3  15
ATOM     15  C   UNL     1       3.468   6.269  17.893  0.00  0.00    +0.000 A 
ATOM     16  C   UNL     1       4.381   6.787  16.962  0.00  0.00    +0.000 A 
ATOM     17  C   UNL     1       5.125   5.952  16.105  0.00  0.00    +0.000 A 
ATOM     18  C   UNL     1       5.007   4.572  16.175  0.00  0.00    +0.000 A 
ATOM     19  C   UNL     1       4.116   4.021  17.082  0.00  0.00    +0.000 A 
ATOM     20  C   UNL     1       3.316   4.848  17.913  0.00  0.00    +0.000 A 
BRANCH  20  21
ATOM     21  N   UNL     1       2.327   4.195  18.697  0.00  0.00    +0.000 N 
ATOM     22  C   UNL     1       1.490   3.159  18.342  0.00  0.00    +0.000 A 
ATOM     23  N   UNL     1       0.660   2.912  19.328  0.00  0.00    +0.000 NA
ATOM     24  N   UNL     1       0.987   3.797  20.316  0.00  0.00    +0.000 NA
ATOM     25  N   UNL     1       2.000   4.567  19.950  0.00  0.00    +0.000 NA
ENDBRANCH  20  21
ENDBRANCH   3  15
TORSDOF 3
ENDMDL
MODEL 3
REMARK VINA RESULT:      -8.0      3.821      7.051
REMARK  Name = 
REMARK  3 active torsions:
REMARK  status: ('A' for Active; 'I' for Inactive)
REMARK    1  A    between atoms: C_2  and  C_15
REMARK    2  A    between atoms: N_3  and  C_4
REMARK    3  A    between atoms: C_9  and  N_10
REMARK                            x       y       z     vdW  Elec       q    Type
REMARK                         _______ _______ _______ _____ _____    ______ ____
ROOT
ATOM      1  O   UNL     1       2.308   9.438  17.425  0.00  0.00    +0.000 OA
ATOM      2  C   UNL     1       1.947   8.764  18.370  0.00  0.00    +0.000 C 
ATOM      3  N   UNL     1       0.940   9.087  19.297  0.00  0.00    +0.000 N 
ATOM      4  H   UNL     1       0.836   8.385  20.035  0.00  0.00    +0.000 HD
ENDROOT
BRANCH   2   5
ATOM      5  C   UNL     1       2.577   7.399  18.618  0.00  0.00    +0.000 A 
ATOM      6  C   UNL     1       3.318   6.727  17.650  0.00  0.00    +0.000 A 
ATOM      7  N   UNL     1       3.702   5.426  17.786  0.00  0.00    +0.000 NA
ATOM      8  C   UNL     1       3.258   4.779  18.878  0.00  0.00    +0.000 A 
ATOM      9  C   UNL     1       3.381   3.395  18.961  0.00  0.00    +0.000 A 
ATOM     10  C   UNL     1       2.803   2.677  20.012  0.00  0.00    +0.000 A 
ATOM     11  C   UNL     1       2.179   3.365  21.044  0.00  0.00    +0.000 A 
ATOM     12  C   UNL     1       2.092   4.759  20.994  0.00  0.00    +0.000 A 
ATOM     13  C   UNL     1       2.563   5.474  19.902  0.00  0.00    +0.000 A 
ATOM     14  N   UNL     1       2.258   6.789  19.793  0.00  0.00    +0.000 NA
ENDBRANCH   2   5
BRANCH   3  15
ATOM     15  C   UNL     1       0.034  10.197  19.351  0.00  0.00    +0.000 A 
ATOM     16  C   UNL     1      -0.392  10.865  18.192  0.00  0.00    +0.000 A 
ATOM     17  C   UNL     1      -1.304  11.938  18.245  0.00  0.00    +0.000 A 
ATOM     18  C   UNL     1      -1.847  12.354  19.452  0.00  0.00    +0.000 A 
ATOM     19  C   UNL     1      -1.451  11.719  20.619  0.00  0.00    +0.000 A 
ATOM     20  C   UNL     1      -0.490  10.675  20.591  0.00  0.00    +0.000 A 
BRANCH  20  21
ATOM     21  N   UNL     1      -0.039  10.194  21.850  0.00  0.00    +0.000 N 
ATOM     22  C   UNL     1      -0.733  10.101  23.037  0.00  0.00    +0.000 A 
ATOM     23  N   UNL     1       0.078   9.692  23.984  0.00  0.00    +0.000 NA
ATOM     24  N   UNL     1       1.292   9.519  23.382  0.00  0.00    +0.000 NA
ATOM     25  N   UNL     1       1.230   9.808  22.091  0.00  0.00    +0.000 NA
ENDBRANCH  20  21
ENDBRANCH   3  15
TORSDOF 3
ENDMDL
MODEL 4
REMARK VINA RESULT:      -8.0      2.687      7.643
REMARK  Name = 
REMARK  3 active torsions:
REMARK  status: ('A' for Active; 'I' for Inactive)
REMARK    1  A    between atoms: C_2  and  C_15
REMARK    2  A    between atoms: N_3  and  C_4
REMARK    3  A    between atoms: C_9  and  N_10
REMARK                            x       y       z     vdW  Elec       q    Type
REMARK                         _______ _______ _______ _____ _____    ______ ____
ROOT
ATOM      1  O   UNL     1       3.490   5.962  20.005  0.00  0.00    +0.000 OA
ATOM      2  C   UNL     1       3.065   6.687  19.127  0.00  0.00    +0.000 C 
ATOM      3  N   UNL     1       3.427   6.663  17.768  0.00  0.00    +0.000 N 
ATOM      4  H   UNL     1       2.970   7.395  17.219  0.00  0.00    +0.000 HD
ENDROOT
BRANCH   2   5
ATOM      5  C   UNL     1       2.000   7.729  19.447  0.00  0.00    +0.000 A 
ATOM      6  C   UNL     1       1.715   8.795  18.598  0.00  0.00    +0.000 A 
ATOM      7  N   UNL     1       0.922   9.841  18.968  0.00  0.00    +0.000 NA
ATOM      8  C   UNL     1       0.484   9.843  20.240  0.00  0.00    +0.000 A 
ATOM      9  C   UNL     1      -0.101  10.990  20.769  0.00  0.00    +0.000 A 
ATOM     10  C   UNL     1      -0.434  11.075  22.124  0.00  0.00    +0.000 A 
ATOM     11  C   UNL     1      -0.269   9.962  22.937  0.00  0.00    +0.000 A 
ATOM     12  C   UNL     1       0.273   8.790  22.404  0.00  0.00    +0.000 A 
ATOM     13  C   UNL     1       0.712   8.728  21.089  0.00  0.00    +0.000 A 
ATOM     14  N   UNL     1       1.433   7.656  20.682  0.00  0.00    +0.000 NA
ENDBRANCH   2   5
BRANCH   3  15
ATOM     15  C   UNL     1       4.285   5.774  17.041  0.00  0.00    +0.000 A 
ATOM     16  C   UNL     1       5.357   6.244  16.266  0.00  0.00    +0.000 A 
ATOM     17  C   UNL     1       6.216   5.366  15.574  0.00  0.00    +0.000 A 
ATOM     18  C   UNL     1       6.054   3.992  15.663  0.00  0.00    +0.000 A 
ATOM     19  C   UNL     1       5.007   3.488  16.420  0.00  0.00    +0.000 A 
ATOM     20  C   UNL     1       4.097   4.358  17.076  0.00  0.00    +0.000 A 
BRANCH  20  21
ATOM     21  N   UNL     1       2.973   3.749  17.697  0.00  0.00    +0.000 N 
ATOM     22  C   UNL     1       2.948   2.766  18.663  0.00  0.00    +0.000 A 
ATOM     23  N   UNL     1       1.705   2.417  18.896  0.00  0.00    +0.000 NA
ATOM     24  N   UNL     1       0.941   3.196  18.073  0.00  0.00    +0.000 NA
ATOM     25  N   UNL     1       1.696   4.013  17.354  0.00  0.00    +0.000 NA
ENDBRANCH  20  21
ENDBRANCH   3  15
TORSDOF 3
ENDMDL
MODEL 5
REMARK VINA RESULT:      -7.9      2.455      7.435
REMARK  Name = 
REMARK  3 active torsions:
REMARK  status: ('A' for Active; 'I' for Inactive)
REMARK    1  A    between atoms: C_2  and  C_15
REMARK    2  A    between atoms: N_3  and  C_4
REMARK    3  A    between atoms: C_9  and  N_10
REMARK                            x       y       z     vdW  Elec       q    Type
REMARK                         _______ _______ _______ _____ _____    ______ ____
ROOT
ATOM      1  O   UNL     1       1.889   5.238  17.798  0.00  0.00    +0.000 OA
ATOM      2  C   UNL     1       2.668   6.109  18.132  0.00  0.00    +0.000 C 
ATOM      3  N   UNL     1       4.000   6.255  17.705  0.00  0.00    +0.000 N 
ATOM      4  H   UNL     1       4.480   7.041  18.150  0.00  0.00    +0.000 HD
ENDROOT
BRANCH   2   5
ATOM      5  C   UNL     1       2.217   7.214  19.079  0.00  0.00    +0.000 A 
ATOM      6  C   UNL     1       1.922   6.981  20.419  0.00  0.00    +0.000 A 
ATOM      7  N   UNL     1       1.319   7.910  21.215  0.00  0.00    +0.000 NA
ATOM      8  C   UNL     1       0.939   9.055  20.620  0.00  0.00    +0.000 A 
ATOM      9  C   UNL     1       0.092   9.935  21.289  0.00  0.00    +0.000 A 
ATOM     10  C   UNL     1      -0.437  11.059  20.649  0.00  0.00    +0.000 A 
ATOM     11  C   UNL     1      -0.034  11.358  19.354  0.00  0.00    +0.000 A 
ATOM     12  C   UNL     1       0.853  10.508  18.691  0.00  0.00    +0.000 A 
ATOM     13  C   UNL     1       1.298   9.329  19.275  0.00  0.00    +0.000 A 
ATOM     14  N   UNL     1       1.970   8.430  18.517  0.00  0.00    +0.000 NA
ENDBRANCH   2   5
BRANCH   3  15
ATOM     15  C   UNL     1       4.762   5.517  16.740  0.00  0.00    +0.000 A 
ATOM     16  C   UNL     1       5.216   6.101  15.547  0.00  0.00    +0.000 A 
ATOM     17  C   UNL     1       5.989   5.382  14.613  0.00  0.00    +0.000 A 
ATOM     18  C   UNL     1       6.363   4.069  14.857  0.00  0.00    +0.000 A 
ATOM     19  C   UNL     1       5.935   3.457  16.025  0.00  0.00    +0.000 A 
ATOM     20  C   UNL     1       5.108   4.147  16.949  0.00  0.00    +0.000 A 
BRANCH  20  21
ATOM     21  N   UNL     1       4.599   3.386  18.036  0.00  0.00    +0.000 N 
ATOM     22  C   UNL     1       3.627   2.408  18.025  0.00  0.00    +0.000 A 
ATOM     23  N   UNL     1       3.384   2.022  19.256  0.00  0.00    +0.000 NA
ATOM     24  N   UNL     1       4.220   2.759  20.046  0.00  0.00    +0.000 NA
ATOM     25  N   UNL     1       4.966   3.576  19.319  0.00  0.00    +0.000 NA
ENDBRANCH  20  21
ENDBRANCH   3  15
TORSDOF 3
ENDMDL
MODEL 6
REMARK VINA RESULT:      -7.8      3.938      6.538
REMARK  Name = 
REMARK  3 active torsions:
REMARK  status: ('A' for Active; 'I' for Inactive)
REMARK    1  A    between atoms: C_2  and  C_15
REMARK    2  A    between atoms: N_3  and  C_4
REMARK    3  A    between atoms: C_9  and  N_10
REMARK                            x       y       z     vdW  Elec       q    Type
REMARK                         _______ _______ _______ _____ _____    ______ ____
ROOT
ATOM      1  O   UNL     1       2.272  10.015  17.478  0.00  0.00    +0.000 OA
ATOM      2  C   UNL     1       1.882   9.184  18.275  0.00  0.00    +0.000 C 
ATOM      3  N   UNL     1       0.798   9.313  19.162  0.00  0.00    +0.000 N 
ATOM      4  H   UNL     1       0.679   8.499  19.770  0.00  0.00    +0.000 HD
ENDROOT
BRANCH   2   5
ATOM      5  C   UNL     1       2.563   7.823  18.354  0.00  0.00    +0.000 A 
ATOM      6  C   UNL     1       2.420   6.974  19.448  0.00  0.00    +0.000 A 
ATOM      7  N   UNL     1       3.185   5.860  19.622  0.00  0.00    +0.000 NA
ATOM      8  C   UNL     1       4.159   5.652  18.719  0.00  0.00    +0.000 A 
ATOM      9  C   UNL     1       5.142   4.697  18.967  0.00  0.00    +0.000 A 
ATOM     10  C   UNL     1       6.246   4.557  18.122  0.00  0.00    +0.000 A 
ATOM     11  C   UNL     1       6.316   5.316  16.961  0.00  0.00    +0.000 A 
ATOM     12  C   UNL     1       5.310   6.243  16.678  0.00  0.00    +0.000 A 
ATOM     13  C   UNL     1       4.267   6.471  17.565  0.00  0.00    +0.000 A 
ATOM     14  N   UNL     1       3.447   7.529  17.361  0.00  0.00    +0.000 NA
ENDBRANCH   2   5
BRANCH   3  15
ATOM     15  C   UNL     1      -0.166  10.363  19.319  0.00  0.00    +0.000 A 
ATOM     16  C   UNL     1      -0.695  11.058  18.220  0.00  0.00    +0.000 A 
ATOM     17  C   UNL     1      -1.662  12.071  18.374  0.00  0.00    +0.000 A 
ATOM     18  C   UNL     1      -2.158  12.397  19.628  0.00  0.00    +0.000 A 
ATOM     19  C   UNL     1      -1.662  11.734  20.739  0.00  0.00    +0.000 A 
ATOM     20  C   UNL     1      -0.645  10.752  20.607  0.00  0.00    +0.000 A 
BRANCH  20  21
ATOM     21  N   UNL     1      -0.097  10.241  21.815  0.00  0.00    +0.000 N 
ATOM     22  C   UNL     1      -0.712  10.067  23.037  0.00  0.00    +0.000 A 
ATOM     23  N   UNL     1       0.173   9.657  23.914  0.00  0.00    +0.000 NA
ATOM     24  N   UNL     1       1.354   9.565  23.234  0.00  0.00    +0.000 NA
ATOM     25  N   UNL     1       1.199   9.903  21.963  0.00  0.00    +0.000 NA
ENDBRANCH  20  21
ENDBRANCH   3  15
TORSDOF 3
ENDMDL
MODEL 7
REMARK VINA RESULT:      -7.8      1.226      1.267
REMARK  Name = 
REMARK  3 active torsions:
REMARK  status: ('A' for Active; 'I' for Inactive)
REMARK    1  A    between atoms: C_2  and  C_15
REMARK    2  A    between atoms: N_3  and  C_4
REMARK    3  A    between atoms: C_9  and  N_10
REMARK                            x       y       z     vdW  Elec       q    Type
REMARK                         _______ _______ _______ _____ _____    ______ ____
ROOT
ATOM      1  O   UNL     1       3.168   3.302  16.522  0.00  0.00    +0.000 OA
ATOM      2  C   UNL     1       4.161   3.806  17.008  0.00  0.00    +0.000 C 
ATOM      3  N   UNL     1       4.365   4.125  18.362  0.00  0.00    +0.000 N 
ATOM      4  H   UNL     1       5.264   4.581  18.535  0.00  0.00    +0.000 HD
ENDROOT
BRANCH   2   5
ATOM      5  C   UNL     1       5.367   4.117  16.129  0.00  0.00    +0.000 A 
ATOM      6  C   UNL     1       6.302   5.094  16.458  0.00  0.00    +0.000 A 
ATOM      7  N   UNL     1       7.257   5.525  15.585  0.00  0.00    +0.000 NA
ATOM      8  C   UNL     1       7.208   5.016  14.341  0.00  0.00    +0.000 A 
ATOM      9  C   UNL     1       7.969   5.591  13.327  0.00  0.00    +0.000 A 
ATOM     10  C   UNL     1       7.832   5.183  11.997  0.00  0.00    +0.000 A 
ATOM     11  C   UNL     1       6.994   4.118  11.695  0.00  0.00    +0.000 A 
ATOM     12  C   UNL     1       6.262   3.502  12.713  0.00  0.00    +0.000 A 
ATOM     13  C   UNL     1       6.303   3.971  14.018  0.00  0.00    +0.000 A 
ATOM     14  N   UNL     1       5.412   3.493  14.920  0.00  0.00    +0.000 NA
ENDBRANCH   2   5
BRANCH   3  15
ATOM     15  C   UNL     1       3.549   3.886  19.516  0.00  0.00    +0.000 A 
ATOM     16  C   UNL     1       3.539   2.647  20.176  0.00  0.00    +0.000 A 
ATOM     17  C   UNL     1       2.757   2.422  21.327  0.00  0.00    +0.000 A 
ATOM     18  C   UNL     1       1.987   3.438  21.875  0.00  0.00    +0.000 A 
ATOM     19  C   UNL     1       1.970   4.676  21.253  0.00  0.00    +0.000 A 
ATOM     20  C   UNL     1       2.706   4.903  20.061  0.00  0.00    +0.000 A 
BRANCH  20  21
ATOM     21  N   UNL     1       2.503   6.154  19.418  0.00  0.00    +0.000 N 
ATOM     22  C   UNL     1       2.209   7.377  19.983  0.00  0.00    +0.000 A 
ATOM     23  N   UNL     1       2.007   8.258  19.032  0.00  0.00    +0.000 NA
ATOM     24  N   UNL     1       2.184   7.583  17.858  0.00  0.00    +0.000 NA
ATOM     25  N   UNL     1       2.496   6.315  18.080  0.00  0.00    +0.000 NA
ENDBRANCH  20  21
ENDBRANCH   3  15
TORSDOF 3
ENDMDL
MODEL 8
REMARK VINA RESULT:      -7.8      3.326      8.114
REMARK  Name = 
REMARK  3 active torsions:
REMARK  status: ('A' for Active; 'I' for Inactive)
REMARK    1  A    between atoms: C_2  and  C_15
REMARK    2  A    between atoms: N_3  and  C_4
REMARK    3  A    between atoms: C_9  and  N_10
REMARK                            x       y       z     vdW  Elec       q    Type
REMARK                         _______ _______ _______ _____ _____    ______ ____
ROOT
ATOM      1  O   UNL     1       2.597   9.082  17.055  0.00  0.00    +0.000 OA
ATOM      2  C   UNL     1       2.139   8.490  18.013  0.00  0.00    +0.000 C 
ATOM      3  N   UNL     1       2.514   7.213  18.470  0.00  0.00    +0.000 N 
ATOM      4  H   UNL     1       1.964   6.898  19.272  0.00  0.00    +0.000 HD
ENDROOT
BRANCH   2   5
ATOM      5  C   UNL     1       1.076   9.150  18.882  0.00  0.00    +0.000 A 
ATOM      6  C   UNL     1       0.392  10.297  18.489  0.00  0.00    +0.000 A 
ATOM      7  N   UNL     1      -0.401  11.011  19.338  0.00  0.00    +0.000 NA
ATOM      8  C   UNL     1      -0.432  10.601  20.619  0.00  0.00    +0.000 A 
ATOM      9  C   UNL     1      -0.997  11.418  21.594  0.00  0.00    +0.000 A 
ATOM     10  C   UNL     1      -0.917  11.091  22.950  0.00  0.00    +0.000 A 
ATOM     11  C   UNL     1      -0.349   9.881  23.326  0.00  0.00    +0.000 A 
ATOM     12  C   UNL     1       0.178   9.030  22.351  0.00  0.00    +0.000 A 
ATOM     13  C   UNL     1       0.205   9.395  21.012  0.00  0.00    +0.000 A 
ATOM     14  N   UNL     1       0.923   8.649  20.139  0.00  0.00    +0.000 NA
ENDBRANCH   2   5
BRANCH   3  15
ATOM     15  C   UNL     1       3.543   6.321  18.022  0.00  0.00    +0.000 A 
ATOM     16  C   UNL     1       4.605   6.757  17.214  0.00  0.00    +0.000 A 
ATOM     17  C   UNL     1       5.630   5.884  16.798  0.00  0.00    +0.000 A 
ATOM     18  C   UNL     1       5.648   4.559  17.205  0.00  0.00    +0.000 A 
ATOM     19  C   UNL     1       4.617   4.090  18.005  0.00  0.00    +0.000 A 
ATOM     20  C   UNL     1       3.545   4.939  18.385  0.00  0.00    +0.000 A 
BRANCH  20  21
ATOM     21  N   UNL     1       2.465   4.327  19.075  0.00  0.00    +0.000 N 
ATOM     22  C   UNL     1       1.760   3.190  18.741  0.00  0.00    +0.000 A 
ATOM     23  N   UNL     1       0.778   3.020  19.594  0.00  0.00    +0.000 NA
ATOM     24  N   UNL     1       0.872   4.057  20.478  0.00  0.00    +0.000 NA
ATOM     25  N   UNL     1       1.894   4.845  20.181  0.00  0.00    +0.000 NA
ENDBRANCH  20  21
ENDBRANCH   3  15
TORSDOF 3
ENDMDL
MODEL 9
REMARK VINA RESULT:      -7.8      3.850      6.557
REMARK  Name = 
REMARK  3 active torsions:
REMARK  status: ('A' for Active; 'I' for Inactive)
REMARK    1  A    between atoms: C_2  and  C_15
REMARK    2  A    between atoms: N_3  and  C_4
REMARK    3  A    between atoms: C_9  and  N_10
REMARK                            x       y       z     vdW  Elec       q    Type
REMARK                         _______ _______ _______ _____ _____    ______ ____
ROOT
ATOM      1  O   UNL     1       2.487   9.991  17.529  0.00  0.00    +0.000 OA
ATOM      2  C   UNL     1       1.994   9.080  18.165  0.00  0.00    +0.000 C 
ATOM      3  N   UNL     1       0.818   9.134  18.936  0.00  0.00    +0.000 N 
ATOM      4  H   UNL     1       0.615   8.255  19.418  0.00  0.00    +0.000 HD
ENDROOT
BRANCH   2   5
ATOM      5  C   UNL     1       2.635   7.699  18.144  0.00  0.00    +0.000 A 
ATOM      6  C   UNL     1       3.822   7.433  17.467  0.00  0.00    +0.000 A 
ATOM      7  N   UNL     1       4.289   6.168  17.265  0.00  0.00    +0.000 NA
ATOM      8  C   UNL     1       3.500   5.162  17.684  0.00  0.00    +0.000 A 
ATOM      9  C   UNL     1       3.772   3.856  17.285  0.00  0.00    +0.000 A 
ATOM     10  C   UNL     1       2.894   2.810  17.581  0.00  0.00    +0.000 A 
ATOM     11  C   UNL     1       1.780   3.059  18.370  0.00  0.00    +0.000 A 
ATOM     12  C   UNL     1       1.523   4.357  18.816  0.00  0.00    +0.000 A 
ATOM     13  C   UNL     1       2.325   5.424  18.436  0.00  0.00    +0.000 A 
ATOM     14  N   UNL     1       1.914   6.687  18.701  0.00  0.00    +0.000 NA
ENDBRANCH   2   5
BRANCH   3  15
ATOM     15  C   UNL     1      -0.138  10.187  19.118  0.00  0.00    +0.000 A 
ATOM     16  C   UNL     1      -0.727  10.853  18.032  0.00  0.00    +0.000 A 
ATOM     17  C   UNL     1      -1.686  11.869  18.214  0.00  0.00    +0.000 A 
ATOM     18  C   UNL     1      -2.114  12.227  19.483  0.00  0.00    +0.000 A 
ATOM     19  C   UNL     1      -1.557  11.593  20.582  0.00  0.00    +0.000 A 
ATOM     20  C   UNL     1      -0.547  10.608  20.421  0.00  0.00    +0.000 A 
BRANCH  20  21
ATOM     21  N   UNL     1       0.067  10.129  21.609  0.00  0.00    +0.000 N 
ATOM     22  C   UNL     1      -0.487   9.958  22.860  0.00  0.00    +0.000 A 
ATOM     23  N   UNL     1       0.446   9.583  23.702  0.00  0.00    +0.000 NA
ATOM     24  N   UNL     1       1.597   9.509  22.971  0.00  0.00    +0.000 NA
ATOM     25  N   UNL     1       1.377   9.824  21.703  0.00  0.00    +0.000 NA
ENDBRANCH  20  21
ENDBRANCH   3  15
TORSDOF 3
ENDMDL
