MODEL 1
REMARK VINA RESULT:      -8.5      0.000      0.000
REMARK  Name = 
REMARK  5 active torsions:
REMARK  status: ('A' for Active; 'I' for Inactive)
REMARK    1  A    between atoms: C_2  and  C_11
REMARK    2  A    between atoms: N_3  and  C_4
REMARK    3  A    between atoms: C_9  and  O_10
REMARK    4  A    between atoms: C_15  and  S_16
REMARK    5  A    between atoms: S_16  and  N_19
REMARK                            x       y       z     vdW  Elec       q    Type
REMARK                         _______ _______ _______ _____ _____    ______ ____
ROOT
ATOM      1  C   UNL     1       7.852   7.791  18.204  0.00  0.00    +0.000 A 
ATOM      2  C   UNL     1       8.401   6.885  19.126  0.00  0.00    +0.000 A 
ATOM      3  C   UNL     1       8.023   5.543  19.105  0.00  0.00    +0.000 A 
ATOM      4  C   UNL     1       7.094   5.101  18.163  0.00  0.00    +0.000 A 
ATOM      5  C   UNL     1       6.547   6.004  17.250  0.00  0.00    +0.000 A 
ATOM      6  C   UNL     1       6.928   7.354  17.245  0.00  0.00    +0.000 A 
ENDROOT
BRANCH   1   8
ATOM      7  O   UNL     1       7.920   9.980  17.399  0.00  0.00    +0.000 OA
ATOM      8  C   UNL     1       8.299   9.206  18.271  0.00  0.00    +0.000 C 
ATOM      9  N   UNL     1       9.223   9.474  19.261  0.00  0.00    +0.000 N 
ATOM     10  H   UNL     1       9.848   8.724  19.514  0.00  0.00    +0.000 HD
BRANCH   9  11
ATOM     11  C   UNL     1       9.816  10.736  19.388  0.00  0.00    +0.000 A 
ATOM     12  N   UNL     1      10.470  11.157  18.282  0.00  0.00    +0.000 NA
ATOM     13  C   UNL     1      10.949  12.423  18.308  0.00  0.00    +0.000 A 
ATOM     14  C   UNL     1      10.851  13.268  19.404  0.00  0.00    +0.000 A 
ATOM     15  C   UNL     1      10.250  12.784  20.561  0.00  0.00    +0.000 A 
ATOM     16  C   UNL     1       9.731  11.495  20.559  0.00  0.00    +0.000 A 
BRANCH  16  17
ATOM     17  O   UNL     1       9.232  10.961  21.715  0.00  0.00    +0.000 OA
ATOM     18  H   UNL     1       9.874  10.324  22.068  0.00  0.00    +0.000 HD
ENDBRANCH  16  17
ENDBRANCH   9  11
ENDBRANCH   1   8
BRANCH   5  19
ATOM     19  S   UNL     1       5.323   5.412  16.094  0.00  0.00    +0.000 S 
ATOM     20  O   UNL     1       5.265   6.413  15.045  0.00  0.00    +0.000 OA
ATOM     21  O   UNL     1       5.661   4.038  15.788  0.00  0.00    +0.000 OA
BRANCH  19  22
ATOM     22  N   UNL     1       3.829   5.390  16.965  0.00  0.00    +0.000 N 
ATOM     23  C   UNL     1       3.403   6.681  17.566  0.00  0.00    +0.000 C 
ATOM     24  C   UNL     1       3.617   6.828  19.056  0.00  0.00    +0.000 C 
ATOM     25  C   UNL     1       3.335   5.595  19.886  0.00  0.00    +0.000 C 
ATOM     26  C   UNL     1       3.527   4.295  19.181  0.00  0.00    +0.000 A 
ATOM     27  C   UNL     1       3.483   3.124  19.962  0.00  0.00    +0.000 A 
ATOM     28  C   UNL     1       3.526   1.863  19.375  0.00  0.00    +0.000 A 
ATOM     29  C   UNL     1       3.590   1.765  17.990  0.00  0.00    +0.000 A 
ATOM     30  C   UNL     1       3.651   2.922  17.205  0.00  0.00    +0.000 A 
ATOM     31  C   UNL     1       3.651   4.200  17.786  0.00  0.00    +0.000 A 
ENDBRANCH  19  22
ENDBRANCH   5  19
TORSDOF 5
ENDMDL
MODEL 2
REMARK VINA RESULT:      -8.4      5.767      7.894
REMARK  Name = 
REMARK  5 active torsions:
REMARK  status: ('A' for Active; 'I' for Inactive)
REMARK    1  A    between atoms: C_2  and  C_11
REMARK    2  A    between atoms: N_3  and  C_4
REMARK    3  A    between atoms: C_9  and  O_10
REMARK    4  A    between atoms: C_15  and  S_16
REMARK    5  A    between atoms: S_16  and  N_19
REMARK                            x       y       z     vdW  Elec       q    Type
REMARK                         _______ _______ _______ _____ _____    ______ ____
ROOT
ATOM      1  C   UNL     1       1.017   9.671  20.281  0.00  0.00    +0.000 A 
ATOM      2  C   UNL     1       1.140  10.273  19.018  0.00  0.00    +0.000 A 
ATOM      3  C   UNL     1       1.685   9.563  17.949  0.00  0.00    +0.000 A 
ATOM      4  C   UNL     1       2.110   8.249  18.138  0.00  0.00    +0.000 A 
ATOM      5  C   UNL     1       1.990   7.653  19.395  0.00  0.00    +0.000 A 
ATOM      6  C   UNL     1       1.428   8.345  20.478  0.00  0.00    +0.000 A 
ENDROOT
BRANCH   1   8
ATOM      7  O   UNL     1       0.526  10.062  22.529  0.00  0.00    +0.000 OA
ATOM      8  C   UNL     1       0.421  10.475  21.379  0.00  0.00    +0.000 C 
ATOM      9  N   UNL     1      -0.320  11.563  20.962  0.00  0.00    +0.000 N 
ATOM     10  H   UNL     1      -0.787  11.480  20.072  0.00  0.00    +0.000 HD
BRANCH   9  11
ATOM     11  C   UNL     1      -1.027  12.359  21.871  0.00  0.00    +0.000 A 
ATOM     12  N   UNL     1      -2.306  11.972  22.073  0.00  0.00    +0.000 NA
ATOM     13  C   UNL     1      -2.992  12.628  23.037  0.00  0.00    +0.000 A 
ATOM     14  C   UNL     1      -2.479  13.686  23.772  0.00  0.00    +0.000 A 
ATOM     15  C   UNL     1      -1.189  14.124  23.489  0.00  0.00    +0.000 A 
ATOM     16  C   UNL     1      -0.452  13.458  22.517  0.00  0.00    +0.000 A 
BRANCH  16  17
ATOM     17  O   UNL     1       0.775  13.935  22.148  0.00  0.00    +0.000 OA
ATOM     18  H   UNL     1       0.819  14.881  22.360  0.00  0.00    +0.000 HD
ENDBRANCH  16  17
ENDBRANCH   9  11
ENDBRANCH   1   8
BRANCH   5  19
ATOM     19  S   UNL     1       2.593   5.987  19.610  0.00  0.00    +0.000 S 
ATOM     20  O   UNL     1       4.009   6.121  19.895  0.00  0.00    +0.000 OA
ATOM     21  O   UNL     1       1.707   5.336  20.553  0.00  0.00    +0.000 OA
BRANCH  19  22
ATOM     22  N   UNL     1       2.376   5.209  18.082  0.00  0.00    +0.000 N 
ATOM     23  C   UNL     1       1.428   4.064  18.059  0.00  0.00    +0.000 C 
ATOM     24  C   UNL     1       2.047   2.684  18.037  0.00  0.00    +0.000 C 
ATOM     25  C   UNL     1       3.281   2.529  17.175  0.00  0.00    +0.000 C 
ATOM     26  C   UNL     1       4.094   3.766  17.001  0.00  0.00    +0.000 A 
ATOM     27  C   UNL     1       5.355   3.628  16.388  0.00  0.00    +0.000 A 
ATOM     28  C   UNL     1       6.128   4.741  16.069  0.00  0.00    +0.000 A 
ATOM     29  C   UNL     1       5.630   6.009  16.343  0.00  0.00    +0.000 A 
ATOM     30  C   UNL     1       4.387   6.157  16.968  0.00  0.00    +0.000 A 
ATOM     31  C   UNL     1       3.615   5.042  17.332  0.00  0.00    +0.000 A 
ENDBRANCH  19  22
ENDBRANCH   5  19
TORSDOF 5
ENDMDL
MODEL 3
REMARK VINA RESULT:      -8.2      0.996      1.262
REMARK  Name = 
REMARK  5 active torsions:
REMARK  status: ('A' for Active; 'I' for Inactive)
REMARK    1  A    between atoms: C_2  and  C_11
REMARK    2  A    between atoms: N_3  and  C_4
REMARK    3  A    between atoms: C_9  and  O_10
REMARK    4  A    between atoms: C_15  and  S_16
REMARK    5  A    between atoms: S_16  and  N_19
REMARK                            x       y       z     vdW  Elec       q    Type
REMARK                         _______ _______ _______ _____ _____    ______ ____
ROOT
ATOM      1  C   UNL     1       7.882   7.920  18.233  0.00  0.00    +0.000 A 
ATOM      2  C   UNL     1       8.449   6.978  19.107  0.00  0.00    +0.000 A 
ATOM      3  C   UNL     1       8.080   5.635  19.030  0.00  0.00    +0.000 A 
ATOM      4  C   UNL     1       7.143   5.230  18.080  0.00  0.00    +0.000 A 
ATOM      5  C   UNL     1       6.579   6.168  17.214  0.00  0.00    +0.000 A 
ATOM      6  C   UNL     1       6.950   7.520  17.265  0.00  0.00    +0.000 A 
ENDROOT
BRANCH   1   8
ATOM      7  O   UNL     1       7.952  10.137  17.507  0.00  0.00    +0.000 OA
ATOM      8  C   UNL     1       8.321   9.334  18.357  0.00  0.00    +0.000 C 
ATOM      9  N   UNL     1       9.226   9.571  19.373  0.00  0.00    +0.000 N 
ATOM     10  H   UNL     1       9.850   8.816  19.610  0.00  0.00    +0.000 HD
BRANCH   9  11
ATOM     11  C   UNL     1       9.809  10.831  19.555  0.00  0.00    +0.000 A 
ATOM     12  N   UNL     1       9.484  11.432  20.721  0.00  0.00    +0.000 NA
ATOM     13  C   UNL     1      10.122  12.591  21.002  0.00  0.00    +0.000 A 
ATOM     14  C   UNL     1      11.031  13.204  20.152  0.00  0.00    +0.000 A 
ATOM     15  C   UNL     1      11.287  12.612  18.920  0.00  0.00    +0.000 A 
ATOM     16  C   UNL     1      10.661  11.411  18.609  0.00  0.00    +0.000 A 
BRANCH  16  17
ATOM     17  O   UNL     1      10.814  10.866  17.364  0.00  0.00    +0.000 OA
ATOM     18  H   UNL     1      10.584   9.924  17.404  0.00  0.00    +0.000 HD
ENDBRANCH  16  17
ENDBRANCH   9  11
ENDBRANCH   1   8
BRANCH   5  19
ATOM     19  S   UNL     1       5.345   5.619  16.048  0.00  0.00    +0.000 S 
ATOM     20  O   UNL     1       5.257   6.672  15.053  0.00  0.00    +0.000 OA
ATOM     21  O   UNL     1       5.697   4.268  15.666  0.00  0.00    +0.000 OA
BRANCH  19  22
ATOM     22  N   UNL     1       3.865   5.532  16.938  0.00  0.00    +0.000 N 
ATOM     23  C   UNL     1       3.414   6.792  17.584  0.00  0.00    +0.000 C 
ATOM     24  C   UNL     1       3.647   6.899  19.075  0.00  0.00    +0.000 C 
ATOM     25  C   UNL     1       3.409   5.635  19.871  0.00  0.00    +0.000 C 
ATOM     26  C   UNL     1       3.625   4.363  19.123  0.00  0.00    +0.000 A 
ATOM     27  C   UNL     1       3.623   3.168  19.869  0.00  0.00    +0.000 A 
ATOM     28  C   UNL     1       3.689   1.926  19.243  0.00  0.00    +0.000 A 
ATOM     29  C   UNL     1       3.736   1.872  17.854  0.00  0.00    +0.000 A 
ATOM     30  C   UNL     1       3.755   3.053  17.105  0.00  0.00    +0.000 A 
ATOM     31  C   UNL     1       3.730   4.312  17.725  0.00  0.00    +0.000 A 
ENDBRANCH  19  22
ENDBRANCH   5  19
TORSDOF 5
ENDMDL
MODEL 4
REMARK VINA RESULT:      -8.0      5.745      8.000
REMARK  Name = 
REMARK  5 active torsions:
REMARK  status: ('A' for Active; 'I' for Inactive)
REMARK    1  A    between atoms: C_2  and  C_11
REMARK    2  A    between atoms: N_3  and  C_4
REMARK    3  A    between atoms: C_9  and  O_10
REMARK    4  A    between atoms: C_15  and  S_16
REMARK    5  A    between atoms: S_16  and  N_19
REMARK                            x       y       z     vdW  Elec       q    Type
REMARK                         _______ _______ _______ _____ _____    ______ ____
ROOT
ATOM      1  C   UNL     1       1.139   9.784  19.850  0.00  0.00    +0.000 A 
ATOM      2  C   UNL     1       1.336  10.251  18.540  0.00  0.00    +0.000 A 
ATOM      3  C   UNL     1       1.874   9.411  17.566  0.00  0.00    +0.000 A 
ATOM      4  C   UNL     1       2.217   8.101  17.897  0.00  0.00    +0.000 A 
ATOM      5  C   UNL     1       2.024   7.639  19.200  0.00  0.00    +0.000 A 
ATOM      6  C   UNL     1       1.469   8.464  20.189  0.00  0.00    +0.000 A 
ENDROOT
BRANCH   1   8
ATOM      7  O   UNL     1       1.248  11.076  21.790  0.00  0.00    +0.000 OA
ATOM      8  C   UNL     1       0.556  10.723  20.842  0.00  0.00    +0.000 C 
ATOM      9  N   UNL     1      -0.784  11.003  20.655  0.00  0.00    +0.000 N 
ATOM     10  H   UNL     1      -1.346  10.275  20.241  0.00  0.00    +0.000 HD
BRANCH   9  11
ATOM     11  C   UNL     1      -1.502  11.790  21.563  0.00  0.00    +0.000 A 
ATOM     12  N   UNL     1      -1.878  12.995  21.080  0.00  0.00    +0.000 NA
ATOM     13  C   UNL     1      -2.684  13.739  21.872  0.00  0.00    +0.000 A 
ATOM     14  C   UNL     1      -3.089  13.360  23.143  0.00  0.00    +0.000 A 
ATOM     15  C   UNL     1      -2.621  12.154  23.654  0.00  0.00    +0.000 A 
ATOM     16  C   UNL     1      -1.806  11.358  22.858  0.00  0.00    +0.000 A 
BRANCH  16  17
ATOM     17  O   UNL     1      -1.248  10.222  23.376  0.00  0.00    +0.000 OA
ATOM     18  H   UNL     1      -1.811   9.899  24.098  0.00  0.00    +0.000 HD
ENDBRANCH  16  17
ENDBRANCH   9  11
ENDBRANCH   1   8
BRANCH   5  19
ATOM     19  S   UNL     1       2.525   5.973  19.598  0.00  0.00    +0.000 S 
ATOM     20  O   UNL     1       3.938   6.058  19.914  0.00  0.00    +0.000 OA
ATOM     21  O   UNL     1       1.578   5.469  20.570  0.00  0.00    +0.000 OA
BRANCH  19  22
ATOM     22  N   UNL     1       2.306   5.058  18.147  0.00  0.00    +0.000 N 
ATOM     23  C   UNL     1       1.359   3.916  18.231  0.00  0.00    +0.000 C 
ATOM     24  C   UNL     1       1.980   2.540  18.333  0.00  0.00    +0.000 C 
ATOM     25  C   UNL     1       3.212   2.308  17.486  0.00  0.00    +0.000 C 
ATOM     26  C   UNL     1       4.023   3.525  17.198  0.00  0.00    +0.000 A 
ATOM     27  C   UNL     1       5.282   3.334  16.596  0.00  0.00    +0.000 A 
ATOM     28  C   UNL     1       6.053   4.414  16.175  0.00  0.00    +0.000 A 
ATOM     29  C   UNL     1       5.554   5.702  16.335  0.00  0.00    +0.000 A 
ATOM     30  C   UNL     1       4.312   5.904  16.946  0.00  0.00    +0.000 A 
ATOM     31  C   UNL     1       3.543   4.826  17.412  0.00  0.00    +0.000 A 
ENDBRANCH  19  22
ENDBRANCH   5  19
TORSDOF 5
ENDMDL
MODEL 5
REMARK VINA RESULT:      -8.0      6.861      9.884
REMARK  Name = 
REMARK  5 active torsions:
REMARK  status: ('A' for Active; 'I' for Inactive)
REMARK    1  A    between atoms: C_2  and  C_11
REMARK    2  A    between atoms: N_3  and  C_4
REMARK    3  A    between atoms: C_9  and  O_10
REMARK    4  A    between atoms: C_15  and  S_16
REMARK    5  A    between atoms: S_16  and  N_19
REMARK                            x       y       z     vdW  Elec       q    Type
REMARK                         _______ _______ _______ _____ _____    ______ ____
ROOT
ATOM      1  C   UNL     1       1.306   8.714  19.884  0.00  0.00    +0.000 A 
ATOM      2  C   UNL     1       1.266   8.603  21.284  0.00  0.00    +0.000 A 
ATOM      3  C   UNL     1       0.384   9.387  22.027  0.00  0.00    +0.000 A 
ATOM      4  C   UNL     1      -0.460  10.285  21.376  0.00  0.00    +0.000 A 
ATOM      5  C   UNL     1      -0.417  10.396  19.985  0.00  0.00    +0.000 A 
ATOM      6  C   UNL     1       0.451   9.604  19.218  0.00  0.00    +0.000 A 
ENDROOT
BRANCH   1   8
ATOM      7  O   UNL     1       2.654   8.217  18.045  0.00  0.00    +0.000 OA
ATOM      8  C   UNL     1       2.261   7.848  19.146  0.00  0.00    +0.000 C 
ATOM      9  N   UNL     1       2.508   6.625  19.738  0.00  0.00    +0.000 N 
ATOM     10  H   UNL     1       1.758   6.222  20.278  0.00  0.00    +0.000 HD
BRANCH   9  11
ATOM     11  C   UNL     1       3.305   5.657  19.115  0.00  0.00    +0.000 A 
ATOM     12  N   UNL     1       4.606   5.686  19.484  0.00  0.00    +0.000 NA
ATOM     13  C   UNL     1       5.390   4.691  19.010  0.00  0.00    +0.000 A 
ATOM     14  C   UNL     1       4.951   3.700  18.145  0.00  0.00    +0.000 A 
ATOM     15  C   UNL     1       3.630   3.739  17.711  0.00  0.00    +0.000 A 
ATOM     16  C   UNL     1       2.794   4.738  18.195  0.00  0.00    +0.000 A 
BRANCH  16  17
ATOM     17  O   UNL     1       1.524   4.860  17.701  0.00  0.00    +0.000 OA
ATOM     18  H   UNL     1       1.533   4.637  16.757  0.00  0.00    +0.000 HD
ENDBRANCH  16  17
ENDBRANCH   9  11
ENDBRANCH   1   8
BRANCH   5  19
ATOM     19  S   UNL     1      -1.475  11.593  19.191  0.00  0.00    +0.000 S 
ATOM     20  O   UNL     1      -2.035  12.390  20.266  0.00  0.00    +0.000 OA
ATOM     21  O   UNL     1      -0.697  12.212  18.138  0.00  0.00    +0.000 OA
BRANCH  19  22
ATOM     22  N   UNL     1      -2.730  10.678  18.429  0.00  0.00    +0.000 N 
ATOM     23  C   UNL     1      -2.316   9.832  17.280  0.00  0.00    +0.000 C 
ATOM     24  C   UNL     1      -2.647  10.366  15.903  0.00  0.00    +0.000 C 
ATOM     25  C   UNL     1      -3.992  11.044  15.766  0.00  0.00    +0.000 C 
ATOM     26  C   UNL     1      -4.514  11.679  17.010  0.00  0.00    +0.000 A 
ATOM     27  C   UNL     1      -5.653  12.499  16.887  0.00  0.00    +0.000 A 
ATOM     28  C   UNL     1      -6.285  13.029  18.009  0.00  0.00    +0.000 A 
ATOM     29  C   UNL     1      -5.790  12.721  19.271  0.00  0.00    +0.000 A 
ATOM     30  C   UNL     1      -4.650  11.921  19.404  0.00  0.00    +0.000 A 
ATOM     31  C   UNL     1      -3.979  11.414  18.280  0.00  0.00    +0.000 A 
ENDBRANCH  19  22
ENDBRANCH   5  19
TORSDOF 5
ENDMDL
MODEL 6
REMARK VINA RESULT:      -8.0      5.790      7.607
REMARK  Name = 
REMARK  5 active torsions:
REMARK  status: ('A' for Active; 'I' for Inactive)
REMARK    1  A    between atoms: C_2  and  C_11
REMARK    2  A    between atoms: N_3  and  C_4
REMARK    3  A    between atoms: C_9  and  O_10
REMARK    4  A    between atoms: C_15  and  S_16
REMARK    5  A    between atoms: S_16  and  N_19
REMARK                            x       y       z     vdW  Elec       q    Type
REMARK                         _______ _______ _______ _____ _____    ______ ____
ROOT
ATOM      1  C   UNL     1       1.209   9.633  20.269  0.00  0.00    +0.000 A 
ATOM      2  C   UNL     1       1.108  10.134  18.961  0.00  0.00    +0.000 A 
ATOM      3  C   UNL     1       1.436   9.328  17.871  0.00  0.00    +0.000 A 
ATOM      4  C   UNL     1       1.866   8.020  18.084  0.00  0.00    +0.000 A 
ATOM      5  C   UNL     1       1.969   7.524  19.385  0.00  0.00    +0.000 A 
ATOM      6  C   UNL     1       1.628   8.314  20.493  0.00  0.00    +0.000 A 
ENDROOT
BRANCH   1   8
ATOM      7  O   UNL     1       0.935  10.114  22.537  0.00  0.00    +0.000 OA
ATOM      8  C   UNL     1       0.839  10.536  21.390  0.00  0.00    +0.000 C 
ATOM      9  N   UNL     1       0.289  11.742  21.002  0.00  0.00    +0.000 N 
ATOM     10  H   UNL     1      -0.238  11.745  20.142  0.00  0.00    +0.000 HD
BRANCH   9  11
ATOM     11  C   UNL     1      -0.203  12.658  21.940  0.00  0.00    +0.000 A 
ATOM     12  N   UNL     1       0.436  13.848  21.944  0.00  0.00    +0.000 NA
ATOM     13  C   UNL     1      -0.083  14.811  22.740  0.00  0.00    +0.000 A 
ATOM     14  C   UNL     1      -1.179  14.625  23.570  0.00  0.00    +0.000 A 
ATOM     15  C   UNL     1      -1.769  13.367  23.614  0.00  0.00    +0.000 A 
ATOM     16  C   UNL     1      -1.270  12.362  22.793  0.00  0.00    +0.000 A 
BRANCH  16  17
ATOM     17  O   UNL     1      -1.765  11.091  22.897  0.00  0.00    +0.000 OA
ATOM     18  H   UNL     1      -1.042  10.494  23.148  0.00  0.00    +0.000 HD
ENDBRANCH  16  17
ENDBRANCH   9  11
ENDBRANCH   1   8
BRANCH   5  19
ATOM     19  S   UNL     1       2.574   5.862  19.620  0.00  0.00    +0.000 S 
ATOM     20  O   UNL     1       3.984   6.002  19.930  0.00  0.00    +0.000 OA
ATOM     21  O   UNL     1       1.674   5.213  20.550  0.00  0.00    +0.000 OA
BRANCH  19  22
ATOM     22  N   UNL     1       2.388   5.075  18.092  0.00  0.00    +0.000 N 
ATOM     23  C   UNL     1       1.478   3.900  18.067  0.00  0.00    +0.000 C 
ATOM     24  C   UNL     1       2.141   2.541  18.049  0.00  0.00    +0.000 C 
ATOM     25  C   UNL     1       3.382   2.425  17.192  0.00  0.00    +0.000 C 
ATOM     26  C   UNL     1       4.155   3.688  17.018  0.00  0.00    +0.000 A 
ATOM     27  C   UNL     1       5.422   3.591  16.409  0.00  0.00    +0.000 A 
ATOM     28  C   UNL     1       6.159   4.728  16.091  0.00  0.00    +0.000 A 
ATOM     29  C   UNL     1       5.619   5.980  16.362  0.00  0.00    +0.000 A 
ATOM     30  C   UNL     1       4.369   6.088  16.983  0.00  0.00    +0.000 A 
ATOM     31  C   UNL     1       3.634   4.949  17.346  0.00  0.00    +0.000 A 
ENDBRANCH  19  22
ENDBRANCH   5  19
TORSDOF 5
ENDMDL
MODEL 7
REMARK VINA RESULT:      -7.9      6.077      9.689
REMARK  Name = 
REMARK  5 active torsions:
REMARK  status: ('A' for Active; 'I' for Inactive)
REMARK    1  A    between atoms: C_2  and  C_11
REMARK    2  A    between atoms: N_3  and  C_4
REMARK    3  A    between atoms: C_9  and  O_10
REMARK    4  A    between atoms: C_15  and  S_16
REMARK    5  A    between atoms: S_16  and  N_19
REMARK                            x       y       z     vdW  Elec       q    Type
REMARK                         _______ _______ _______ _____ _____    ______ ____
ROOT
ATOM      1  C   UNL     1       2.206   7.726  18.992  0.00  0.00    +0.000 A 
ATOM      2  C   UNL     1       2.636   8.371  17.821  0.00  0.00    +0.000 A 
ATOM      3  C   UNL     1       2.292   9.702  17.583  0.00  0.00    +0.000 A 
ATOM      4  C   UNL     1       1.518  10.392  18.514  0.00  0.00    +0.000 A 
ATOM      5  C   UNL     1       1.089   9.748  19.676  0.00  0.00    +0.000 A 
ATOM      6  C   UNL     1       1.438   8.416  19.941  0.00  0.00    +0.000 A 
ENDROOT
BRANCH   1   8
ATOM      7  O   UNL     1       3.586   6.076  19.897  0.00  0.00    +0.000 OA
ATOM      8  C   UNL     1       2.609   6.311  19.193  0.00  0.00    +0.000 C 
ATOM      9  N   UNL     1       1.901   5.395  18.441  0.00  0.00    +0.000 N 
ATOM     10  H   UNL     1       1.558   5.710  17.546  0.00  0.00    +0.000 HD
BRANCH   9  11
ATOM     11  C   UNL     1       2.229   4.034  18.443  0.00  0.00    +0.000 A 
ATOM     12  N   UNL     1       3.190   3.692  17.556  0.00  0.00    +0.000 NA
ATOM     13  C   UNL     1       3.635   2.415  17.608  0.00  0.00    +0.000 A 
ATOM     14  C   UNL     1       3.130   1.451  18.469  0.00  0.00    +0.000 A 
ATOM     15  C   UNL     1       2.083   1.803  19.314  0.00  0.00    +0.000 A 
ATOM     16  C   UNL     1       1.617   3.112  19.297  0.00  0.00    +0.000 A 
BRANCH  16  17
ATOM     17  O   UNL     1       0.521   3.454  20.041  0.00  0.00    +0.000 OA
ATOM     18  H   UNL     1      -0.248   3.518  19.453  0.00  0.00    +0.000 HD
ENDBRANCH  16  17
ENDBRANCH   9  11
ENDBRANCH   1   8
BRANCH   5  19
ATOM     19  S   UNL     1       0.055  10.649  20.819  0.00  0.00    +0.000 S 
ATOM     20  O   UNL     1      -0.983   9.718  21.219  0.00  0.00    +0.000 OA
ATOM     21  O   UNL     1       0.933  11.245  21.803  0.00  0.00    +0.000 OA
BRANCH  19  22
ATOM     22  N   UNL     1      -0.640  11.941  19.903  0.00  0.00    +0.000 N 
ATOM     23  C   UNL     1      -0.645  13.276  20.556  0.00  0.00    +0.000 C 
ATOM     24  C   UNL     1      -1.966  13.731  21.137  0.00  0.00    +0.000 C 
ATOM     25  C   UNL     1      -3.195  13.397  20.321  0.00  0.00    +0.000 C 
ATOM     26  C   UNL     1      -3.081  12.179  19.469  0.00  0.00    +0.000 A 
ATOM     27  C   UNL     1      -4.258  11.708  18.855  0.00  0.00    +0.000 A 
ATOM     28  C   UNL     1      -4.226  10.656  17.944  0.00  0.00    +0.000 A 
ATOM     29  C   UNL     1      -3.003  10.080  17.621  0.00  0.00    +0.000 A 
ATOM     30  C   UNL     1      -1.829  10.529  18.237  0.00  0.00    +0.000 A 
ATOM     31  C   UNL     1      -1.853  11.561  19.189  0.00  0.00    +0.000 A 
ENDBRANCH  19  22
ENDBRANCH   5  19
TORSDOF 5
ENDMDL
MODEL 8
REMARK VINA RESULT:      -7.9      5.816      8.006
REMARK  Name = 
REMARK  5 active torsions:
REMARK  status: ('A' for Active; 'I' for Inactive)
REMARK    1  A    between atoms: C_2  and  C_11
REMARK    2  A    between atoms: N_3  and  C_4
REMARK    3  A    between atoms: C_9  and  O_10
REMARK    4  A    between atoms: C_15  and  S_16
REMARK    5  A    between atoms: S_16  and  N_19
REMARK                            x       y       z     vdW  Elec       q    Type
REMARK                         _______ _______ _______ _____ _____    ______ ____
ROOT
ATOM      1  C   UNL     1       0.906   9.401  20.018  0.00  0.00    +0.000 A 
ATOM      2  C   UNL     1       1.199  10.065  18.816  0.00  0.00    +0.000 A 
ATOM      3  C   UNL     1       1.984   9.447  17.843  0.00  0.00    +0.000 A 
ATOM      4  C   UNL     1       2.480   8.163  18.068  0.00  0.00    +0.000 A 
ATOM      5  C   UNL     1       2.190   7.506  19.265  0.00  0.00    +0.000 A 
ATOM      6  C   UNL     1       1.388   8.105  20.248  0.00  0.00    +0.000 A 
ENDROOT
BRANCH   1   8
ATOM      7  O   UNL     1      -0.443   9.454  21.922  0.00  0.00    +0.000 OA
ATOM      8  C   UNL     1       0.059  10.107  21.013  0.00  0.00    +0.000 C 
ATOM      9  N   UNL     1      -0.184  11.436  20.725  0.00  0.00    +0.000 N 
ATOM     10  H   UNL     1      -0.213  11.692  19.750  0.00  0.00    +0.000 HD
BRANCH   9  11
ATOM     11  C   UNL     1      -1.046  12.210  21.512  0.00  0.00    +0.000 A 
ATOM     12  N   UNL     1      -0.559  12.517  22.735  0.00  0.00    +0.000 NA
ATOM     13  C   UNL     1      -1.297  13.369  23.483  0.00  0.00    +0.000 A 
ATOM     14  C   UNL     1      -2.521  13.888  23.089  0.00  0.00    +0.000 A 
ATOM     15  C   UNL     1      -3.044  13.492  21.863  0.00  0.00    +0.000 A 
ATOM     16  C   UNL     1      -2.301  12.632  21.063  0.00  0.00    +0.000 A 
BRANCH  16  17
ATOM     17  O   UNL     1      -2.841  12.145  19.904  0.00  0.00    +0.000 OA
ATOM     18  H   UNL     1      -2.840  12.851  19.238  0.00  0.00    +0.000 HD
ENDBRANCH  16  17
ENDBRANCH   9  11
ENDBRANCH   1   8
BRANCH   5  19
ATOM     19  S   UNL     1       2.885   5.886  19.539  0.00  0.00    +0.000 S 
ATOM     20  O   UNL     1       4.309   6.099  19.718  0.00  0.00    +0.000 OA
ATOM     21  O   UNL     1       2.096   5.257  20.577  0.00  0.00    +0.000 OA
BRANCH  19  22
ATOM     22  N   UNL     1       2.607   5.003  18.078  0.00  0.00    +0.000 N 
ATOM     23  C   UNL     1       1.715   3.819  18.189  0.00  0.00    +0.000 C 
ATOM     24  C   UNL     1       2.396   2.469  18.209  0.00  0.00    +0.000 C 
ATOM     25  C   UNL     1       3.577   2.313  17.276  0.00  0.00    +0.000 C 
ATOM     26  C   UNL     1       4.317   3.571  16.972  0.00  0.00    +0.000 A 
ATOM     27  C   UNL     1       5.540   3.449  16.284  0.00  0.00    +0.000 A 
ATOM     28  C   UNL     1       6.237   4.572  15.846  0.00  0.00    +0.000 A 
ATOM     29  C   UNL     1       5.698   5.833  16.077  0.00  0.00    +0.000 A 
ATOM     30  C   UNL     1       4.492   5.966  16.775  0.00  0.00    +0.000 A 
ATOM     31  C   UNL     1       3.801   4.844  17.257  0.00  0.00    +0.000 A 
ENDBRANCH  19  22
ENDBRANCH   5  19
TORSDOF 5
ENDMDL
MODEL 9
REMARK VINA RESULT:      -7.9      6.313      9.678
REMARK  Name = 
REMARK  5 active torsions:
REMARK  status: ('A' for Active; 'I' for Inactive)
REMARK    1  A    between atoms: C_2  and  C_11
REMARK    2  A    between atoms: N_3  and  C_4
REMARK    3  A    between atoms: C_9  and  O_10
REMARK    4  A    between atoms: C_15  and  S_16
REMARK    5  A    between atoms: S_16  and  N_19
REMARK                            x       y       z     vdW  Elec       q    Type
REMARK                         _______ _______ _______ _____ _____    ______ ____
ROOT
ATOM      1  C   UNL     1       1.818   8.221  19.199  0.00  0.00    +0.000 A 
ATOM      2  C   UNL     1       2.373   8.814  18.053  0.00  0.00    +0.000 A 
ATOM      3  C   UNL     1       2.187  10.173  17.803  0.00  0.00    +0.000 A 
ATOM      4  C   UNL     1       1.445  10.944  18.697  0.00  0.00    +0.000 A 
ATOM      5  C   UNL     1       0.893  10.353  19.834  0.00  0.00    +0.000 A 
ATOM      6  C   UNL     1       1.083   8.991  20.111  0.00  0.00    +0.000 A 
ENDROOT
BRANCH   1   8
ATOM      7  O   UNL     1       1.866   6.307  20.535  0.00  0.00    +0.000 OA
ATOM      8  C   UNL     1       2.057   6.770  19.416  0.00  0.00    +0.000 C 
ATOM      9  N   UNL     1       2.608   6.108  18.336  0.00  0.00    +0.000 N 
ATOM     10  H   UNL     1       3.213   6.646  17.734  0.00  0.00    +0.000 HD
BRANCH   9  11
ATOM     11  C   UNL     1       2.985   4.762  18.417  0.00  0.00    +0.000 A 
ATOM     12  N   UNL     1       4.195   4.556  18.984  0.00  0.00    +0.000 NA
ATOM     13  C   UNL     1       4.548   3.269  19.203  0.00  0.00    +0.000 A 
ATOM     14  C   UNL     1       3.775   2.177  18.836  0.00  0.00    +0.000 A 
ATOM     15  C   UNL     1       2.572   2.411  18.177  0.00  0.00    +0.000 A 
ATOM     16  C   UNL     1       2.172   3.723  17.954  0.00  0.00    +0.000 A 
BRANCH  16  17
ATOM     17  O   UNL     1       1.049   3.976  17.215  0.00  0.00    +0.000 OA
ATOM     18  H   UNL     1       0.599   3.136  17.034  0.00  0.00    +0.000 HD
ENDBRANCH  16  17
ENDBRANCH   9  11
ENDBRANCH   1   8
BRANCH   5  19
ATOM     19  S   UNL     1      -0.093  11.361  20.927  0.00  0.00    +0.000 S 
ATOM     20  O   UNL     1      -1.012  10.446  21.577  0.00  0.00    +0.000 OA
ATOM     21  O   UNL     1       0.826  12.163  21.706  0.00  0.00    +0.000 OA
BRANCH  19  22
ATOM     22  N   UNL     1      -0.973  12.441  19.902  0.00  0.00    +0.000 N 
ATOM     23  C   UNL     1      -1.258  13.788  20.462  0.00  0.00    +0.000 C 
ATOM     24  C   UNL     1      -2.666  14.019  20.964  0.00  0.00    +0.000 C 
ATOM     25  C   UNL     1      -3.771  13.411  20.129  0.00  0.00    +0.000 C 
ATOM     26  C   UNL     1      -3.391  12.188  19.366  0.00  0.00    +0.000 A 
ATOM     27  C   UNL     1      -4.430  11.467  18.744  0.00  0.00    +0.000 A 
ATOM     28  C   UNL     1      -4.159  10.388  17.908  0.00  0.00    +0.000 A 
ATOM     29  C   UNL     1      -2.836  10.035  17.668  0.00  0.00    +0.000 A 
ATOM     30  C   UNL     1      -1.797  10.733  18.294  0.00  0.00    +0.000 A 
ATOM     31  C   UNL     1      -2.058  11.797  19.172  0.00  0.00    +0.000 A 
ENDBRANCH  19  22
ENDBRANCH   5  19
TORSDOF 5
ENDMDL
