MODEL 1
REMARK VINA RESULT:      -8.3      0.000      0.000
REMARK  Name = 
REMARK  3 active torsions:
REMARK  status: ('A' for Active; 'I' for Inactive)
REMARK    1  A    between atoms: C_1  and  C_2
REMARK    2  A    between atoms: C_4  and  C_5
REMARK    3  A    between atoms: C_14  and  C_16
REMARK                            x       y       z     vdW  Elec       q    Type
REMARK                         _______ _______ _______ _____ _____    ______ ____
ROOT
ATOM      1  C   UNL     1       1.573   8.432  19.890  0.00  0.00    +0.000 A 
ATOM      2  C   UNL     1       1.087   9.508  19.118  0.00  0.00    +0.000 A 
ATOM      3  C   UNL     1       0.230  10.476  19.666  0.00  0.00    +0.000 A 
ATOM      4  C   UNL     1      -0.126  10.364  20.998  0.00  0.00    +0.000 A 
ATOM      5  C   UNL     1       0.396   9.330  21.780  0.00  0.00    +0.000 A 
ATOM      6  C   UNL     1       1.235   8.358  21.246  0.00  0.00    +0.000 A 
ATOM      7  C   UNL     1      -0.041   9.449  23.201  0.00  0.00    +0.000 C 
ATOM      8  C   UNL     1      -1.138  10.509  23.093  0.00  0.00    +0.000 C 
ATOM      9  N   UNL     1      -1.021  11.144  21.764  0.00  0.00    +0.000 N 
ATOM     10  C   UNL     1      -1.819  12.174  21.278  0.00  0.00    +0.000 C 
ATOM     11  O   UNL     1      -1.756  12.656  20.150  0.00  0.00    +0.000 OA
ENDROOT
BRANCH  10  12
ATOM     12  C   UNL     1      -2.911  12.729  22.214  0.00  0.00    +0.000 A 
ATOM     13  N   UNL     1      -4.127  12.297  22.018  0.00  0.00    +0.000 NA
ATOM     14  N   UNL     1      -5.136  12.798  22.772  0.00  0.00    +0.000 N 
ATOM     15  C   UNL     1      -5.036  13.849  23.647  0.00  0.00    +0.000 A 
ATOM     16  O   UNL     1      -6.016  14.331  24.204  0.00  0.00    +0.000 OA
ATOM     17  C   UNL     1      -3.675  14.345  23.900  0.00  0.00    +0.000 A 
ATOM     18  C   UNL     1      -3.481  15.375  24.830  0.00  0.00    +0.000 A 
ATOM     19  C   UNL     1      -2.191  15.808  25.118  0.00  0.00    +0.000 A 
ATOM     20  C   UNL     1      -1.103  15.209  24.485  0.00  0.00    +0.000 A 
ATOM     21  C   UNL     1      -1.298  14.187  23.545  0.00  0.00    +0.000 A 
ATOM     22  C   UNL     1      -2.595  13.760  23.234  0.00  0.00    +0.000 A 
ATOM     23  H   UNL     1      -6.069  12.441  22.585  0.00  0.00    +0.000 HD
ENDBRANCH  10  12
BRANCH   1  27
ATOM     24  C   UNL     1       4.723   6.608  16.553  0.00  0.00    +0.000 C 
ATOM     25  C   UNL     1       3.822   6.645  17.735  0.00  0.00    +0.000 A 
ATOM     26  N   UNL     1       3.153   7.710  18.124  0.00  0.00    +0.000 NA
ATOM     27  C   UNL     1       2.417   7.420  19.262  0.00  0.00    +0.000 A 
ATOM     28  C   UNL     1       2.525   6.116  19.703  0.00  0.00    +0.000 A 
ATOM     29  S   UNL     1       3.590   5.235  18.688  0.00  0.00    +0.000 S 
ENDBRANCH   1  27
TORSDOF 2
ENDMDL
MODEL 2
REMARK VINA RESULT:      -8.3      2.276      3.701
REMARK  Name = 
REMARK  3 active torsions:
REMARK  status: ('A' for Active; 'I' for Inactive)
REMARK    1  A    between atoms: C_1  and  C_2
REMARK    2  A    between atoms: C_4  and  C_5
REMARK    3  A    between atoms: C_14  and  C_16
REMARK                            x       y       z     vdW  Elec       q    Type
REMARK                         _______ _______ _______ _____ _____    ______ ____
ROOT
ATOM      1  C   UNL     1       2.672   6.970  18.542  0.00  0.00    +0.000 A 
ATOM      2  C   UNL     1       2.617   8.122  17.729  0.00  0.00    +0.000 A 
ATOM      3  C   UNL     1       1.979   9.296  18.160  0.00  0.00    +0.000 A 
ATOM      4  C   UNL     1       1.409   9.312  19.421  0.00  0.00    +0.000 A 
ATOM      5  C   UNL     1       1.508   8.191  20.250  0.00  0.00    +0.000 A 
ATOM      6  C   UNL     1       2.125   7.019  19.830  0.00  0.00    +0.000 A 
ATOM      7  C   UNL     1       0.909   8.453  21.591  0.00  0.00    +0.000 C 
ATOM      8  C   UNL     1       0.168   9.767  21.340  0.00  0.00    +0.000 C 
ATOM      9  N   UNL     1       0.652  10.319  20.058  0.00  0.00    +0.000 N 
ATOM     10  C   UNL     1       0.245  11.516  19.479  0.00  0.00    +0.000 C 
ATOM     11  O   UNL     1       0.605  11.940  18.385  0.00  0.00    +0.000 OA
ENDROOT
BRANCH  10  12
ATOM     12  C   UNL     1      -0.787  12.364  20.251  0.00  0.00    +0.000 A 
ATOM     13  N   UNL     1      -0.341  13.049  21.267  0.00  0.00    +0.000 NA
ATOM     14  N   UNL     1      -1.216  13.763  22.019  0.00  0.00    +0.000 N 
ATOM     15  C   UNL     1      -2.582  13.724  21.910  0.00  0.00    +0.000 A 
ATOM     16  O   UNL     1      -3.317  14.300  22.703  0.00  0.00    +0.000 OA
ATOM     17  C   UNL     1      -3.112  12.971  20.763  0.00  0.00    +0.000 A 
ATOM     18  C   UNL     1      -4.496  12.936  20.545  0.00  0.00    +0.000 A 
ATOM     19  C   UNL     1      -5.000  12.276  19.429  0.00  0.00    +0.000 A 
ATOM     20  C   UNL     1      -4.125  11.663  18.534  0.00  0.00    +0.000 A 
ATOM     21  C   UNL     1      -2.741  11.687  18.760  0.00  0.00    +0.000 A 
ATOM     22  C   UNL     1      -2.228  12.331  19.892  0.00  0.00    +0.000 A 
ATOM     23  H   UNL     1      -0.830  14.279  22.804  0.00  0.00    +0.000 HD
ENDBRANCH  10  12
BRANCH   1  27
ATOM     24  C   UNL     1       3.290   2.107  17.940  0.00  0.00    +0.000 C 
ATOM     25  C   UNL     1       3.540   3.567  17.798  0.00  0.00    +0.000 A 
ATOM     26  N   UNL     1       2.811   4.503  18.366  0.00  0.00    +0.000 NA
ATOM     27  C   UNL     1       3.298   5.756  18.027  0.00  0.00    +0.000 A 
ATOM     28  C   UNL     1       4.415   5.742  17.217  0.00  0.00    +0.000 A 
ATOM     29  S   UNL     1       4.858   4.127  16.850  0.00  0.00    +0.000 S 
ENDBRANCH   1  27
TORSDOF 2
ENDMDL
MODEL 3
REMARK VINA RESULT:      -8.2      3.784     10.085
REMARK  Name = 
REMARK  3 active torsions:
REMARK  status: ('A' for Active; 'I' for Inactive)
REMARK    1  A    between atoms: C_1  and  C_2
REMARK    2  A    between atoms: C_4  and  C_5
REMARK    3  A    between atoms: C_14  and  C_16
REMARK                            x       y       z     vdW  Elec       q    Type
REMARK                         _______ _______ _______ _____ _____    ______ ____
ROOT
ATOM      1  C   UNL     1      -0.593  11.201  20.972  0.00  0.00    +0.000 A 
ATOM      2  C   UNL     1      -0.287  11.320  19.600  0.00  0.00    +0.000 A 
ATOM      3  C   UNL     1       0.485  10.355  18.933  0.00  0.00    +0.000 A 
ATOM      4  C   UNL     1       0.937   9.261  19.651  0.00  0.00    +0.000 A 
ATOM      5  C   UNL     1       0.591   9.113  20.997  0.00  0.00    +0.000 A 
ATOM      6  C   UNL     1      -0.161  10.068  21.671  0.00  0.00    +0.000 A 
ATOM      7  C   UNL     1       1.103   7.826  21.550  0.00  0.00    +0.000 C 
ATOM      8  C   UNL     1       2.059   7.379  20.444  0.00  0.00    +0.000 C 
ATOM      9  N   UNL     1       1.783   8.204  19.250  0.00  0.00    +0.000 N 
ATOM     10  C   UNL     1       2.422   8.098  18.019  0.00  0.00    +0.000 C 
ATOM     11  O   UNL     1       2.230   8.827  17.050  0.00  0.00    +0.000 OA
ENDROOT
BRANCH  10  12
ATOM     12  C   UNL     1       3.501   7.007  17.870  0.00  0.00    +0.000 A 
ATOM     13  N   UNL     1       4.736   7.413  17.761  0.00  0.00    +0.000 NA
ATOM     14  N   UNL     1       5.718   6.498  17.566  0.00  0.00    +0.000 N 
ATOM     15  C   UNL     1       5.531   5.163  17.318  0.00  0.00    +0.000 A 
ATOM     16  O   UNL     1       6.458   4.416  17.027  0.00  0.00    +0.000 OA
ATOM     17  C   UNL     1       4.151   4.674  17.450  0.00  0.00    +0.000 A 
ATOM     18  C   UNL     1       3.885   3.310  17.275  0.00  0.00    +0.000 A 
ATOM     19  C   UNL     1       2.592   2.831  17.457  0.00  0.00    +0.000 A 
ATOM     20  C   UNL     1       1.574   3.711  17.820  0.00  0.00    +0.000 A 
ATOM     21  C   UNL     1       1.836   5.079  17.983  0.00  0.00    +0.000 A 
ATOM     22  C   UNL     1       3.131   5.571  17.780  0.00  0.00    +0.000 A 
ATOM     23  H   UNL     1       6.666   6.855  17.480  0.00  0.00    +0.000 HD
ENDBRANCH  10  12
BRANCH   1  27
ATOM     24  C   UNL     1      -3.764  13.130  24.230  0.00  0.00    +0.000 C 
ATOM     25  C   UNL     1      -2.790  13.074  23.106  0.00  0.00    +0.000 A 
ATOM     26  N   UNL     1      -2.211  11.971  22.683  0.00  0.00    +0.000 NA
ATOM     27  C   UNL     1      -1.353  12.258  21.633  0.00  0.00    +0.000 A 
ATOM     28  C   UNL     1      -1.318  13.587  21.261  0.00  0.00    +0.000 A 
ATOM     29  S   UNL     1      -2.365  14.507  22.261  0.00  0.00    +0.000 S 
ENDBRANCH   1  27
TORSDOF 2
ENDMDL
MODEL 4
REMARK VINA RESULT:      -8.2      2.305      3.632
REMARK  Name = 
REMARK  3 active torsions:
REMARK  status: ('A' for Active; 'I' for Inactive)
REMARK    1  A    between atoms: C_1  and  C_2
REMARK    2  A    between atoms: C_4  and  C_5
REMARK    3  A    between atoms: C_14  and  C_16
REMARK                            x       y       z     vdW  Elec       q    Type
REMARK                         _______ _______ _______ _____ _____    ______ ____
ROOT
ATOM      1  C   UNL     1       2.702   6.899  18.635  0.00  0.00    +0.000 A 
ATOM      2  C   UNL     1       2.665   8.035  17.800  0.00  0.00    +0.000 A 
ATOM      3  C   UNL     1       1.996   9.208  18.187  0.00  0.00    +0.000 A 
ATOM      4  C   UNL     1       1.377   9.237  19.424  0.00  0.00    +0.000 A 
ATOM      5  C   UNL     1       1.458   8.132  20.276  0.00  0.00    +0.000 A 
ATOM      6  C   UNL     1       2.106   6.962  19.900  0.00  0.00    +0.000 A 
ATOM      7  C   UNL     1       0.805   8.409  21.588  0.00  0.00    +0.000 C 
ATOM      8  C   UNL     1       0.057   9.709  21.286  0.00  0.00    +0.000 C 
ATOM      9  N   UNL     1       0.583  10.246  20.014  0.00  0.00    +0.000 N 
ATOM     10  C   UNL     1       0.183  11.427  19.399  0.00  0.00    +0.000 C 
ATOM     11  O   UNL     1       0.581  11.837  18.312  0.00  0.00    +0.000 OA
ENDROOT
BRANCH  10  12
ATOM     12  C   UNL     1      -0.888  12.273  20.115  0.00  0.00    +0.000 A 
ATOM     13  N   UNL     1      -0.491  12.980  21.137  0.00  0.00    +0.000 NA
ATOM     14  N   UNL     1      -1.403  13.695  21.843  0.00  0.00    +0.000 N 
ATOM     15  C   UNL     1      -2.763  13.637  21.680  0.00  0.00    +0.000 A 
ATOM     16  O   UNL     1      -3.536  14.216  22.435  0.00  0.00    +0.000 OA
ATOM     17  C   UNL     1      -3.239  12.861  20.525  0.00  0.00    +0.000 A 
ATOM     18  C   UNL     1      -4.612  12.805  20.253  0.00  0.00    +0.000 A 
ATOM     19  C   UNL     1      -5.064  12.122  19.129  0.00  0.00    +0.000 A 
ATOM     20  C   UNL     1      -4.147  11.506  18.279  0.00  0.00    +0.000 A 
ATOM     21  C   UNL     1      -2.773  11.550  18.559  0.00  0.00    +0.000 A 
ATOM     22  C   UNL     1      -2.313  12.218  19.700  0.00  0.00    +0.000 A 
ATOM     23  H   UNL     1      -1.055  14.227  22.635  0.00  0.00    +0.000 HD
ENDBRANCH  10  12
BRANCH   1  27
ATOM     24  C   UNL     1       5.684   4.186  15.781  0.00  0.00    +0.000 C 
ATOM     25  C   UNL     1       4.704   4.509  16.853  0.00  0.00    +0.000 A 
ATOM     26  N   UNL     1       4.248   5.718  17.101  0.00  0.00    +0.000 NA
ATOM     27  C   UNL     1       3.363   5.684  18.166  0.00  0.00    +0.000 A 
ATOM     28  C   UNL     1       3.144   4.428  18.696  0.00  0.00    +0.000 A 
ATOM     29  S   UNL     1       4.083   3.263  17.859  0.00  0.00    +0.000 S 
ENDBRANCH   1  27
TORSDOF 2
ENDMDL
MODEL 5
REMARK VINA RESULT:      -8.2      0.779      1.063
REMARK  Name = 
REMARK  3 active torsions:
REMARK  status: ('A' for Active; 'I' for Inactive)
REMARK    1  A    between atoms: C_1  and  C_2
REMARK    2  A    between atoms: C_4  and  C_5
REMARK    3  A    between atoms: C_14  and  C_16
REMARK                            x       y       z     vdW  Elec       q    Type
REMARK                         _______ _______ _______ _____ _____    ______ ____
ROOT
ATOM      1  C   UNL     1       1.549   8.462  19.877  0.00  0.00    +0.000 A 
ATOM      2  C   UNL     1       1.056   9.537  19.108  0.00  0.00    +0.000 A 
ATOM      3  C   UNL     1       0.200  10.503  19.662  0.00  0.00    +0.000 A 
ATOM      4  C   UNL     1      -0.146  10.390  20.997  0.00  0.00    +0.000 A 
ATOM      5  C   UNL     1       0.384   9.356  21.775  0.00  0.00    +0.000 A 
ATOM      6  C   UNL     1       1.221   8.387  21.235  0.00  0.00    +0.000 A 
ATOM      7  C   UNL     1      -0.044   9.475  23.199  0.00  0.00    +0.000 C 
ATOM      8  C   UNL     1      -1.144  10.532  23.098  0.00  0.00    +0.000 C 
ATOM      9  N   UNL     1      -1.038  11.167  21.769  0.00  0.00    +0.000 N 
ATOM     10  C   UNL     1      -1.842  12.196  21.289  0.00  0.00    +0.000 C 
ATOM     11  O   UNL     1      -1.788  12.678  20.161  0.00  0.00    +0.000 OA
ENDROOT
BRANCH  10  12
ATOM     12  C   UNL     1      -2.929  12.747  22.233  0.00  0.00    +0.000 A 
ATOM     13  N   UNL     1      -4.144  12.307  22.049  0.00  0.00    +0.000 NA
ATOM     14  N   UNL     1      -5.150  12.806  22.810  0.00  0.00    +0.000 N 
ATOM     15  C   UNL     1      -5.048  13.860  23.681  0.00  0.00    +0.000 A 
ATOM     16  O   UNL     1      -6.025  14.338  24.245  0.00  0.00    +0.000 OA
ATOM     17  C   UNL     1      -3.688  14.364  23.920  0.00  0.00    +0.000 A 
ATOM     18  C   UNL     1      -3.491  15.399  24.844  0.00  0.00    +0.000 A 
ATOM     19  C   UNL     1      -2.201  15.840  25.119  0.00  0.00    +0.000 A 
ATOM     20  C   UNL     1      -1.115  15.246  24.479  0.00  0.00    +0.000 A 
ATOM     21  C   UNL     1      -1.313  14.219  23.544  0.00  0.00    +0.000 A 
ATOM     22  C   UNL     1      -2.610  13.784  23.246  0.00  0.00    +0.000 A 
ATOM     23  H   UNL     1      -6.082  12.442  22.633  0.00  0.00    +0.000 HD
ENDBRANCH  10  12
BRANCH   1  27
ATOM     24  C   UNL     1       3.902   4.138  19.474  0.00  0.00    +0.000 C 
ATOM     25  C   UNL     1       3.437   5.504  19.113  0.00  0.00    +0.000 A 
ATOM     26  N   UNL     1       2.647   6.241  19.865  0.00  0.00    +0.000 NA
ATOM     27  C   UNL     1       2.392   7.452  19.242  0.00  0.00    +0.000 A 
ATOM     28  C   UNL     1       3.022   7.621  18.025  0.00  0.00    +0.000 A 
ATOM     29  S   UNL     1       3.938   6.224  17.637  0.00  0.00    +0.000 S 
ENDBRANCH   1  27
TORSDOF 2
ENDMDL
MODEL 6
REMARK VINA RESULT:      -8.1      3.900     10.123
REMARK  Name = 
REMARK  3 active torsions:
REMARK  status: ('A' for Active; 'I' for Inactive)
REMARK    1  A    between atoms: C_1  and  C_2
REMARK    2  A    between atoms: C_4  and  C_5
REMARK    3  A    between atoms: C_14  and  C_16
REMARK                            x       y       z     vdW  Elec       q    Type
REMARK                         _______ _______ _______ _____ _____    ______ ____
ROOT
ATOM      1  C   UNL     1      -0.813  11.013  21.275  0.00  0.00    +0.000 A 
ATOM      2  C   UNL     1      -0.423   9.948  22.113  0.00  0.00    +0.000 A 
ATOM      3  C   UNL     1       0.467   8.955  21.673  0.00  0.00    +0.000 A 
ATOM      4  C   UNL     1       0.976   9.048  20.389  0.00  0.00    +0.000 A 
ATOM      5  C   UNL     1       0.634  10.131  19.575  0.00  0.00    +0.000 A 
ATOM      6  C   UNL     1      -0.256  11.112  19.994  0.00  0.00    +0.000 A 
ATOM      7  C   UNL     1       1.362  10.083  18.274  0.00  0.00    +0.000 C 
ATOM      8  C   UNL     1       1.940   8.668  18.302  0.00  0.00    +0.000 C 
ATOM      9  N   UNL     1       1.814   8.157  19.682  0.00  0.00    +0.000 N 
ATOM     10  C   UNL     1       2.242   6.914  20.135  0.00  0.00    +0.000 C 
ATOM     11  O   UNL     1       2.079   6.472  21.269  0.00  0.00    +0.000 OA
ENDROOT
BRANCH  10  12
ATOM     12  C   UNL     1       2.935   5.987  19.117  0.00  0.00    +0.000 A 
ATOM     13  N   UNL     1       3.928   6.497  18.441  0.00  0.00    +0.000 NA
ATOM     14  N   UNL     1       4.534   5.745  17.488  0.00  0.00    +0.000 N 
ATOM     15  C   UNL     1       4.108   4.521  17.043  0.00  0.00    +0.000 A 
ATOM     16  O   UNL     1       4.632   3.952  16.093  0.00  0.00    +0.000 OA
ATOM     17  C   UNL     1       3.001   3.915  17.798  0.00  0.00    +0.000 A 
ATOM     18  C   UNL     1       2.549   2.636  17.447  0.00  0.00    +0.000 A 
ATOM     19  C   UNL     1       1.542   2.033  18.193  0.00  0.00    +0.000 A 
ATOM     20  C   UNL     1       0.997   2.702  19.288  0.00  0.00    +0.000 A 
ATOM     21  C   UNL     1       1.440   3.987  19.631  0.00  0.00    +0.000 A 
ATOM     22  C   UNL     1       2.438   4.609  18.872  0.00  0.00    +0.000 A 
ATOM     23  H   UNL     1       5.300   6.180  16.980  0.00  0.00    +0.000 HD
ENDBRANCH  10  12
BRANCH   1  27
ATOM     24  C   UNL     1      -4.030  13.001  24.452  0.00  0.00    +0.000 C 
ATOM     25  C   UNL     1      -3.226  12.836  23.211  0.00  0.00    +0.000 A 
ATOM     26  N   UNL     1      -2.381  11.849  23.001  0.00  0.00    +0.000 NA
ATOM     27  C   UNL     1      -1.785  11.990  21.758  0.00  0.00    +0.000 A 
ATOM     28  C   UNL     1      -2.213  13.083  21.032  0.00  0.00    +0.000 A 
ATOM     29  S   UNL     1      -3.373  13.971  21.931  0.00  0.00    +0.000 S 
ENDBRANCH   1  27
TORSDOF 2
ENDMDL
MODEL 7
REMARK VINA RESULT:      -8.1      3.931     10.040
REMARK  Name = 
REMARK  3 active torsions:
REMARK  status: ('A' for Active; 'I' for Inactive)
REMARK    1  A    between atoms: C_1  and  C_2
REMARK    2  A    between atoms: C_4  and  C_5
REMARK    3  A    between atoms: C_14  and  C_16
REMARK                            x       y       z     vdW  Elec       q    Type
REMARK                         _______ _______ _______ _____ _____    ______ ____
ROOT
ATOM      1  C   UNL     1      -0.542  11.234  20.952  0.00  0.00    +0.000 A 
ATOM      2  C   UNL     1      -0.240  11.347  19.578  0.00  0.00    +0.000 A 
ATOM      3  C   UNL     1       0.521  10.373  18.911  0.00  0.00    +0.000 A 
ATOM      4  C   UNL     1       0.964   9.276  19.629  0.00  0.00    +0.000 A 
ATOM      5  C   UNL     1       0.620   9.134  20.976  0.00  0.00    +0.000 A 
ATOM      6  C   UNL     1      -0.120  10.097  21.651  0.00  0.00    +0.000 A 
ATOM      7  C   UNL     1       1.120   7.842  21.530  0.00  0.00    +0.000 C 
ATOM      8  C   UNL     1       2.069   7.383  20.421  0.00  0.00    +0.000 C 
ATOM      9  N   UNL     1       1.797   8.209  19.226  0.00  0.00    +0.000 N 
ATOM     10  C   UNL     1       2.431   8.095  17.994  0.00  0.00    +0.000 C 
ATOM     11  O   UNL     1       2.243   8.824  17.024  0.00  0.00    +0.000 OA
ENDROOT
BRANCH  10  12
ATOM     12  C   UNL     1       3.498   6.992  17.843  0.00  0.00    +0.000 A 
ATOM     13  N   UNL     1       4.735   7.386  17.719  0.00  0.00    +0.000 NA
ATOM     14  N   UNL     1       5.707   6.460  17.521  0.00  0.00    +0.000 N 
ATOM     15  C   UNL     1       5.505   5.126  17.285  0.00  0.00    +0.000 A 
ATOM     16  O   UNL     1       6.422   4.368  16.992  0.00  0.00    +0.000 OA
ATOM     17  C   UNL     1       4.121   4.651  17.434  0.00  0.00    +0.000 A 
ATOM     18  C   UNL     1       3.841   3.288  17.272  0.00  0.00    +0.000 A 
ATOM     19  C   UNL     1       2.545   2.823  17.470  0.00  0.00    +0.000 A 
ATOM     20  C   UNL     1       1.539   3.715  17.836  0.00  0.00    +0.000 A 
ATOM     21  C   UNL     1       1.816   5.081  17.986  0.00  0.00    +0.000 A 
ATOM     22  C   UNL     1       3.113   5.560  17.767  0.00  0.00    +0.000 A 
ATOM     23  H   UNL     1       6.657   6.808  17.424  0.00  0.00    +0.000 HD
ENDBRANCH  10  12
BRANCH   1  27
ATOM     24  C   UNL     1      -3.186  15.394  21.245  0.00  0.00    +0.000 C 
ATOM     25  C   UNL     1      -2.462  14.175  21.695  0.00  0.00    +0.000 A 
ATOM     26  N   UNL     1      -1.856  13.333  20.886  0.00  0.00    +0.000 NA
ATOM     27  C   UNL     1      -1.288  12.299  21.614  0.00  0.00    +0.000 A 
ATOM     28  C   UNL     1      -1.458  12.394  22.981  0.00  0.00    +0.000 A 
ATOM     29  S   UNL     1      -2.368  13.796  23.367  0.00  0.00    +0.000 S 
ENDBRANCH   1  27
TORSDOF 2
ENDMDL
MODEL 8
REMARK VINA RESULT:      -8.1      5.183      9.971
REMARK  Name = 
REMARK  3 active torsions:
REMARK  status: ('A' for Active; 'I' for Inactive)
REMARK    1  A    between atoms: C_1  and  C_2
REMARK    2  A    between atoms: C_4  and  C_5
REMARK    3  A    between atoms: C_14  and  C_16
REMARK                            x       y       z     vdW  Elec       q    Type
REMARK                         _______ _______ _______ _____ _____    ______ ____
ROOT
ATOM      1  C   UNL     1       1.012  11.553  19.177  0.00  0.00    +0.000 A 
ATOM      2  C   UNL     1       1.680  11.051  18.040  0.00  0.00    +0.000 A 
ATOM      3  C   UNL     1       2.103   9.714  17.968  0.00  0.00    +0.000 A 
ATOM      4  C   UNL     1       1.838   8.880  19.040  0.00  0.00    +0.000 A 
ATOM      5  C   UNL     1       1.129   9.360  20.145  0.00  0.00    +0.000 A 
ATOM      6  C   UNL     1       0.717  10.684  20.233  0.00  0.00    +0.000 A 
ATOM      7  C   UNL     1       0.874   8.277  21.138  0.00  0.00    +0.000 C 
ATOM      8  C   UNL     1       1.792   7.168  20.621  0.00  0.00    +0.000 C 
ATOM      9  N   UNL     1       2.216   7.536  19.254  0.00  0.00    +0.000 N 
ATOM     10  C   UNL     1       3.039   6.782  18.425  0.00  0.00    +0.000 C 
ATOM     11  O   UNL     1       3.436   7.121  17.313  0.00  0.00    +0.000 OA
ENDROOT
BRANCH  10  12
ATOM     12  C   UNL     1       3.539   5.426  18.962  0.00  0.00    +0.000 A 
ATOM     13  N   UNL     1       4.778   5.377  19.369  0.00  0.00    +0.000 NA
ATOM     14  N   UNL     1       5.288   4.194  19.794  0.00  0.00    +0.000 N 
ATOM     15  C   UNL     1       4.667   2.976  19.701  0.00  0.00    +0.000 A 
ATOM     16  O   UNL     1       5.235   1.929  19.991  0.00  0.00    +0.000 OA
ATOM     17  C   UNL     1       3.264   3.003  19.260  0.00  0.00    +0.000 A 
ATOM     18  C   UNL     1       2.539   1.805  19.200  0.00  0.00    +0.000 A 
ATOM     19  C   UNL     1       1.196   1.831  18.841  0.00  0.00    +0.000 A 
ATOM     20  C   UNL     1       0.581   3.047  18.552  0.00  0.00    +0.000 A 
ATOM     21  C   UNL     1       1.309   4.245  18.600  0.00  0.00    +0.000 A 
ATOM     22  C   UNL     1       2.667   4.224  18.939  0.00  0.00    +0.000 A 
ATOM     23  H   UNL     1       6.257   4.196  20.098  0.00  0.00    +0.000 HD
ENDBRANCH  10  12
BRANCH   1  27
ATOM     24  C   UNL     1       1.617  16.414  18.542  0.00  0.00    +0.000 C 
ATOM     25  C   UNL     1       0.964  15.135  18.934  0.00  0.00    +0.000 A 
ATOM     26  N   UNL     1       1.508  13.947  18.775  0.00  0.00    +0.000 NA
ATOM     27  C   UNL     1       0.642  12.965  19.228  0.00  0.00    +0.000 A 
ATOM     28  C   UNL     1      -0.546  13.436  19.749  0.00  0.00    +0.000 A 
ATOM     29  S   UNL     1      -0.595  15.148  19.652  0.00  0.00    +0.000 S 
ENDBRANCH   1  27
TORSDOF 2
ENDMDL
MODEL 9
REMARK VINA RESULT:      -8.1      2.547      3.660
REMARK  Name = 
REMARK  3 active torsions:
REMARK  status: ('A' for Active; 'I' for Inactive)
REMARK    1  A    between atoms: C_1  and  C_2
REMARK    2  A    between atoms: C_4  and  C_5
REMARK    3  A    between atoms: C_14  and  C_16
REMARK                            x       y       z     vdW  Elec       q    Type
REMARK                         _______ _______ _______ _____ _____    ______ ____
ROOT
ATOM      1  C   UNL     1       2.399   6.893  18.750  0.00  0.00    +0.000 A 
ATOM      2  C   UNL     1       2.112   6.890  20.131  0.00  0.00    +0.000 A 
ATOM      3  C   UNL     1       1.521   7.997  20.761  0.00  0.00    +0.000 A 
ATOM      4  C   UNL     1       1.206   9.103  19.991  0.00  0.00    +0.000 A 
ATOM      5  C   UNL     1       1.439   9.089  18.613  0.00  0.00    +0.000 A 
ATOM      6  C   UNL     1       2.035   8.005  17.981  0.00  0.00    +0.000 A 
ATOM      7  C   UNL     1       0.943  10.338  17.967  0.00  0.00    +0.000 C 
ATOM      8  C   UNL     1       0.670  11.222  19.184  0.00  0.00    +0.000 C 
ATOM      9  N   UNL     1       0.686  10.357  20.381  0.00  0.00    +0.000 N 
ATOM     10  C   UNL     1       0.458  10.769  21.690  0.00  0.00    +0.000 C 
ATOM     11  O   UNL     1       0.533  10.057  22.687  0.00  0.00    +0.000 OA
ENDROOT
BRANCH  10  12
ATOM     12  C   UNL     1       0.132  12.259  21.918  0.00  0.00    +0.000 A 
ATOM     13  N   UNL     1       1.037  13.121  21.546  0.00  0.00    +0.000 NA
ATOM     14  N   UNL     1       0.829  14.441  21.781  0.00  0.00    +0.000 N 
ATOM     15  C   UNL     1      -0.196  14.971  22.520  0.00  0.00    +0.000 A 
ATOM     16  O   UNL     1      -0.255  16.163  22.796  0.00  0.00    +0.000 OA
ATOM     17  C   UNL     1      -1.240  14.023  22.939  0.00  0.00    +0.000 A 
ATOM     18  C   UNL     1      -2.355  14.496  23.644  0.00  0.00    +0.000 A 
ATOM     19  C   UNL     1      -3.374  13.616  23.991  0.00  0.00    +0.000 A 
ATOM     20  C   UNL     1      -3.282  12.274  23.629  0.00  0.00    +0.000 A 
ATOM     21  C   UNL     1      -2.160  11.797  22.934  0.00  0.00    +0.000 A 
ATOM     22  C   UNL     1      -1.121  12.673  22.600  0.00  0.00    +0.000 A 
ATOM     23  H   UNL     1       1.560  15.080  21.481  0.00  0.00    +0.000 HD
ENDBRANCH  10  12
BRANCH   1  27
ATOM     24  C   UNL     1       3.156   2.111  17.773  0.00  0.00    +0.000 C 
ATOM     25  C   UNL     1       3.369   3.584  17.752  0.00  0.00    +0.000 A 
ATOM     26  N   UNL     1       2.607   4.452  18.381  0.00  0.00    +0.000 NA
ATOM     27  C   UNL     1       3.065   5.740  18.151  0.00  0.00    +0.000 A 
ATOM     28  C   UNL     1       4.194   5.820  17.361  0.00  0.00    +0.000 A 
ATOM     29  S   UNL     1       4.686   4.251  16.874  0.00  0.00    +0.000 S 
ENDBRANCH   1  27
TORSDOF 2
ENDMDL
