MODEL 1
REMARK VINA RESULT:      -9.4      0.000      0.000
REMARK  Name = 
REMARK  4 active torsions:
REMARK  status: ('A' for Active; 'I' for Inactive)
REMARK    1  A    between atoms: C_2  and  C_16
REMARK    2  A    between atoms: N_3  and  C_4
REMARK    3  A    between atoms: C_7  and  C_8
REMARK    4  A    between atoms: N_20  and  C_21
REMARK                            x       y       z     vdW  Elec       q    Type
REMARK                         _______ _______ _______ _____ _____    ______ ____
ROOT
ATOM      1  O   UNL     1       6.982   7.801  17.224  0.00  0.00    +0.000 OA
ATOM      2  C   UNL     1       7.758   7.355  18.065  0.00  0.00    +0.000 C 
ATOM      3  N   UNL     1       8.666   8.095  18.808  0.00  0.00    +0.000 N 
ATOM      4  H   UNL     1       9.382   7.598  19.321  0.00  0.00    +0.000 HD
ENDROOT
BRANCH   3   5
ATOM      5  C   UNL     1       8.811   9.495  18.772  0.00  0.00    +0.000 A 
ATOM      6  C   UNL     1       8.417  10.262  17.677  0.00  0.00    +0.000 A 
ATOM      7  C   UNL     1       8.628  11.639  17.660  0.00  0.00    +0.000 A 
ATOM      8  C   UNL     1       9.238  12.263  18.748  0.00  0.00    +0.000 A 
ATOM      9  C   UNL     1       9.591  11.515  19.873  0.00  0.00    +0.000 A 
ATOM     10  C   UNL     1       9.373  10.132  19.887  0.00  0.00    +0.000 A 
BRANCH   8  11
ATOM     11  C   UNL     1       9.519  13.701  18.705  0.00  0.00    +0.000 A 
ATOM     12  N   UNL     1       9.787  14.454  19.719  0.00  0.00    +0.000 NA
ATOM     13  O   UNL     1       9.998  15.756  19.161  0.00  0.00    +0.000 OA
ATOM     14  C   UNL     1       9.852  15.620  17.804  0.00  0.00    +0.000 A 
ATOM     15  O   UNL     1       9.993  16.508  16.978  0.00  0.00    +0.000 OA
ATOM     16  N   UNL     1       9.537  14.348  17.533  0.00  0.00    +0.000 N 
ATOM     17  H   UNL     1       9.434  13.989  16.600  0.00  0.00    +0.000 HD
ENDBRANCH   8  11
ENDBRANCH   3   5
BRANCH   2  18
ATOM     18  C   UNL     1       7.769   5.858  18.333  0.00  0.00    +0.000 C 
ATOM     19  C   UNL     1       7.414   5.053  17.097  0.00  0.00    +0.000 C 
ATOM     20  C   UNL     1       5.931   4.821  17.243  0.00  0.00    +0.000 C 
ATOM     21  O   UNL     1       5.230   4.414  16.332  0.00  0.00    +0.000 OA
ATOM     22  N   UNL     1       5.568   5.132  18.563  0.00  0.00    +0.000 N 
ATOM     23  C   UNL     1       6.729   5.470  19.358  0.00  0.00    +0.000 C 
BRANCH  22  24
ATOM     24  C   UNL     1       4.276   4.961  19.136  0.00  0.00    +0.000 A 
ATOM     25  C   UNL     1       3.410   6.050  19.301  0.00  0.00    +0.000 A 
ATOM     26  C   UNL     1       2.124   5.871  19.820  0.00  0.00    +0.000 A 
ATOM     27  C   UNL     1       1.700   4.603  20.189  0.00  0.00    +0.000 A 
ATOM     28  F   UNL     1       0.463   4.434  20.669  0.00  0.00    +0.000 F 
ATOM     29  C   UNL     1       2.540   3.510  20.069  0.00  0.00    +0.000 A 
ATOM     30  C   UNL     1       3.818   3.695  19.551  0.00  0.00    +0.000 A 
ATOM     31  F   UNL     1       4.589   2.604  19.431  0.00  0.00    +0.000 F 
ENDBRANCH  22  24
ENDBRANCH   2  18
TORSDOF 4
ENDMDL
MODEL 2
REMARK VINA RESULT:      -9.2      0.998      1.332
REMARK  Name = 
REMARK  4 active torsions:
REMARK  status: ('A' for Active; 'I' for Inactive)
REMARK    1  A    between atoms: C_2  and  C_16
REMARK    2  A    between atoms: N_3  and  C_4
REMARK    3  A    between atoms: C_7  and  C_8
REMARK    4  A    between atoms: N_20  and  C_21
REMARK                            x       y       z     vdW  Elec       q    Type
REMARK                         _______ _______ _______ _____ _____    ______ ____
ROOT
ATOM      1  O   UNL     1       7.089   7.597  17.069  0.00  0.00    +0.000 OA
ATOM      2  C   UNL     1       7.783   7.244  18.019  0.00  0.00    +0.000 C 
ATOM      3  N   UNL     1       8.590   8.070  18.788  0.00  0.00    +0.000 N 
ATOM      4  H   UNL     1       9.260   7.638  19.410  0.00  0.00    +0.000 HD
ENDROOT
BRANCH   3   5
ATOM      5  C   UNL     1       8.705   9.466  18.652  0.00  0.00    +0.000 A 
ATOM      6  C   UNL     1       8.036  10.181  17.660  0.00  0.00    +0.000 A 
ATOM      7  C   UNL     1       8.219  11.555  17.527  0.00  0.00    +0.000 A 
ATOM      8  C   UNL     1       9.080  12.230  18.394  0.00  0.00    +0.000 A 
ATOM      9  C   UNL     1       9.717  11.536  19.424  0.00  0.00    +0.000 A 
ATOM     10  C   UNL     1       9.525  10.155  19.557  0.00  0.00    +0.000 A 
BRANCH   8  11
ATOM     11  C   UNL     1       9.323  13.665  18.215  0.00  0.00    +0.000 A 
ATOM     12  N   UNL     1       8.749  14.620  18.867  0.00  0.00    +0.000 NA
ATOM     13  O   UNL     1       9.332  15.820  18.345  0.00  0.00    +0.000 OA
ATOM     14  C   UNL     1      10.256  15.423  17.412  0.00  0.00    +0.000 A 
ATOM     15  O   UNL     1      10.988  16.162  16.772  0.00  0.00    +0.000 OA
ATOM     16  N   UNL     1      10.231  14.087  17.326  0.00  0.00    +0.000 N 
ATOM     17  H   UNL     1      10.858  13.557  16.749  0.00  0.00    +0.000 HD
ENDBRANCH   8  11
ENDBRANCH   3   5
BRANCH   2  18
ATOM     18  C   UNL     1       7.802   5.775  18.408  0.00  0.00    +0.000 C 
ATOM     19  C   UNL     1       7.540   4.865  17.223  0.00  0.00    +0.000 C 
ATOM     20  C   UNL     1       6.054   4.614  17.295  0.00  0.00    +0.000 C 
ATOM     21  O   UNL     1       5.419   4.120  16.379  0.00  0.00    +0.000 OA
ATOM     22  N   UNL     1       5.603   5.022  18.560  0.00  0.00    +0.000 N 
ATOM     23  C   UNL     1       6.706   5.448  19.396  0.00  0.00    +0.000 C 
BRANCH  22  24
ATOM     24  C   UNL     1       4.280   4.870  19.064  0.00  0.00    +0.000 A 
ATOM     25  C   UNL     1       3.882   3.686  19.700  0.00  0.00    +0.000 A 
ATOM     26  C   UNL     1       2.596   3.558  20.234  0.00  0.00    +0.000 A 
ATOM     27  C   UNL     1       1.696   4.607  20.124  0.00  0.00    +0.000 A 
ATOM     28  F   UNL     1       0.472   4.486  20.652  0.00  0.00    +0.000 F 
ATOM     29  C   UNL     1       2.045   5.778  19.475  0.00  0.00    +0.000 A 
ATOM     30  C   UNL     1       3.327   5.899  18.947  0.00  0.00    +0.000 A 
ATOM     31  F   UNL     1       3.628   7.060  18.347  0.00  0.00    +0.000 F 
ENDBRANCH  22  24
ENDBRANCH   2  18
TORSDOF 4
ENDMDL
MODEL 3
REMARK VINA RESULT:      -8.7      0.691      1.375
REMARK  Name = 
REMARK  4 active torsions:
REMARK  status: ('A' for Active; 'I' for Inactive)
REMARK    1  A    between atoms: C_2  and  C_16
REMARK    2  A    between atoms: N_3  and  C_4
REMARK    3  A    between atoms: C_7  and  C_8
REMARK    4  A    between atoms: N_20  and  C_21
REMARK                            x       y       z     vdW  Elec       q    Type
REMARK                         _______ _______ _______ _____ _____    ______ ____
ROOT
ATOM      1  O   UNL     1       7.011   8.060  17.310  0.00  0.00    +0.000 OA
ATOM      2  C   UNL     1       7.803   7.540  18.092  0.00  0.00    +0.000 C 
ATOM      3  N   UNL     1       8.750   8.207  18.854  0.00  0.00    +0.000 N 
ATOM      4  H   UNL     1       9.471   7.662  19.307  0.00  0.00    +0.000 HD
ENDROOT
BRANCH   3   5
ATOM      5  C   UNL     1       8.924   9.603  18.911  0.00  0.00    +0.000 A 
ATOM      6  C   UNL     1       9.283  10.267  20.083  0.00  0.00    +0.000 A 
ATOM      7  C   UNL     1       9.392  11.656  20.110  0.00  0.00    +0.000 A 
ATOM      8  C   UNL     1       9.141  12.396  18.953  0.00  0.00    +0.000 A 
ATOM      9  C   UNL     1       8.831  11.741  17.760  0.00  0.00    +0.000 A 
ATOM     10  C   UNL     1       8.728  10.345  17.737  0.00  0.00    +0.000 A 
BRANCH   8  11
ATOM     11  C   UNL     1       9.193  13.860  18.995  0.00  0.00    +0.000 A 
ATOM     12  N   UNL     1       9.646  14.632  18.064  0.00  0.00    +0.000 NA
ATOM     13  O   UNL     1       9.464  15.959  18.570  0.00  0.00    +0.000 OA
ATOM     14  C   UNL     1       8.867  15.824  19.798  0.00  0.00    +0.000 A 
ATOM     15  O   UNL     1       8.519  16.738  20.528  0.00  0.00    +0.000 OA
ATOM     16  N   UNL     1       8.720  14.520  20.060  0.00  0.00    +0.000 N 
ATOM     17  H   UNL     1       8.255  14.168  20.878  0.00  0.00    +0.000 HD
ENDBRANCH   8  11
ENDBRANCH   3   5
BRANCH   2  18
ATOM     18  C   UNL     1       7.790   6.028  18.253  0.00  0.00    +0.000 C 
ATOM     19  C   UNL     1       7.377   5.319  16.977  0.00  0.00    +0.000 C 
ATOM     20  C   UNL     1       5.895   5.107  17.158  0.00  0.00    +0.000 C 
ATOM     21  O   UNL     1       5.155   4.779  16.246  0.00  0.00    +0.000 OA
ATOM     22  N   UNL     1       5.583   5.330  18.509  0.00  0.00    +0.000 N 
ATOM     23  C   UNL     1       6.777   5.589  19.285  0.00  0.00    +0.000 C 
BRANCH  22  24
ATOM     24  C   UNL     1       4.307   5.144  19.112  0.00  0.00    +0.000 A 
ATOM     25  C   UNL     1       3.418   6.217  19.264  0.00  0.00    +0.000 A 
ATOM     26  C   UNL     1       2.148   6.022  19.815  0.00  0.00    +0.000 A 
ATOM     27  C   UNL     1       1.763   4.755  20.228  0.00  0.00    +0.000 A 
ATOM     28  F   UNL     1       0.539   4.569  20.738  0.00  0.00    +0.000 F 
ATOM     29  C   UNL     1       2.626   3.680  20.121  0.00  0.00    +0.000 A 
ATOM     30  C   UNL     1       3.889   3.881  19.572  0.00  0.00    +0.000 A 
ATOM     31  F   UNL     1       4.684   2.805  19.467  0.00  0.00    +0.000 F 
ENDBRANCH  22  24
ENDBRANCH   2  18
TORSDOF 4
ENDMDL
MODEL 4
REMARK VINA RESULT:      -8.7      1.048      1.574
REMARK  Name = 
REMARK  4 active torsions:
REMARK  status: ('A' for Active; 'I' for Inactive)
REMARK    1  A    between atoms: C_2  and  C_16
REMARK    2  A    between atoms: N_3  and  C_4
REMARK    3  A    between atoms: C_7  and  C_8
REMARK    4  A    between atoms: N_20  and  C_21
REMARK                            x       y       z     vdW  Elec       q    Type
REMARK                         _______ _______ _______ _____ _____    ______ ____
ROOT
ATOM      1  O   UNL     1       6.947   7.946  17.207  0.00  0.00    +0.000 OA
ATOM      2  C   UNL     1       7.741   7.461  18.009  0.00  0.00    +0.000 C 
ATOM      3  N   UNL     1       8.668   8.165  18.763  0.00  0.00    +0.000 N 
ATOM      4  H   UNL     1       9.395   7.644  19.235  0.00  0.00    +0.000 HD
ENDROOT
BRANCH   3   5
ATOM      5  C   UNL     1       8.817   9.565  18.786  0.00  0.00    +0.000 A 
ATOM      6  C   UNL     1       8.531  10.368  17.684  0.00  0.00    +0.000 A 
ATOM      7  C   UNL     1       8.743  11.744  17.731  0.00  0.00    +0.000 A 
ATOM      8  C   UNL     1       9.246  12.331  18.894  0.00  0.00    +0.000 A 
ATOM      9  C   UNL     1       9.489  11.545  20.022  0.00  0.00    +0.000 A 
ATOM     10  C   UNL     1       9.269  10.164  19.970  0.00  0.00    +0.000 A 
BRANCH   8  11
ATOM     11  C   UNL     1       9.530  13.768  18.924  0.00  0.00    +0.000 A 
ATOM     12  N   UNL     1      10.242  14.422  18.067  0.00  0.00    +0.000 NA
ATOM     13  O   UNL     1      10.204  15.779  18.521  0.00  0.00    +0.000 OA
ATOM     14  C   UNL     1       9.410  15.788  19.640  0.00  0.00    +0.000 A 
ATOM     15  O   UNL     1       9.108  16.774  20.294  0.00  0.00    +0.000 OA
ATOM     16  N   UNL     1       9.012  14.536  19.892  0.00  0.00    +0.000 N 
ATOM     17  H   UNL     1       8.376  14.294  20.630  0.00  0.00    +0.000 HD
ENDBRANCH   8  11
ENDBRANCH   3   5
BRANCH   2  18
ATOM     18  C   UNL     1       7.753   5.954  18.209  0.00  0.00    +0.000 C 
ATOM     19  C   UNL     1       7.398   5.205  16.938  0.00  0.00    +0.000 C 
ATOM     20  C   UNL     1       5.916   4.966  17.075  0.00  0.00    +0.000 C 
ATOM     21  O   UNL     1       5.214   4.599  16.147  0.00  0.00    +0.000 OA
ATOM     22  N   UNL     1       5.554   5.216  18.408  0.00  0.00    +0.000 N 
ATOM     23  C   UNL     1       6.715   5.519  19.216  0.00  0.00    +0.000 C 
BRANCH  22  24
ATOM     24  C   UNL     1       4.262   5.018  18.973  0.00  0.00    +0.000 A 
ATOM     25  C   UNL     1       3.921   3.804  19.586  0.00  0.00    +0.000 A 
ATOM     26  C   UNL     1       2.667   3.630  20.180  0.00  0.00    +0.000 A 
ATOM     27  C   UNL     1       1.743   4.663  20.156  0.00  0.00    +0.000 A 
ATOM     28  F   UNL     1       0.551   4.498  20.742  0.00  0.00    +0.000 F 
ATOM     29  C   UNL     1       2.035   5.863  19.533  0.00  0.00    +0.000 A 
ATOM     30  C   UNL     1       3.284   6.031  18.944  0.00  0.00    +0.000 A 
ATOM     31  F   UNL     1       3.532   7.218  18.372  0.00  0.00    +0.000 F 
ENDBRANCH  22  24
ENDBRANCH   2  18
TORSDOF 4
ENDMDL
MODEL 5
REMARK VINA RESULT:      -8.4      6.826     10.277
REMARK  Name = 
REMARK  4 active torsions:
REMARK  status: ('A' for Active; 'I' for Inactive)
REMARK    1  A    between atoms: C_2  and  C_16
REMARK    2  A    between atoms: N_3  and  C_4
REMARK    3  A    between atoms: C_7  and  C_8
REMARK    4  A    between atoms: N_20  and  C_21
REMARK                            x       y       z     vdW  Elec       q    Type
REMARK                         _______ _______ _______ _____ _____    ______ ____
ROOT
ATOM      1  O   UNL     1       2.376  12.176  18.533  0.00  0.00    +0.000 OA
ATOM      2  C   UNL     1       1.167  12.041  18.700  0.00  0.00    +0.000 C 
ATOM      3  N   UNL     1       0.507  10.843  18.929  0.00  0.00    +0.000 N 
ATOM      4  H   UNL     1      -0.501  10.830  18.854  0.00  0.00    +0.000 HD
ENDROOT
BRANCH   3   5
ATOM      5  C   UNL     1       1.117   9.582  19.075  0.00  0.00    +0.000 A 
ATOM      6  C   UNL     1       1.130   8.890  20.284  0.00  0.00    +0.000 A 
ATOM      7  C   UNL     1       1.792   7.670  20.399  0.00  0.00    +0.000 A 
ATOM      8  C   UNL     1       2.451   7.129  19.294  0.00  0.00    +0.000 A 
ATOM      9  C   UNL     1       2.403   7.786  18.063  0.00  0.00    +0.000 A 
ATOM     10  C   UNL     1       1.732   9.010  17.952  0.00  0.00    +0.000 A 
BRANCH   8  11
ATOM     11  C   UNL     1       3.201   5.877  19.430  0.00  0.00    +0.000 A 
ATOM     12  N   UNL     1       2.776   4.792  19.985  0.00  0.00    +0.000 NA
ATOM     13  O   UNL     1       3.859   3.864  19.851  0.00  0.00    +0.000 OA
ATOM     14  C   UNL     1       4.849   4.526  19.170  0.00  0.00    +0.000 A 
ATOM     15  O   UNL     1       5.922   4.053  18.831  0.00  0.00    +0.000 OA
ATOM     16  N   UNL     1       4.439   5.778  18.929  0.00  0.00    +0.000 N 
ATOM     17  H   UNL     1       4.970   6.441  18.394  0.00  0.00    +0.000 HD
ENDBRANCH   8  11
ENDBRANCH   3   5
BRANCH   2  18
ATOM     18  C   UNL     1       0.275  13.270  18.637  0.00  0.00    +0.000 C 
ATOM     19  C   UNL     1       0.877  14.453  19.372  0.00  0.00    +0.000 C 
ATOM     20  C   UNL     1       0.251  14.369  20.742  0.00  0.00    +0.000 C 
ATOM     21  O   UNL     1       0.659  15.005  21.699  0.00  0.00    +0.000 OA
ATOM     22  N   UNL     1      -0.836  13.483  20.672  0.00  0.00    +0.000 N 
ATOM     23  C   UNL     1      -1.053  13.028  19.316  0.00  0.00    +0.000 C 
BRANCH  22  24
ATOM     24  C   UNL     1      -1.748  13.197  21.727  0.00  0.00    +0.000 A 
ATOM     25  C   UNL     1      -2.809  14.066  22.020  0.00  0.00    +0.000 A 
ATOM     26  C   UNL     1      -3.730  13.758  23.026  0.00  0.00    +0.000 A 
ATOM     27  C   UNL     1      -3.589  12.586  23.755  0.00  0.00    +0.000 A 
ATOM     28  F   UNL     1      -4.482  12.288  24.705  0.00  0.00    +0.000 F 
ATOM     29  C   UNL     1      -2.536  11.722  23.514  0.00  0.00    +0.000 A 
ATOM     30  C   UNL     1      -1.624  12.033  22.511  0.00  0.00    +0.000 A 
ATOM     31  F   UNL     1      -0.633  11.155  22.297  0.00  0.00    +0.000 F 
ENDBRANCH  22  24
ENDBRANCH   2  18
TORSDOF 4
ENDMDL
MODEL 6
REMARK VINA RESULT:      -8.4      6.886     10.612
REMARK  Name = 
REMARK  4 active torsions:
REMARK  status: ('A' for Active; 'I' for Inactive)
REMARK    1  A    between atoms: C_2  and  C_16
REMARK    2  A    between atoms: N_3  and  C_4
REMARK    3  A    between atoms: C_7  and  C_8
REMARK    4  A    between atoms: N_20  and  C_21
REMARK                            x       y       z     vdW  Elec       q    Type
REMARK                         _______ _______ _______ _____ _____    ______ ____
ROOT
ATOM      1  O   UNL     1      -1.022   9.781  19.037  0.00  0.00    +0.000 OA
ATOM      2  C   UNL     1      -0.086  10.571  18.940  0.00  0.00    +0.000 C 
ATOM      3  N   UNL     1       1.261  10.240  18.938  0.00  0.00    +0.000 N 
ATOM      4  H   UNL     1       1.936  10.984  19.050  0.00  0.00    +0.000 HD
ENDROOT
BRANCH   3   5
ATOM      5  C   UNL     1       1.787   8.935  18.983  0.00  0.00    +0.000 A 
ATOM      6  C   UNL     1       1.643   8.106  20.094  0.00  0.00    +0.000 A 
ATOM      7  C   UNL     1       2.226   6.841  20.119  0.00  0.00    +0.000 A 
ATOM      8  C   UNL     1       2.962   6.392  19.021  0.00  0.00    +0.000 A 
ATOM      9  C   UNL     1       3.071   7.191  17.881  0.00  0.00    +0.000 A 
ATOM     10  C   UNL     1       2.479   8.460  17.860  0.00  0.00    +0.000 A 
BRANCH   8  11
ATOM     11  C   UNL     1       3.629   5.088  19.070  0.00  0.00    +0.000 A 
ATOM     12  N   UNL     1       4.857   4.874  19.408  0.00  0.00    +0.000 NA
ATOM     13  O   UNL     1       5.019   3.454  19.314  0.00  0.00    +0.000 OA
ATOM     14  C   UNL     1       3.799   2.952  18.939  0.00  0.00    +0.000 A 
ATOM     15  O   UNL     1       3.528   1.771  18.788  0.00  0.00    +0.000 OA
ATOM     16  N   UNL     1       2.949   3.973  18.773  0.00  0.00    +0.000 N 
ATOM     17  H   UNL     1       1.977   3.855  18.551  0.00  0.00    +0.000 HD
ENDBRANCH   8  11
ENDBRANCH   3   5
BRANCH   2  18
ATOM     18  C   UNL     1      -0.389  12.056  18.828  0.00  0.00    +0.000 C 
ATOM     19  C   UNL     1       0.580  12.901  19.635  0.00  0.00    +0.000 C 
ATOM     20  C   UNL     1      -0.138  13.101  20.946  0.00  0.00    +0.000 C 
ATOM     21  O   UNL     1       0.413  13.529  21.946  0.00  0.00    +0.000 OA
ATOM     22  N   UNL     1      -1.482  12.737  20.768  0.00  0.00    +0.000 N 
ATOM     23  C   UNL     1      -1.751  12.389  19.389  0.00  0.00    +0.000 C 
BRANCH  22  24
ATOM     24  C   UNL     1      -2.516  12.865  21.738  0.00  0.00    +0.000 A 
ATOM     25  C   UNL     1      -3.584  13.752  21.541  0.00  0.00    +0.000 A 
ATOM     26  C   UNL     1      -4.622  13.842  22.474  0.00  0.00    +0.000 A 
ATOM     27  C   UNL     1      -4.594  13.054  23.615  0.00  0.00    +0.000 A 
ATOM     28  F   UNL     1      -5.598  13.130  24.496  0.00  0.00    +0.000 F 
ATOM     29  C   UNL     1      -3.540  12.190  23.856  0.00  0.00    +0.000 A 
ATOM     30  C   UNL     1      -2.511  12.105  22.923  0.00  0.00    +0.000 A 
ATOM     31  F   UNL     1      -1.522  11.238  23.188  0.00  0.00    +0.000 F 
ENDBRANCH  22  24
ENDBRANCH   2  18
TORSDOF 4
ENDMDL
MODEL 7
REMARK VINA RESULT:      -8.4      5.977      7.418
REMARK  Name = 
REMARK  4 active torsions:
REMARK  status: ('A' for Active; 'I' for Inactive)
REMARK    1  A    between atoms: C_2  and  C_16
REMARK    2  A    between atoms: N_3  and  C_4
REMARK    3  A    between atoms: C_7  and  C_8
REMARK    4  A    between atoms: N_20  and  C_21
REMARK                            x       y       z     vdW  Elec       q    Type
REMARK                         _______ _______ _______ _____ _____    ______ ____
ROOT
ATOM      1  O   UNL     1       0.940   4.583  19.737  0.00  0.00    +0.000 OA
ATOM      2  C   UNL     1       2.093   4.699  19.330  0.00  0.00    +0.000 C 
ATOM      3  N   UNL     1       2.729   5.891  19.017  0.00  0.00    +0.000 N 
ATOM      4  H   UNL     1       3.602   5.849  18.509  0.00  0.00    +0.000 HD
ENDROOT
BRANCH   3   5
ATOM      5  C   UNL     1       2.184   7.180  19.174  0.00  0.00    +0.000 A 
ATOM      6  C   UNL     1       1.731   7.659  20.402  0.00  0.00    +0.000 A 
ATOM      7  C   UNL     1       1.149   8.921  20.503  0.00  0.00    +0.000 A 
ATOM      8  C   UNL     1       1.014   9.718  19.366  0.00  0.00    +0.000 A 
ATOM      9  C   UNL     1       1.510   9.272  18.139  0.00  0.00    +0.000 A 
ATOM     10  C   UNL     1       2.099   8.006  18.044  0.00  0.00    +0.000 A 
BRANCH   8  11
ATOM     11  C   UNL     1       0.344  11.019  19.458  0.00  0.00    +0.000 A 
ATOM     12  N   UNL     1      -0.362  11.441  20.454  0.00  0.00    +0.000 NA
ATOM     13  O   UNL     1      -0.778  12.757  20.073  0.00  0.00    +0.000 OA
ATOM     14  C   UNL     1      -0.221  12.995  18.842  0.00  0.00    +0.000 A 
ATOM     15  O   UNL     1      -0.319  14.030  18.201  0.00  0.00    +0.000 OA
ATOM     16  N   UNL     1       0.457  11.906  18.462  0.00  0.00    +0.000 N 
ATOM     17  H   UNL     1       0.999  11.857  17.618  0.00  0.00    +0.000 HD
ENDBRANCH   8  11
ENDBRANCH   3   5
BRANCH   2  18
ATOM     18  C   UNL     1       2.926   3.445  19.117  0.00  0.00    +0.000 C 
ATOM     19  C   UNL     1       4.192   3.450  19.954  0.00  0.00    +0.000 C 
ATOM     20  C   UNL     1       5.232   4.006  19.013  0.00  0.00    +0.000 C 
ATOM     21  O   UNL     1       6.329   4.386  19.386  0.00  0.00    +0.000 OA
ATOM     22  N   UNL     1       4.707   3.969  17.711  0.00  0.00    +0.000 N 
ATOM     23  C   UNL     1       3.407   3.334  17.690  0.00  0.00    +0.000 C 
BRANCH  22  24
ATOM     24  C   UNL     1       5.404   4.319  16.521  0.00  0.00    +0.000 A 
ATOM     25  C   UNL     1       5.723   3.350  15.560  0.00  0.00    +0.000 A 
ATOM     26  C   UNL     1       6.367   3.705  14.370  0.00  0.00    +0.000 A 
ATOM     27  C   UNL     1       6.707   5.029  14.139  0.00  0.00    +0.000 A 
ATOM     28  F   UNL     1       7.308   5.367  12.992  0.00  0.00    +0.000 F 
ATOM     29  C   UNL     1       6.436   6.007  15.079  0.00  0.00    +0.000 A 
ATOM     30  C   UNL     1       5.794   5.647  16.261  0.00  0.00    +0.000 A 
ATOM     31  F   UNL     1       5.530   6.632  17.133  0.00  0.00    +0.000 F 
ENDBRANCH  22  24
ENDBRANCH   2  18
TORSDOF 4
ENDMDL
MODEL 8
REMARK VINA RESULT:      -8.4      6.692     10.207
REMARK  Name = 
REMARK  4 active torsions:
REMARK  status: ('A' for Active; 'I' for Inactive)
REMARK    1  A    between atoms: C_2  and  C_16
REMARK    2  A    between atoms: N_3  and  C_4
REMARK    3  A    between atoms: C_7  and  C_8
REMARK    4  A    between atoms: N_20  and  C_21
REMARK                            x       y       z     vdW  Elec       q    Type
REMARK                         _______ _______ _______ _____ _____    ______ ____
ROOT
ATOM      1  O   UNL     1       2.657  12.343  18.238  0.00  0.00    +0.000 OA
ATOM      2  C   UNL     1       1.474  12.242  18.551  0.00  0.00    +0.000 C 
ATOM      3  N   UNL     1       0.804  11.059  18.825  0.00  0.00    +0.000 N 
ATOM      4  H   UNL     1      -0.205  11.081  18.877  0.00  0.00    +0.000 HD
ENDROOT
BRANCH   3   5
ATOM      5  C   UNL     1       1.381   9.775  18.856  0.00  0.00    +0.000 A 
ATOM      6  C   UNL     1       1.992   9.200  17.743  0.00  0.00    +0.000 A 
ATOM      7  C   UNL     1       2.503   7.906  17.800  0.00  0.00    +0.000 A 
ATOM      8  C   UNL     1       2.406   7.171  18.983  0.00  0.00    +0.000 A 
ATOM      9  C   UNL     1       1.843   7.752  20.120  0.00  0.00    +0.000 A 
ATOM     10  C   UNL     1       1.336   9.056  20.059  0.00  0.00    +0.000 A 
BRANCH   8  11
ATOM     11  C   UNL     1       2.886   5.786  19.026  0.00  0.00    +0.000 A 
ATOM     12  N   UNL     1       2.200   4.734  18.726  0.00  0.00    +0.000 NA
ATOM     13  O   UNL     1       3.108   3.642  18.909  0.00  0.00    +0.000 OA
ATOM     14  C   UNL     1       4.304   4.197  19.291  0.00  0.00    +0.000 A 
ATOM     15  O   UNL     1       5.338   3.585  19.508  0.00  0.00    +0.000 OA
ATOM     16  N   UNL     1       4.151   5.524  19.378  0.00  0.00    +0.000 N 
ATOM     17  H   UNL     1       4.903   6.155  19.588  0.00  0.00    +0.000 HD
ENDBRANCH   8  11
ENDBRANCH   3   5
BRANCH   2  18
ATOM     18  C   UNL     1       0.626  13.501  18.637  0.00  0.00    +0.000 C 
ATOM     19  C   UNL     1       1.269  14.565  19.507  0.00  0.00    +0.000 C 
ATOM     20  C   UNL     1       0.637  14.341  20.858  0.00  0.00    +0.000 C 
ATOM     21  O   UNL     1       1.066  14.844  21.883  0.00  0.00    +0.000 OA
ATOM     22  N   UNL     1      -0.480  13.509  20.686  0.00  0.00    +0.000 N 
ATOM     23  C   UNL     1      -0.711  13.227  19.285  0.00  0.00    +0.000 C 
BRANCH  22  24
ATOM     24  C   UNL     1      -1.404  13.132  21.701  0.00  0.00    +0.000 A 
ATOM     25  C   UNL     1      -2.531  13.918  21.980  0.00  0.00    +0.000 A 
ATOM     26  C   UNL     1      -3.460  13.520  22.946  0.00  0.00    +0.000 A 
ATOM     27  C   UNL     1      -3.263  12.341  23.648  0.00  0.00    +0.000 A 
ATOM     28  F   UNL     1      -4.165  11.955  24.559  0.00  0.00    +0.000 F 
ATOM     29  C   UNL     1      -2.147  11.557  23.421  0.00  0.00    +0.000 A 
ATOM     30  C   UNL     1      -1.226  11.958  22.458  0.00  0.00    +0.000 A 
ATOM     31  F   UNL     1      -0.170  11.155  22.255  0.00  0.00    +0.000 F 
ENDBRANCH  22  24
ENDBRANCH   2  18
TORSDOF 4
ENDMDL
MODEL 9
REMARK VINA RESULT:      -8.3      6.861     10.694
REMARK  Name = 
REMARK  4 active torsions:
REMARK  status: ('A' for Active; 'I' for Inactive)
REMARK    1  A    between atoms: C_2  and  C_16
REMARK    2  A    between atoms: N_3  and  C_4
REMARK    3  A    between atoms: C_7  and  C_8
REMARK    4  A    between atoms: N_20  and  C_21
REMARK                            x       y       z     vdW  Elec       q    Type
REMARK                         _______ _______ _______ _____ _____    ______ ____
ROOT
ATOM      1  O   UNL     1      -0.382   9.794  17.679  0.00  0.00    +0.000 OA
ATOM      2  C   UNL     1       0.300  10.420  18.486  0.00  0.00    +0.000 C 
ATOM      3  N   UNL     1       1.363   9.913  19.219  0.00  0.00    +0.000 N 
ATOM      4  H   UNL     1       1.718  10.463  19.989  0.00  0.00    +0.000 HD
ENDROOT
BRANCH   3   5
ATOM      5  C   UNL     1       1.884   8.609  19.117  0.00  0.00    +0.000 A 
ATOM      6  C   UNL     1       2.551   8.154  17.980  0.00  0.00    +0.000 A 
ATOM      7  C   UNL     1       3.004   6.840  17.899  0.00  0.00    +0.000 A 
ATOM      8  C   UNL     1       2.792   5.963  18.965  0.00  0.00    +0.000 A 
ATOM      9  C   UNL     1       2.172   6.420  20.130  0.00  0.00    +0.000 A 
ATOM     10  C   UNL     1       1.723   7.743  20.208  0.00  0.00    +0.000 A 
BRANCH   8  11
ATOM     11  C   UNL     1       3.212   4.563  18.856  0.00  0.00    +0.000 A 
ATOM     12  N   UNL     1       2.968   3.771  17.866  0.00  0.00    +0.000 NA
ATOM     13  O   UNL     1       3.595   2.535  18.225  0.00  0.00    +0.000 OA
ATOM     14  C   UNL     1       4.197   2.748  19.439  0.00  0.00    +0.000 A 
ATOM     15  O   UNL     1       4.864   1.934  20.058  0.00  0.00    +0.000 OA
ATOM     16  N   UNL     1       3.939   4.001  19.830  0.00  0.00    +0.000 N 
ATOM     17  H   UNL     1       4.319   4.411  20.664  0.00  0.00    +0.000 HD
ENDBRANCH   8  11
ENDBRANCH   3   5
BRANCH   2  18
ATOM     18  C   UNL     1      -0.030  11.880  18.748  0.00  0.00    +0.000 C 
ATOM     19  C   UNL     1      -0.123  12.189  20.231  0.00  0.00    +0.000 C 
ATOM     20  C   UNL     1      -1.596  12.056  20.525  0.00  0.00    +0.000 C 
ATOM     21  O   UNL     1      -2.044  11.997  21.658  0.00  0.00    +0.000 OA
ATOM     22  N   UNL     1      -2.286  12.042  19.303  0.00  0.00    +0.000 N 
ATOM     23  C   UNL     1      -1.384  12.253  18.191  0.00  0.00    +0.000 C 
BRANCH  22  24
ATOM     24  C   UNL     1      -3.700  12.021  19.144  0.00  0.00    +0.000 A 
ATOM     25  C   UNL     1      -4.517  12.928  19.833  0.00  0.00    +0.000 A 
ATOM     26  C   UNL     1      -5.902  12.936  19.638  0.00  0.00    +0.000 A 
ATOM     27  C   UNL     1      -6.480  12.028  18.764  0.00  0.00    +0.000 A 
ATOM     28  F   UNL     1      -7.804  12.051  18.568  0.00  0.00    +0.000 F 
ATOM     29  C   UNL     1      -5.708  11.099  18.091  0.00  0.00    +0.000 A 
ATOM     30  C   UNL     1      -4.330  11.097  18.288  0.00  0.00    +0.000 A 
ATOM     31  F   UNL     1      -3.619  10.193  17.598  0.00  0.00    +0.000 F 
ENDBRANCH  22  24
ENDBRANCH   2  18
TORSDOF 4
ENDMDL
