MODEL 1
REMARK VINA RESULT:      -8.7      0.000      0.000
REMARK  Name = 
REMARK  3 active torsions:
REMARK  status: ('A' for Active; 'I' for Inactive)
REMARK    1  A    between atoms: C_4  and  C_5
REMARK    2  A    between atoms: C_5  and  N_6
REMARK    3  A    between atoms: N_9  and  C_10
REMARK                            x       y       z     vdW  Elec       q    Type
REMARK                         _______ _______ _______ _____ _____    ______ ____
ROOT
ATOM      1  O   UNL     1       1.066   2.801  21.244  0.00  0.00    +0.000 OA
ATOM      2  C   UNL     1       1.740   3.487  20.482  0.00  0.00    +0.000 A 
ATOM      3  C   UNL     1       1.767   4.964  20.613  0.00  0.00    +0.000 A 
ATOM      4  C   UNL     1       2.316   5.751  19.687  0.00  0.00    +0.000 A 
ATOM      5  C   UNL     1       2.858   5.103  18.494  0.00  0.00    +0.000 A 
ATOM      6  C   UNL     1       3.322   5.893  17.450  0.00  0.00    +0.000 A 
ATOM      7  C   UNL     1       4.395   5.425  16.755  0.00  0.00    +0.000 A 
ATOM      8  C   UNL     1       4.797   4.097  16.826  0.00  0.00    +0.000 A 
ATOM      9  C   UNL     1       4.130   3.210  17.666  0.00  0.00    +0.000 A 
ATOM     10  C   UNL     1       3.181   3.752  18.539  0.00  0.00    +0.000 A 
ATOM     11  O   UNL     1       2.584   2.931  19.521  0.00  0.00    +0.000 OA
ATOM     12  C   UNL     1       5.968   3.890  15.918  0.00  0.00    +0.000 C 
ATOM     13  C   UNL     1       6.464   5.330  15.656  0.00  0.00    +0.000 C 
ATOM     14  C   UNL     1       5.369   6.312  16.062  0.00  0.00    +0.000 C 
ENDROOT
BRANCH   4  15
ATOM     15  C   UNL     1       2.644   7.246  19.756  0.00  0.00    +0.000 C 
BRANCH  15  16
ATOM     16  N   UNL     1       1.589   8.152  20.038  0.00  0.00    +0.000 NA
ATOM     17  C   UNL     1       1.069   9.072  19.045  0.00  0.00    +0.000 C 
ATOM     18  C   UNL     1       0.969  10.487  19.653  0.00  0.00    +0.000 C 
ATOM     19  N   UNL     1       0.318  10.429  20.978  0.00  0.00    +0.000 N 
ATOM     20  C   UNL     1       0.861   9.436  21.921  0.00  0.00    +0.000 C 
ATOM     21  C   UNL     1       0.841   8.050  21.269  0.00  0.00    +0.000 C 
BRANCH  19  22
ATOM     22  C   UNL     1      -0.617  11.361  21.378  0.00  0.00    +0.000 A 
ATOM     23  C   UNL     1      -1.142  11.347  22.675  0.00  0.00    +0.000 A 
ATOM     24  C   UNL     1      -2.118  12.262  23.075  0.00  0.00    +0.000 A 
ATOM     25  C   UNL     1      -2.592  13.209  22.186  0.00  0.00    +0.000 A 
ATOM     26  C   UNL     1      -2.087  13.245  20.890  0.00  0.00    +0.000 A 
ATOM     27  C   UNL     1      -1.108  12.329  20.496  0.00  0.00    +0.000 A 
ENDBRANCH  19  22
ENDBRANCH  15  16
ENDBRANCH   4  15
TORSDOF 3
ENDMDL
MODEL 2
REMARK VINA RESULT:      -8.5      0.988      1.040
REMARK  Name = 
REMARK  3 active torsions:
REMARK  status: ('A' for Active; 'I' for Inactive)
REMARK    1  A    between atoms: C_4  and  C_5
REMARK    2  A    between atoms: C_5  and  N_6
REMARK    3  A    between atoms: N_9  and  C_10
REMARK                            x       y       z     vdW  Elec       q    Type
REMARK                         _______ _______ _______ _____ _____    ______ ____
ROOT
ATOM      1  O   UNL     1       0.397   2.420  18.810  0.00  0.00    +0.000 OA
ATOM      2  C   UNL     1       1.304   3.233  18.659  0.00  0.00    +0.000 A 
ATOM      3  C   UNL     1       1.349   4.478  19.464  0.00  0.00    +0.000 A 
ATOM      4  C   UNL     1       2.193   5.473  19.189  0.00  0.00    +0.000 A 
ATOM      5  C   UNL     1       3.054   5.316  18.018  0.00  0.00    +0.000 A 
ATOM      6  C   UNL     1       3.854   6.381  17.622  0.00  0.00    +0.000 A 
ATOM      7  C   UNL     1       5.070   6.072  17.094  0.00  0.00    +0.000 A 
ATOM      8  C   UNL     1       5.374   4.794  16.641  0.00  0.00    +0.000 A 
ATOM      9  C   UNL     1       4.442   3.769  16.766  0.00  0.00    +0.000 A 
ATOM     10  C   UNL     1       3.291   4.043  17.511  0.00  0.00    +0.000 A 
ATOM     11  O   UNL     1       2.382   3.002  17.805  0.00  0.00    +0.000 OA
ATOM     12  C   UNL     1       6.761   4.791  16.079  0.00  0.00    +0.000 C 
ATOM     13  C   UNL     1       7.374   6.088  16.656  0.00  0.00    +0.000 C 
ATOM     14  C   UNL     1       6.248   6.979  17.173  0.00  0.00    +0.000 C 
ENDROOT
BRANCH   4  15
ATOM     15  C   UNL     1       2.545   6.706  20.028  0.00  0.00    +0.000 C 
BRANCH  15  16
ATOM     16  N   UNL     1       1.552   7.707  20.198  0.00  0.00    +0.000 NA
ATOM     17  C   UNL     1       1.275   8.705  19.184  0.00  0.00    +0.000 C 
ATOM     18  C   UNL     1       1.225  10.104  19.834  0.00  0.00    +0.000 C 
ATOM     19  N   UNL     1       0.385  10.072  21.050  0.00  0.00    +0.000 N 
ATOM     20  C   UNL     1       0.686   9.001  22.015  0.00  0.00    +0.000 C 
ATOM     21  C   UNL     1       0.626   7.645  21.305  0.00  0.00    +0.000 C 
BRANCH  19  22
ATOM     22  C   UNL     1      -0.503  11.083  21.355  0.00  0.00    +0.000 A 
ATOM     23  C   UNL     1      -0.808  11.400  22.683  0.00  0.00    +0.000 A 
ATOM     24  C   UNL     1      -1.736  12.394  22.999  0.00  0.00    +0.000 A 
ATOM     25  C   UNL     1      -2.382  13.090  21.994  0.00  0.00    +0.000 A 
ATOM     26  C   UNL     1      -2.097  12.795  20.664  0.00  0.00    +0.000 A 
ATOM     27  C   UNL     1      -1.165  11.801  20.353  0.00  0.00    +0.000 A 
ENDBRANCH  19  22
ENDBRANCH  15  16
ENDBRANCH   4  15
TORSDOF 3
ENDMDL
MODEL 3
REMARK VINA RESULT:      -8.4      1.702      2.281
REMARK  Name = 
REMARK  3 active torsions:
REMARK  status: ('A' for Active; 'I' for Inactive)
REMARK    1  A    between atoms: C_4  and  C_5
REMARK    2  A    between atoms: C_5  and  N_6
REMARK    3  A    between atoms: N_9  and  C_10
REMARK                            x       y       z     vdW  Elec       q    Type
REMARK                         _______ _______ _______ _____ _____    ______ ____
ROOT
ATOM      1  O   UNL     1       1.134   2.984  19.546  0.00  0.00    +0.000 OA
ATOM      2  C   UNL     1       1.977   3.805  19.198  0.00  0.00    +0.000 A 
ATOM      3  C   UNL     1       1.572   5.106  18.613  0.00  0.00    +0.000 A 
ATOM      4  C   UNL     1       2.447   5.931  18.037  0.00  0.00    +0.000 A 
ATOM      5  C   UNL     1       3.835   5.482  17.955  0.00  0.00    +0.000 A 
ATOM      6  C   UNL     1       4.752   6.252  17.250  0.00  0.00    +0.000 A 
ATOM      7  C   UNL     1       6.025   6.285  17.732  0.00  0.00    +0.000 A 
ATOM      8  C   UNL     1       6.492   5.349  18.647  0.00  0.00    +0.000 A 
ATOM      9  C   UNL     1       5.637   4.369  19.141  0.00  0.00    +0.000 A 
ATOM     10  C   UNL     1       4.282   4.484  18.814  0.00  0.00    +0.000 A 
ATOM     11  O   UNL     1       3.342   3.614  19.410  0.00  0.00    +0.000 OA
ATOM     12  C   UNL     1       7.933   5.627  18.940  0.00  0.00    +0.000 C 
ATOM     13  C   UNL     1       8.118   7.076  18.433  0.00  0.00    +0.000 C 
ATOM     14  C   UNL     1       6.947   7.436  17.524  0.00  0.00    +0.000 C 
ENDROOT
BRANCH   4  15
ATOM     15  C   UNL     1       2.264   7.388  17.600  0.00  0.00    +0.000 C 
BRANCH  15  16
ATOM     16  N   UNL     1       1.897   8.343  18.585  0.00  0.00    +0.000 NA
ATOM     17  C   UNL     1       1.969   8.059  20.005  0.00  0.00    +0.000 C 
ATOM     18  C   UNL     1       0.650   8.484  20.685  0.00  0.00    +0.000 C 
ATOM     19  N   UNL     1       0.267   9.843  20.250  0.00  0.00    +0.000 N 
ATOM     20  C   UNL     1       0.265  10.079  18.796  0.00  0.00    +0.000 C 
ATOM     21  C   UNL     1       1.636   9.715  18.219  0.00  0.00    +0.000 C 
BRANCH  19  22
ATOM     22  C   UNL     1      -0.234  10.782  21.129  0.00  0.00    +0.000 A 
ATOM     23  C   UNL     1      -0.119  12.151  20.865  0.00  0.00    +0.000 A 
ATOM     24  C   UNL     1      -0.586  13.107  21.770  0.00  0.00    +0.000 A 
ATOM     25  C   UNL     1      -1.175  12.715  22.957  0.00  0.00    +0.000 A 
ATOM     26  C   UNL     1      -1.302  11.359  23.244  0.00  0.00    +0.000 A 
ATOM     27  C   UNL     1      -0.835  10.406  22.335  0.00  0.00    +0.000 A 
ENDBRANCH  19  22
ENDBRANCH  15  16
ENDBRANCH   4  15
TORSDOF 3
ENDMDL
MODEL 4
REMARK VINA RESULT:      -8.3      1.714      2.043
REMARK  Name = 
REMARK  3 active torsions:
REMARK  status: ('A' for Active; 'I' for Inactive)
REMARK    1  A    between atoms: C_4  and  C_5
REMARK    2  A    between atoms: C_5  and  N_6
REMARK    3  A    between atoms: N_9  and  C_10
REMARK                            x       y       z     vdW  Elec       q    Type
REMARK                         _______ _______ _______ _____ _____    ______ ____
ROOT
ATOM      1  O   UNL     1       1.039   3.564  20.102  0.00  0.00    +0.000 OA
ATOM      2  C   UNL     1       1.898   4.316  19.652  0.00  0.00    +0.000 A 
ATOM      3  C   UNL     1       1.522   5.601  19.013  0.00  0.00    +0.000 A 
ATOM      4  C   UNL     1       2.399   6.342  18.334  0.00  0.00    +0.000 A 
ATOM      5  C   UNL     1       3.755   5.814  18.196  0.00  0.00    +0.000 A 
ATOM      6  C   UNL     1       4.662   6.490  17.390  0.00  0.00    +0.000 A 
ATOM      7  C   UNL     1       5.963   6.483  17.789  0.00  0.00    +0.000 A 
ATOM      8  C   UNL     1       6.440   5.579  18.731  0.00  0.00    +0.000 A 
ATOM      9  C   UNL     1       5.571   4.678  19.336  0.00  0.00    +0.000 A 
ATOM     10  C   UNL     1       4.205   4.846  19.087  0.00  0.00    +0.000 A 
ATOM     11  O   UNL     1       3.262   4.065  19.792  0.00  0.00    +0.000 OA
ATOM     12  C   UNL     1       7.909   5.795  18.917  0.00  0.00    +0.000 C 
ATOM     13  C   UNL     1       8.134   7.199  18.311  0.00  0.00    +0.000 C 
ATOM     14  C   UNL     1       6.926   7.568  17.455  0.00  0.00    +0.000 C 
ENDROOT
BRANCH   4  15
ATOM     15  C   UNL     1       2.261   7.778  17.819  0.00  0.00    +0.000 C 
BRANCH  15  16
ATOM     16  N   UNL     1       1.729   8.758  18.698  0.00  0.00    +0.000 NA
ATOM     17  C   UNL     1       1.836   8.646  20.140  0.00  0.00    +0.000 C 
ATOM     18  C   UNL     1       0.459   8.913  20.783  0.00  0.00    +0.000 C 
ATOM     19  N   UNL     1      -0.146  10.132  20.207  0.00  0.00    +0.000 N 
ATOM     20  C   UNL     1      -0.175  10.205  18.736  0.00  0.00    +0.000 C 
ATOM     21  C   UNL     1       1.243  10.019  18.189  0.00  0.00    +0.000 C 
BRANCH  19  22
ATOM     22  C   UNL     1      -0.805  11.062  20.984  0.00  0.00    +0.000 A 
ATOM     23  C   UNL     1      -0.858  10.933  22.376  0.00  0.00    +0.000 A 
ATOM     24  C   UNL     1      -1.559  11.847  23.165  0.00  0.00    +0.000 A 
ATOM     25  C   UNL     1      -2.223  12.909  22.580  0.00  0.00    +0.000 A 
ATOM     26  C   UNL     1      -2.186  13.062  21.198  0.00  0.00    +0.000 A 
ATOM     27  C   UNL     1      -1.482  12.145  20.412  0.00  0.00    +0.000 A 
ENDBRANCH  19  22
ENDBRANCH  15  16
ENDBRANCH   4  15
TORSDOF 3
ENDMDL
MODEL 5
REMARK VINA RESULT:      -8.1      2.069      3.650
REMARK  Name = 
REMARK  3 active torsions:
REMARK  status: ('A' for Active; 'I' for Inactive)
REMARK    1  A    between atoms: C_4  and  C_5
REMARK    2  A    between atoms: C_5  and  N_6
REMARK    3  A    between atoms: N_9  and  C_10
REMARK                            x       y       z     vdW  Elec       q    Type
REMARK                         _______ _______ _______ _____ _____    ______ ____
ROOT
ATOM      1  O   UNL     1       6.666   7.309  16.615  0.00  0.00    +0.000 OA
ATOM      2  C   UNL     1       5.631   6.797  17.030  0.00  0.00    +0.000 A 
ATOM      3  C   UNL     1       4.409   7.612  17.232  0.00  0.00    +0.000 A 
ATOM      4  C   UNL     1       3.336   7.142  17.870  0.00  0.00    +0.000 A 
ATOM      5  C   UNL     1       3.424   5.789  18.417  0.00  0.00    +0.000 A 
ATOM      6  C   UNL     1       2.379   5.310  19.198  0.00  0.00    +0.000 A 
ATOM      7  C   UNL     1       2.094   3.983  19.094  0.00  0.00    +0.000 A 
ATOM      8  C   UNL     1       2.987   3.078  18.532  0.00  0.00    +0.000 A 
ATOM      9  C   UNL     1       4.194   3.525  18.005  0.00  0.00    +0.000 A 
ATOM     10  C   UNL     1       4.375   4.910  17.913  0.00  0.00    +0.000 A 
ATOM     11  O   UNL     1       5.509   5.425  17.247  0.00  0.00    +0.000 OA
ATOM     12  C   UNL     1       2.404   1.703  18.608  0.00  0.00    +0.000 C 
ATOM     13  C   UNL     1       0.905   1.973  18.874  0.00  0.00    +0.000 C 
ATOM     14  C   UNL     1       0.738   3.418  19.338  0.00  0.00    +0.000 C 
ENDROOT
BRANCH   4  15
ATOM     15  C   UNL     1       1.927   7.736  17.966  0.00  0.00    +0.000 C 
BRANCH  15  16
ATOM     16  N   UNL     1       1.703   8.785  18.896  0.00  0.00    +0.000 NA
ATOM     17  C   UNL     1       1.593   8.546  20.322  0.00  0.00    +0.000 C 
ATOM     18  C   UNL     1       0.352   9.278  20.875  0.00  0.00    +0.000 C 
ATOM     19  N   UNL     1       0.319  10.671  20.382  0.00  0.00    +0.000 N 
ATOM     20  C   UNL     1       0.489  10.846  18.929  0.00  0.00    +0.000 C 
ATOM     21  C   UNL     1       1.787  10.166  18.483  0.00  0.00    +0.000 C 
BRANCH  19  22
ATOM     22  C   UNL     1      -0.029  11.729  21.195  0.00  0.00    +0.000 A 
ATOM     23  C   UNL     1      -0.904  11.554  22.273  0.00  0.00    +0.000 A 
ATOM     24  C   UNL     1      -1.293  12.628  23.076  0.00  0.00    +0.000 A 
ATOM     25  C   UNL     1      -0.818  13.901  22.817  0.00  0.00    +0.000 A 
ATOM     26  C   UNL     1       0.053  14.103  21.751  0.00  0.00    +0.000 A 
ATOM     27  C   UNL     1       0.441  13.024  20.952  0.00  0.00    +0.000 A 
ENDBRANCH  19  22
ENDBRANCH  15  16
ENDBRANCH   4  15
TORSDOF 3
ENDMDL
MODEL 6
REMARK VINA RESULT:      -7.9      1.702      2.003
REMARK  Name = 
REMARK  3 active torsions:
REMARK  status: ('A' for Active; 'I' for Inactive)
REMARK    1  A    between atoms: C_4  and  C_5
REMARK    2  A    between atoms: C_5  and  N_6
REMARK    3  A    between atoms: N_9  and  C_10
REMARK                            x       y       z     vdW  Elec       q    Type
REMARK                         _______ _______ _______ _____ _____    ______ ____
ROOT
ATOM      1  O   UNL     1       0.822   3.515  17.858  0.00  0.00    +0.000 OA
ATOM      2  C   UNL     1       1.784   4.276  17.900  0.00  0.00    +0.000 A 
ATOM      3  C   UNL     1       1.588   5.746  17.931  0.00  0.00    +0.000 A 
ATOM      4  C   UNL     1       2.598   6.602  17.769  0.00  0.00    +0.000 A 
ATOM      5  C   UNL     1       3.919   6.036  17.507  0.00  0.00    +0.000 A 
ATOM      6  C   UNL     1       4.971   6.892  17.206  0.00  0.00    +0.000 A 
ATOM      7  C   UNL     1       6.204   6.533  17.660  0.00  0.00    +0.000 A 
ATOM      8  C   UNL     1       6.486   5.241  18.086  0.00  0.00    +0.000 A 
ATOM      9  C   UNL     1       5.482   4.278  18.107  0.00  0.00    +0.000 A 
ATOM     10  C   UNL     1       4.177   4.715  17.856  0.00  0.00    +0.000 A 
ATOM     11  O   UNL     1       3.096   3.819  18.015  0.00  0.00    +0.000 OA
ATOM     12  C   UNL     1       7.928   5.157  18.476  0.00  0.00    +0.000 C 
ATOM     13  C   UNL     1       8.330   6.641  18.643  0.00  0.00    +0.000 C 
ATOM     14  C   UNL     1       7.277   7.518  17.972  0.00  0.00    +0.000 C 
ENDROOT
BRANCH   4  15
ATOM     15  C   UNL     1       2.631   8.116  18.000  0.00  0.00    +0.000 C 
BRANCH  15  16
ATOM     16  N   UNL     1       1.555   8.710  18.711  0.00  0.00    +0.000 NA
ATOM     17  C   UNL     1       0.532   9.498  18.052  0.00  0.00    +0.000 C 
ATOM     18  C   UNL     1       0.320  10.819  18.823  0.00  0.00    +0.000 C 
ATOM     19  N   UNL     1       0.190  10.550  20.270  0.00  0.00    +0.000 N 
ATOM     20  C   UNL     1       1.235   9.700  20.865  0.00  0.00    +0.000 C 
ATOM     21  C   UNL     1       1.315   8.379  20.096  0.00  0.00    +0.000 C 
BRANCH  19  22
ATOM     22  C   UNL     1      -0.742  11.197  21.055  0.00  0.00    +0.000 A 
ATOM     23  C   UNL     1      -0.812  10.963  22.433  0.00  0.00    +0.000 A 
ATOM     24  C   UNL     1      -1.779  11.583  23.227  0.00  0.00    +0.000 A 
ATOM     25  C   UNL     1      -2.697  12.448  22.662  0.00  0.00    +0.000 A 
ATOM     26  C   UNL     1      -2.649  12.698  21.294  0.00  0.00    +0.000 A 
ATOM     27  C   UNL     1      -1.679  12.078  20.503  0.00  0.00    +0.000 A 
ENDBRANCH  19  22
ENDBRANCH  15  16
ENDBRANCH   4  15
TORSDOF 3
ENDMDL
MODEL 7
REMARK VINA RESULT:      -7.9      2.738      4.543
REMARK  Name = 
REMARK  3 active torsions:
REMARK  status: ('A' for Active; 'I' for Inactive)
REMARK    1  A    between atoms: C_4  and  C_5
REMARK    2  A    between atoms: C_5  and  N_6
REMARK    3  A    between atoms: N_9  and  C_10
REMARK                            x       y       z     vdW  Elec       q    Type
REMARK                         _______ _______ _______ _____ _____    ______ ____
ROOT
ATOM      1  O   UNL     1       7.994   7.273  18.531  0.00  0.00    +0.000 OA
ATOM      2  C   UNL     1       7.350   6.617  17.718  0.00  0.00    +0.000 A 
ATOM      3  C   UNL     1       5.958   6.199  18.015  0.00  0.00    +0.000 A 
ATOM      4  C   UNL     1       5.302   5.319  17.257  0.00  0.00    +0.000 A 
ATOM      5  C   UNL     1       6.028   4.733  16.132  0.00  0.00    +0.000 A 
ATOM      6  C   UNL     1       5.427   3.720  15.395  0.00  0.00    +0.000 A 
ATOM      7  C   UNL     1       5.693   3.690  14.061  0.00  0.00    +0.000 A 
ATOM      8  C   UNL     1       6.762   4.384  13.506  0.00  0.00    +0.000 A 
ATOM      9  C   UNL     1       7.568   5.182  14.311  0.00  0.00    +0.000 A 
ATOM     10  C   UNL     1       7.149   5.385  15.630  0.00  0.00    +0.000 A 
ATOM     11  O   UNL     1       7.837   6.307  16.449  0.00  0.00    +0.000 OA
ATOM     12  C   UNL     1       6.814   4.110  12.036  0.00  0.00    +0.000 C 
ATOM     13  C   UNL     1       5.408   3.540  11.738  0.00  0.00    +0.000 C 
ATOM     14  C   UNL     1       4.752   3.128  13.053  0.00  0.00    +0.000 C 
ENDROOT
BRANCH   4  15
ATOM     15  C   UNL     1       3.815   4.951  17.264  0.00  0.00    +0.000 C 
BRANCH  15  16
ATOM     16  N   UNL     1       2.912   5.823  17.929  0.00  0.00    +0.000 NA
ATOM     17  C   UNL     1       2.431   7.049  17.323  0.00  0.00    +0.000 C 
ATOM     18  C   UNL     1       2.565   8.211  18.331  0.00  0.00    +0.000 C 
ATOM     19  N   UNL     1       2.028   7.809  19.647  0.00  0.00    +0.000 N 
ATOM     20  C   UNL     1       2.519   6.527  20.181  0.00  0.00    +0.000 C 
ATOM     21  C   UNL     1       2.265   5.418  19.155  0.00  0.00    +0.000 C 
BRANCH  19  22
ATOM     22  C   UNL     1       1.259   8.658  20.416  0.00  0.00    +0.000 A 
ATOM     23  C   UNL     1       0.651   9.787  19.857  0.00  0.00    +0.000 A 
ATOM     24  C   UNL     1      -0.095  10.673  20.636  0.00  0.00    +0.000 A 
ATOM     25  C   UNL     1      -0.248  10.450  21.992  0.00  0.00    +0.000 A 
ATOM     26  C   UNL     1       0.346   9.334  22.574  0.00  0.00    +0.000 A 
ATOM     27  C   UNL     1       1.090   8.450  21.789  0.00  0.00    +0.000 A 
ENDBRANCH  19  22
ENDBRANCH  15  16
ENDBRANCH   4  15
TORSDOF 3
ENDMDL
MODEL 8
REMARK VINA RESULT:      -7.8      2.414      3.854
REMARK  Name = 
REMARK  3 active torsions:
REMARK  status: ('A' for Active; 'I' for Inactive)
REMARK    1  A    between atoms: C_4  and  C_5
REMARK    2  A    between atoms: C_5  and  N_6
REMARK    3  A    between atoms: N_9  and  C_10
REMARK                            x       y       z     vdW  Elec       q    Type
REMARK                         _______ _______ _______ _____ _____    ______ ____
ROOT
ATOM      1  O   UNL     1       7.537   5.679  20.246  0.00  0.00    +0.000 OA
ATOM      2  C   UNL     1       6.987   5.396  19.187  0.00  0.00    +0.000 A 
ATOM      3  C   UNL     1       5.516   5.211  19.122  0.00  0.00    +0.000 A 
ATOM      4  C   UNL     1       4.909   4.706  18.047  0.00  0.00    +0.000 A 
ATOM      5  C   UNL     1       5.758   4.288  16.934  0.00  0.00    +0.000 A 
ATOM      6  C   UNL     1       5.179   3.640  15.850  0.00  0.00    +0.000 A 
ATOM      7  C   UNL     1       5.713   3.894  14.624  0.00  0.00    +0.000 A 
ATOM      8  C   UNL     1       6.968   4.472  14.472  0.00  0.00    +0.000 A 
ATOM      9  C   UNL     1       7.698   4.859  15.592  0.00  0.00    +0.000 A 
ATOM     10  C   UNL     1       7.046   4.801  16.828  0.00  0.00    +0.000 A 
ATOM     11  O   UNL     1       7.678   5.325  17.978  0.00  0.00    +0.000 OA
ATOM     12  C   UNL     1       7.286   4.576  13.015  0.00  0.00    +0.000 C 
ATOM     13  C   UNL     1       5.905   4.400  12.342  0.00  0.00    +0.000 C 
ATOM     14  C   UNL     1       4.932   3.812  13.360  0.00  0.00    +0.000 C 
ENDROOT
BRANCH   4  15
ATOM     15  C   UNL     1       3.415   4.660  17.709  0.00  0.00    +0.000 C 
BRANCH  15  16
ATOM     16  N   UNL     1       2.563   5.625  18.307  0.00  0.00    +0.000 NA
ATOM     17  C   UNL     1       2.170   6.843  17.624  0.00  0.00    +0.000 C 
ATOM     18  C   UNL     1       2.367   8.050  18.566  0.00  0.00    +0.000 C 
ATOM     19  N   UNL     1       1.789   7.762  19.894  0.00  0.00    +0.000 N 
ATOM     20  C   UNL     1       2.189   6.484  20.509  0.00  0.00    +0.000 C 
ATOM     21  C   UNL     1       1.877   5.336  19.545  0.00  0.00    +0.000 C 
BRANCH  19  22
ATOM     22  C   UNL     1       1.067   8.702  20.600  0.00  0.00    +0.000 A 
ATOM     23  C   UNL     1       0.947   8.624  21.992  0.00  0.00    +0.000 A 
ATOM     24  C   UNL     1       0.184   9.548  22.708  0.00  0.00    +0.000 A 
ATOM     25  C   UNL     1      -0.477  10.568  22.050  0.00  0.00    +0.000 A 
ATOM     26  C   UNL     1      -0.373  10.669  20.665  0.00  0.00    +0.000 A 
ATOM     27  C   UNL     1       0.393   9.743  19.953  0.00  0.00    +0.000 A 
ENDBRANCH  19  22
ENDBRANCH  15  16
ENDBRANCH   4  15
TORSDOF 3
ENDMDL
MODEL 9
REMARK VINA RESULT:      -7.8      2.236      4.055
REMARK  Name = 
REMARK  3 active torsions:
REMARK  status: ('A' for Active; 'I' for Inactive)
REMARK    1  A    between atoms: C_4  and  C_5
REMARK    2  A    between atoms: C_5  and  N_6
REMARK    3  A    between atoms: N_9  and  C_10
REMARK                            x       y       z     vdW  Elec       q    Type
REMARK                         _______ _______ _______ _____ _____    ______ ____
ROOT
ATOM      1  O   UNL     1       6.274   5.480  14.951  0.00  0.00    +0.000 OA
ATOM      2  C   UNL     1       5.486   5.317  15.877  0.00  0.00    +0.000 A 
ATOM      3  C   UNL     1       5.271   6.384  16.885  0.00  0.00    +0.000 A 
ATOM      4  C   UNL     1       4.587   6.173  18.010  0.00  0.00    +0.000 A 
ATOM      5  C   UNL     1       4.089   4.819  18.246  0.00  0.00    +0.000 A 
ATOM      6  C   UNL     1       3.485   4.525  19.462  0.00  0.00    +0.000 A 
ATOM      7  C   UNL     1       2.456   3.634  19.437  0.00  0.00    +0.000 A 
ATOM      8  C   UNL     1       2.235   2.793  18.354  0.00  0.00    +0.000 A 
ATOM      9  C   UNL     1       3.045   2.880  17.226  0.00  0.00    +0.000 A 
ATOM     10  C   UNL     1       3.948   3.947  17.172  0.00  0.00    +0.000 A 
ATOM     11  O   UNL     1       4.686   4.181  15.991  0.00  0.00    +0.000 OA
ATOM     12  C   UNL     1       1.068   1.906  18.651  0.00  0.00    +0.000 C 
ATOM     13  C   UNL     1       0.376   2.626  19.832  0.00  0.00    +0.000 C 
ATOM     14  C   UNL     1       1.348   3.639  20.431  0.00  0.00    +0.000 C 
ENDROOT
BRANCH   4  15
ATOM     15  C   UNL     1       4.068   7.187  19.035  0.00  0.00    +0.000 C 
BRANCH  15  16
ATOM     16  N   UNL     1       2.795   7.775  18.811  0.00  0.00    +0.000 NA
ATOM     17  C   UNL     1       2.429   8.374  17.542  0.00  0.00    +0.000 C 
ATOM     18  C   UNL     1       1.802   9.762  17.787  0.00  0.00    +0.000 C 
ATOM     19  N   UNL     1       0.784   9.682  18.855  0.00  0.00    +0.000 N 
ATOM     20  C   UNL     1       1.205   9.015  20.099  0.00  0.00    +0.000 C 
ATOM     21  C   UNL     1       1.730   7.614  19.773  0.00  0.00    +0.000 C 
BRANCH  19  22
ATOM     22  C   UNL     1      -0.423  10.345  18.770  0.00  0.00    +0.000 A 
ATOM     23  C   UNL     1      -0.753  11.362  19.672  0.00  0.00    +0.000 A 
ATOM     24  C   UNL     1      -1.989  12.009  19.618  0.00  0.00    +0.000 A 
ATOM     25  C   UNL     1      -2.922  11.652  18.663  0.00  0.00    +0.000 A 
ATOM     26  C   UNL     1      -2.619  10.643  17.753  0.00  0.00    +0.000 A 
ATOM     27  C   UNL     1      -1.380  10.000  17.810  0.00  0.00    +0.000 A 
ENDBRANCH  19  22
ENDBRANCH  15  16
ENDBRANCH   4  15
TORSDOF 3
ENDMDL
