MODEL 1
REMARK VINA RESULT:      -9.2      0.000      0.000
REMARK  Name = 
REMARK  6 active torsions:
REMARK  status: ('A' for Active; 'I' for Inactive)
REMARK    1  A    between atoms: C_1  and  C_2
REMARK    2  A    between atoms: N_5  and  C_6
REMARK    3  A    between atoms: C_6  and  C_7
REMARK    4  A    between atoms: C_15  and  N_16
REMARK    5  A    between atoms: C_17  and  C_19
REMARK    6  A    between atoms: C_19  and  N_20
REMARK                            x       y       z     vdW  Elec       q    Type
REMARK                         _______ _______ _______ _____ _____    ______ ____
ROOT
ATOM      1  N   UNL     1       2.297   5.558  17.897  0.00  0.00    +0.000 N 
ATOM      2  C   UNL     1       2.848   6.632  18.561  0.00  0.00    +0.000 C 
ATOM      3  O   UNL     1       3.699   6.559  19.442  0.00  0.00    +0.000 OA
ATOM      4  H   UNL     1       1.759   5.801  17.064  0.00  0.00    +0.000 HD
ENDROOT
BRANCH   1  10
ATOM      5  C   UNL     1       1.059   3.586  20.030  0.00  0.00    +0.000 C 
ATOM      6  C   UNL     1       2.129   3.357  19.031  0.00  0.00    +0.000 A 
ATOM      7  C   UNL     1       2.790   2.130  18.829  0.00  0.00    +0.000 A 
ATOM      8  N   UNL     1       3.710   2.195  17.876  0.00  0.00    +0.000 NA
ATOM      9  N   UNL     1       3.639   3.478  17.427  0.00  0.00    +0.000 N 
ATOM     10  C   UNL     1       2.668   4.224  18.085  0.00  0.00    +0.000 A 
BRANCH   9  11
ATOM     11  C   UNL     1       4.704   3.876  16.502  0.00  0.00    +0.000 C 
BRANCH  11  12
ATOM     12  C   UNL     1       5.691   4.871  17.069  0.00  0.00    +0.000 A 
ATOM     13  C   UNL     1       6.528   4.603  18.163  0.00  0.00    +0.000 A 
ATOM     14  C   UNL     1       7.390   5.585  18.645  0.00  0.00    +0.000 A 
ATOM     15  F   UNL     1       8.181   5.311  19.691  0.00  0.00    +0.000 F 
ATOM     16  C   UNL     1       7.441   6.847  18.064  0.00  0.00    +0.000 A 
ATOM     17  C   UNL     1       6.619   7.128  16.975  0.00  0.00    +0.000 A 
ATOM     18  C   UNL     1       5.753   6.147  16.494  0.00  0.00    +0.000 A 
ATOM     19  F   UNL     1       4.964   6.447  15.451  0.00  0.00    +0.000 F 
ENDBRANCH  11  12
ENDBRANCH   9  11
ENDBRANCH   1  10
BRANCH   2  20
ATOM     20  C   UNL     1       2.305   8.010  18.214  0.00  0.00    +0.000 C 
BRANCH  20  21
ATOM     21  N   UNL     1       1.537   8.806  19.130  0.00  0.00    +0.000 N 
ATOM     22  N   UNL     1       0.978   8.409  20.323  0.00  0.00    +0.000 NA
ATOM     23  C   UNL     1       0.513   9.518  20.854  0.00  0.00    +0.000 A 
ATOM     24  N   UNL     1       0.763  10.625  20.081  0.00  0.00    +0.000 N 
ATOM     25  C   UNL     1       1.440  10.190  18.980  0.00  0.00    +0.000 A 
ATOM     26  O   UNL     1       1.884  10.871  18.070  0.00  0.00    +0.000 OA
ATOM     27  C   UNL     1       0.425  12.066  20.297  0.00  0.00    +0.000 C 
ATOM     28  C   UNL     1      -0.290  11.947  21.563  0.00  0.00    +0.000 C 
ATOM     29  C   UNL     1      -1.028  12.039  22.815  0.00  0.00    +0.000 C 
ATOM     30  C   UNL     1      -1.018  10.503  23.199  0.00  0.00    +0.000 C 
ATOM     31  C   UNL     1      -0.212   9.421  22.293  0.00  0.00    +0.000 C 
ENDBRANCH  20  21
ENDBRANCH   2  20
TORSDOF 5
ENDMDL
MODEL 2
REMARK VINA RESULT:      -8.9      1.780      3.690
REMARK  Name = 
REMARK  6 active torsions:
REMARK  status: ('A' for Active; 'I' for Inactive)
REMARK    1  A    between atoms: C_1  and  C_2
REMARK    2  A    between atoms: N_5  and  C_6
REMARK    3  A    between atoms: C_6  and  C_7
REMARK    4  A    between atoms: C_15  and  N_16
REMARK    5  A    between atoms: C_17  and  C_19
REMARK    6  A    between atoms: C_19  and  N_20
REMARK                            x       y       z     vdW  Elec       q    Type
REMARK                         _______ _______ _______ _____ _____    ______ ____
ROOT
ATOM      1  N   UNL     1       4.333   6.896  17.384  0.00  0.00    +0.000 N 
ATOM      2  C   UNL     1       3.388   7.208  18.337  0.00  0.00    +0.000 C 
ATOM      3  O   UNL     1       3.299   6.684  19.442  0.00  0.00    +0.000 OA
ATOM      4  H   UNL     1       4.392   7.558  16.608  0.00  0.00    +0.000 HD
ENDROOT
BRANCH   1  10
ATOM      5  C   UNL     1       7.403   7.606  17.588  0.00  0.00    +0.000 C 
ATOM      6  C   UNL     1       6.726   6.288  17.636  0.00  0.00    +0.000 A 
ATOM      7  C   UNL     1       7.379   5.056  17.829  0.00  0.00    +0.000 A 
ATOM      8  N   UNL     1       6.542   4.027  17.826  0.00  0.00    +0.000 NA
ATOM      9  N   UNL     1       5.316   4.592  17.651  0.00  0.00    +0.000 N 
ATOM     10  C   UNL     1       5.371   5.977  17.555  0.00  0.00    +0.000 A 
BRANCH   9  11
ATOM     11  C   UNL     1       4.222   3.647  17.404  0.00  0.00    +0.000 C 
BRANCH  11  12
ATOM     12  C   UNL     1       3.280   3.457  18.572  0.00  0.00    +0.000 A 
ATOM     13  C   UNL     1       3.670   2.929  19.812  0.00  0.00    +0.000 A 
ATOM     14  C   UNL     1       2.733   2.758  20.828  0.00  0.00    +0.000 A 
ATOM     15  F   UNL     1       3.123   2.251  22.005  0.00  0.00    +0.000 F 
ATOM     16  C   UNL     1       1.398   3.098  20.642  0.00  0.00    +0.000 A 
ATOM     17  C   UNL     1       0.995   3.627  19.418  0.00  0.00    +0.000 A 
ATOM     18  C   UNL     1       1.931   3.796  18.398  0.00  0.00    +0.000 A 
ATOM     19  F   UNL     1       1.515   4.297  17.225  0.00  0.00    +0.000 F 
ENDBRANCH  11  12
ENDBRANCH   9  11
ENDBRANCH   1  10
BRANCH   2  20
ATOM     20  C   UNL     1       2.337   8.238  17.954  0.00  0.00    +0.000 C 
BRANCH  20  21
ATOM     21  N   UNL     1       1.580   8.986  18.919  0.00  0.00    +0.000 N 
ATOM     22  N   UNL     1       0.994   8.517  20.073  0.00  0.00    +0.000 NA
ATOM     23  C   UNL     1       0.555   9.596  20.682  0.00  0.00    +0.000 A 
ATOM     24  N   UNL     1       0.848  10.750  19.998  0.00  0.00    +0.000 N 
ATOM     25  C   UNL     1       1.527  10.379  18.874  0.00  0.00    +0.000 A 
ATOM     26  O   UNL     1       2.003  11.113  18.024  0.00  0.00    +0.000 OA
ATOM     27  C   UNL     1       0.550  12.180  20.319  0.00  0.00    +0.000 C 
ATOM     28  C   UNL     1      -0.185  11.987  21.564  0.00  0.00    +0.000 C 
ATOM     29  C   UNL     1      -0.937  12.007  22.811  0.00  0.00    +0.000 C 
ATOM     30  C   UNL     1      -0.977  10.447  23.077  0.00  0.00    +0.000 C 
ATOM     31  C   UNL     1      -0.191   9.412  22.100  0.00  0.00    +0.000 C 
ENDBRANCH  20  21
ENDBRANCH   2  20
TORSDOF 5
ENDMDL
MODEL 3
REMARK VINA RESULT:      -8.7      1.027      1.533
REMARK  Name = 
REMARK  6 active torsions:
REMARK  status: ('A' for Active; 'I' for Inactive)
REMARK    1  A    between atoms: C_1  and  C_2
REMARK    2  A    between atoms: N_5  and  C_6
REMARK    3  A    between atoms: C_6  and  C_7
REMARK    4  A    between atoms: C_15  and  N_16
REMARK    5  A    between atoms: C_17  and  C_19
REMARK    6  A    between atoms: C_19  and  N_20
REMARK                            x       y       z     vdW  Elec       q    Type
REMARK                         _______ _______ _______ _____ _____    ______ ____
ROOT
ATOM      1  N   UNL     1       2.207   5.652  18.160  0.00  0.00    +0.000 N 
ATOM      2  C   UNL     1       2.848   6.765  18.658  0.00  0.00    +0.000 C 
ATOM      3  O   UNL     1       3.848   6.746  19.369  0.00  0.00    +0.000 OA
ATOM      4  H   UNL     1       1.520   5.846  17.429  0.00  0.00    +0.000 HD
ENDROOT
BRANCH   1  10
ATOM      5  C   UNL     1       1.205   3.684  20.416  0.00  0.00    +0.000 C 
ATOM      6  C   UNL     1       2.199   3.468  19.339  0.00  0.00    +0.000 A 
ATOM      7  C   UNL     1       2.880   2.258  19.105  0.00  0.00    +0.000 A 
ATOM      8  N   UNL     1       3.719   2.333  18.080  0.00  0.00    +0.000 NA
ATOM      9  N   UNL     1       3.572   3.605  17.617  0.00  0.00    +0.000 N 
ATOM     10  C   UNL     1       2.633   4.334  18.338  0.00  0.00    +0.000 A 
BRANCH   9  11
ATOM     11  C   UNL     1       4.546   4.017  16.603  0.00  0.00    +0.000 C 
BRANCH  11  12
ATOM     12  C   UNL     1       5.622   4.953  17.107  0.00  0.00    +0.000 A 
ATOM     13  C   UNL     1       6.487   4.648  18.169  0.00  0.00    +0.000 A 
ATOM     14  C   UNL     1       7.433   5.578  18.594  0.00  0.00    +0.000 A 
ATOM     15  F   UNL     1       8.249   5.269  19.610  0.00  0.00    +0.000 F 
ATOM     16  C   UNL     1       7.542   6.823  17.987  0.00  0.00    +0.000 A 
ATOM     17  C   UNL     1       6.692   7.141  16.929  0.00  0.00    +0.000 A 
ATOM     18  C   UNL     1       5.743   6.213  16.505  0.00  0.00    +0.000 A 
ATOM     19  F   UNL     1       4.930   6.547  15.492  0.00  0.00    +0.000 F 
ENDBRANCH  11  12
ENDBRANCH   9  11
ENDBRANCH   1  10
BRANCH   2  20
ATOM     20  C   UNL     1       2.222   8.116  18.353  0.00  0.00    +0.000 C 
BRANCH  20  21
ATOM     21  N   UNL     1       1.561   8.919  19.343  0.00  0.00    +0.000 N 
ATOM     22  N   UNL     1       1.104  10.210  19.210  0.00  0.00    +0.000 NA
ATOM     23  C   UNL     1       0.449  10.446  20.325  0.00  0.00    +0.000 A 
ATOM     24  N   UNL     1       0.432   9.364  21.171  0.00  0.00    +0.000 N 
ATOM     25  C   UNL     1       1.122   8.366  20.547  0.00  0.00    +0.000 A 
ATOM     26  O   UNL     1       1.297   7.228  20.949  0.00  0.00    +0.000 OA
ATOM     27  C   UNL     1      -0.190   9.186  22.520  0.00  0.00    +0.000 C 
ATOM     28  C   UNL     1      -0.746  10.523  22.694  0.00  0.00    +0.000 C 
ATOM     29  C   UNL     1      -1.371  11.788  23.056  0.00  0.00    +0.000 C 
ATOM     30  C   UNL     1      -1.001  12.607  21.752  0.00  0.00    +0.000 C 
ATOM     31  C   UNL     1      -0.242  11.892  20.505  0.00  0.00    +0.000 C 
ENDBRANCH  20  21
ENDBRANCH   2  20
TORSDOF 5
ENDMDL
MODEL 4
REMARK VINA RESULT:      -8.6      2.249      4.351
REMARK  Name = 
REMARK  6 active torsions:
REMARK  status: ('A' for Active; 'I' for Inactive)
REMARK    1  A    between atoms: C_1  and  C_2
REMARK    2  A    between atoms: N_5  and  C_6
REMARK    3  A    between atoms: C_6  and  C_7
REMARK    4  A    between atoms: C_15  and  N_16
REMARK    5  A    between atoms: C_17  and  C_19
REMARK    6  A    between atoms: C_19  and  N_20
REMARK                            x       y       z     vdW  Elec       q    Type
REMARK                         _______ _______ _______ _____ _____    ______ ____
ROOT
ATOM      1  N   UNL     1       3.985   7.087  17.237  0.00  0.00    +0.000 N 
ATOM      2  C   UNL     1       3.022   7.427  18.160  0.00  0.00    +0.000 C 
ATOM      3  O   UNL     1       2.912   6.940  19.281  0.00  0.00    +0.000 OA
ATOM      4  H   UNL     1       4.058   7.723  16.441  0.00  0.00    +0.000 HD
ENDROOT
BRANCH   1  10
ATOM      5  C   UNL     1       7.051   7.810  17.454  0.00  0.00    +0.000 C 
ATOM      6  C   UNL     1       6.375   6.494  17.545  0.00  0.00    +0.000 A 
ATOM      7  C   UNL     1       7.028   5.272  17.797  0.00  0.00    +0.000 A 
ATOM      8  N   UNL     1       6.192   4.242  17.824  0.00  0.00    +0.000 NA
ATOM      9  N   UNL     1       4.967   4.797  17.609  0.00  0.00    +0.000 N 
ATOM     10  C   UNL     1       5.022   6.178  17.458  0.00  0.00    +0.000 A 
BRANCH   9  11
ATOM     11  C   UNL     1       3.879   3.841  17.386  0.00  0.00    +0.000 C 
BRANCH  11  12
ATOM     12  C   UNL     1       3.009   3.584  18.596  0.00  0.00    +0.000 A 
ATOM     13  C   UNL     1       3.480   3.014  19.789  0.00  0.00    +0.000 A 
ATOM     14  C   UNL     1       2.607   2.782  20.849  0.00  0.00    +0.000 A 
ATOM     15  F   UNL     1       3.075   2.236  21.979  0.00  0.00    +0.000 F 
ATOM     16  C   UNL     1       1.257   3.101  20.754  0.00  0.00    +0.000 A 
ATOM     17  C   UNL     1       0.774   3.670  19.578  0.00  0.00    +0.000 A 
ATOM     18  C   UNL     1       1.646   3.901  18.515  0.00  0.00    +0.000 A 
ATOM     19  F   UNL     1       1.154   4.440  17.389  0.00  0.00    +0.000 F 
ENDBRANCH  11  12
ENDBRANCH   9  11
ENDBRANCH   1  10
BRANCH   2  20
ATOM     20  C   UNL     1       1.975   8.441  17.723  0.00  0.00    +0.000 C 
BRANCH  20  21
ATOM     21  N   UNL     1       1.898   9.772  18.256  0.00  0.00    +0.000 N 
ATOM     22  N   UNL     1       2.384  10.931  17.695  0.00  0.00    +0.000 NA
ATOM     23  C   UNL     1       1.940  11.888  18.478  0.00  0.00    +0.000 A 
ATOM     24  N   UNL     1       1.165  11.417  19.510  0.00  0.00    +0.000 N 
ATOM     25  C   UNL     1       1.108  10.061  19.369  0.00  0.00    +0.000 A 
ATOM     26  O   UNL     1       0.482   9.274  20.060  0.00  0.00    +0.000 OA
ATOM     27  C   UNL     1       0.462  12.139  20.615  0.00  0.00    +0.000 C 
ATOM     28  C   UNL     1       0.876  13.501  20.299  0.00  0.00    +0.000 C 
ATOM     29  C   UNL     1       1.174  14.920  20.152  0.00  0.00    +0.000 C 
ATOM     30  C   UNL     1       2.090  14.828  18.863  0.00  0.00    +0.000 C 
ATOM     31  C   UNL     1       2.319  13.410  18.101  0.00  0.00    +0.000 C 
ENDBRANCH  20  21
ENDBRANCH   2  20
TORSDOF 5
ENDMDL
MODEL 5
REMARK VINA RESULT:      -8.4      0.934      1.439
REMARK  Name = 
REMARK  6 active torsions:
REMARK  status: ('A' for Active; 'I' for Inactive)
REMARK    1  A    between atoms: C_1  and  C_2
REMARK    2  A    between atoms: N_5  and  C_6
REMARK    3  A    between atoms: C_6  and  C_7
REMARK    4  A    between atoms: C_15  and  N_16
REMARK    5  A    between atoms: C_17  and  C_19
REMARK    6  A    between atoms: C_19  and  N_20
REMARK                            x       y       z     vdW  Elec       q    Type
REMARK                         _______ _______ _______ _____ _____    ______ ____
ROOT
ATOM      1  N   UNL     1       2.320   5.608  17.849  0.00  0.00    +0.000 N 
ATOM      2  C   UNL     1       2.833   6.594  18.663  0.00  0.00    +0.000 C 
ATOM      3  O   UNL     1       3.558   6.403  19.634  0.00  0.00    +0.000 OA
ATOM      4  H   UNL     1       1.907   5.946  16.978  0.00  0.00    +0.000 HD
ENDROOT
BRANCH   1  10
ATOM      5  C   UNL     1       0.794   3.579  19.725  0.00  0.00    +0.000 C 
ATOM      6  C   UNL     1       1.932   3.350  18.803  0.00  0.00    +0.000 A 
ATOM      7  C   UNL     1       2.537   2.101  18.569  0.00  0.00    +0.000 A 
ATOM      8  N   UNL     1       3.538   2.173  17.701  0.00  0.00    +0.000 NA
ATOM      9  N   UNL     1       3.578   3.485  17.341  0.00  0.00    +0.000 N 
ATOM     10  C   UNL     1       2.598   4.244  17.969  0.00  0.00    +0.000 A 
BRANCH   9  11
ATOM     11  C   UNL     1       4.739   3.877  16.537  0.00  0.00    +0.000 C 
BRANCH  11  12
ATOM     12  C   UNL     1       5.715   4.789  17.245  0.00  0.00    +0.000 A 
ATOM     13  C   UNL     1       6.335   5.892  16.637  0.00  0.00    +0.000 A 
ATOM     14  C   UNL     1       7.247   6.667  17.350  0.00  0.00    +0.000 A 
ATOM     15  F   UNL     1       7.830   7.714  16.753  0.00  0.00    +0.000 F 
ATOM     16  C   UNL     1       7.569   6.368  18.670  0.00  0.00    +0.000 A 
ATOM     17  C   UNL     1       6.961   5.279  19.289  0.00  0.00    +0.000 A 
ATOM     18  C   UNL     1       6.050   4.501  18.575  0.00  0.00    +0.000 A 
ATOM     19  F   UNL     1       5.485   3.451  19.191  0.00  0.00    +0.000 F 
ENDBRANCH  11  12
ENDBRANCH   9  11
ENDBRANCH   1  10
BRANCH   2  20
ATOM     20  C   UNL     1       2.407   8.024  18.367  0.00  0.00    +0.000 C 
BRANCH  20  21
ATOM     21  N   UNL     1       1.587   8.800  19.255  0.00  0.00    +0.000 N 
ATOM     22  N   UNL     1       1.067   8.416  20.469  0.00  0.00    +0.000 NA
ATOM     23  C   UNL     1       0.523   9.510  20.956  0.00  0.00    +0.000 A 
ATOM     24  N   UNL     1       0.685  10.597  20.132  0.00  0.00    +0.000 N 
ATOM     25  C   UNL     1       1.386  10.165  19.045  0.00  0.00    +0.000 A 
ATOM     26  O   UNL     1       1.772  10.836  18.102  0.00  0.00    +0.000 OA
ATOM     27  C   UNL     1       0.241  12.017  20.288  0.00  0.00    +0.000 C 
ATOM     28  C   UNL     1      -0.455  11.901  21.564  0.00  0.00    +0.000 C 
ATOM     29  C   UNL     1      -1.191  11.994  22.819  0.00  0.00    +0.000 C 
ATOM     30  C   UNL     1      -1.063  10.481  23.269  0.00  0.00    +0.000 C 
ATOM     31  C   UNL     1      -0.182   9.423  22.404  0.00  0.00    +0.000 C 
ENDBRANCH  20  21
ENDBRANCH   2  20
TORSDOF 5
ENDMDL
MODEL 6
REMARK VINA RESULT:      -8.3      1.353      2.223
REMARK  Name = 
REMARK  6 active torsions:
REMARK  status: ('A' for Active; 'I' for Inactive)
REMARK    1  A    between atoms: C_1  and  C_2
REMARK    2  A    between atoms: N_5  and  C_6
REMARK    3  A    between atoms: C_6  and  C_7
REMARK    4  A    between atoms: C_15  and  N_16
REMARK    5  A    between atoms: C_17  and  C_19
REMARK    6  A    between atoms: C_19  and  N_20
REMARK                            x       y       z     vdW  Elec       q    Type
REMARK                         _______ _______ _______ _____ _____    ______ ____
ROOT
ATOM      1  N   UNL     1       2.027   5.581  17.990  0.00  0.00    +0.000 N 
ATOM      2  C   UNL     1       2.430   6.844  18.366  0.00  0.00    +0.000 C 
ATOM      3  O   UNL     1       3.319   7.091  19.174  0.00  0.00    +0.000 OA
ATOM      4  H   UNL     1       1.422   5.554  17.167  0.00  0.00    +0.000 HD
ENDROOT
BRANCH   1  10
ATOM      5  C   UNL     1       1.140   3.916  20.521  0.00  0.00    +0.000 C 
ATOM      6  C   UNL     1       2.227   3.660  19.547  0.00  0.00    +0.000 A 
ATOM      7  C   UNL     1       3.078   2.538  19.570  0.00  0.00    +0.000 A 
ATOM      8  N   UNL     1       3.970   2.552  18.588  0.00  0.00    +0.000 NA
ATOM      9  N   UNL     1       3.688   3.689  17.894  0.00  0.00    +0.000 N 
ATOM     10  C   UNL     1       2.612   4.390  18.426  0.00  0.00    +0.000 A 
BRANCH   9  11
ATOM     11  C   UNL     1       4.667   4.053  16.866  0.00  0.00    +0.000 C 
BRANCH  11  12
ATOM     12  C   UNL     1       5.739   5.013  17.331  0.00  0.00    +0.000 A 
ATOM     13  C   UNL     1       6.703   4.697  18.301  0.00  0.00    +0.000 A 
ATOM     14  C   UNL     1       7.640   5.650  18.697  0.00  0.00    +0.000 A 
ATOM     15  F   UNL     1       8.551   5.330  19.625  0.00  0.00    +0.000 F 
ATOM     16  C   UNL     1       7.642   6.928  18.151  0.00  0.00    +0.000 A 
ATOM     17  C   UNL     1       6.693   7.257  17.185  0.00  0.00    +0.000 A 
ATOM     18  C   UNL     1       5.753   6.306  16.790  0.00  0.00    +0.000 A 
ATOM     19  F   UNL     1       4.844   6.651  15.866  0.00  0.00    +0.000 F 
ENDBRANCH  11  12
ENDBRANCH   9  11
ENDBRANCH   1  10
BRANCH   2  20
ATOM     20  C   UNL     1       1.661   8.017  17.779  0.00  0.00    +0.000 C 
BRANCH  20  21
ATOM     21  N   UNL     1       1.730   9.349  18.311  0.00  0.00    +0.000 N 
ATOM     22  N   UNL     1       2.255  10.469  17.707  0.00  0.00    +0.000 NA
ATOM     23  C   UNL     1       1.951  11.455  18.522  0.00  0.00    +0.000 A 
ATOM     24  N   UNL     1       1.229  11.041  19.615  0.00  0.00    +0.000 N 
ATOM     25  C   UNL     1       1.059   9.694  19.484  0.00  0.00    +0.000 A 
ATOM     26  O   UNL     1       0.433   8.955  20.227  0.00  0.00    +0.000 OA
ATOM     27  C   UNL     1       0.677  11.812  20.771  0.00  0.00    +0.000 C 
ATOM     28  C   UNL     1       1.166  13.139  20.417  0.00  0.00    +0.000 C 
ATOM     29  C   UNL     1       1.559  14.532  20.242  0.00  0.00    +0.000 C 
ATOM     30  C   UNL     1       2.355  14.374  18.883  0.00  0.00    +0.000 C 
ATOM     31  C   UNL     1       2.413  12.945  18.109  0.00  0.00    +0.000 C 
ENDBRANCH  20  21
ENDBRANCH   2  20
TORSDOF 5
ENDMDL
MODEL 7
REMARK VINA RESULT:      -8.3      1.282      2.209
REMARK  Name = 
REMARK  6 active torsions:
REMARK  status: ('A' for Active; 'I' for Inactive)
REMARK    1  A    between atoms: C_1  and  C_2
REMARK    2  A    between atoms: N_5  and  C_6
REMARK    3  A    between atoms: C_6  and  C_7
REMARK    4  A    between atoms: C_15  and  N_16
REMARK    5  A    between atoms: C_17  and  C_19
REMARK    6  A    between atoms: C_19  and  N_20
REMARK                            x       y       z     vdW  Elec       q    Type
REMARK                         _______ _______ _______ _____ _____    ______ ____
ROOT
ATOM      1  N   UNL     1       2.443   5.189  18.092  0.00  0.00    +0.000 N 
ATOM      2  C   UNL     1       2.965   6.237  18.818  0.00  0.00    +0.000 C 
ATOM      3  O   UNL     1       3.737   6.126  19.766  0.00  0.00    +0.000 OA
ATOM      4  H   UNL     1       1.984   5.460  17.221  0.00  0.00    +0.000 HD
ENDROOT
BRANCH   1  10
ATOM      5  C   UNL     1       0.393   2.902  18.822  0.00  0.00    +0.000 C 
ATOM      6  C   UNL     1       1.859   2.835  18.617  0.00  0.00    +0.000 A 
ATOM      7  C   UNL     1       2.626   1.656  18.683  0.00  0.00    +0.000 A 
ATOM      8  N   UNL     1       3.917   1.873  18.465  0.00  0.00    +0.000 NA
ATOM      9  N   UNL     1       3.998   3.211  18.230  0.00  0.00    +0.000 N 
ATOM     10  C   UNL     1       2.761   3.842  18.286  0.00  0.00    +0.000 A 
BRANCH   9  11
ATOM     11  C   UNL     1       5.358   3.752  18.161  0.00  0.00    +0.000 C 
BRANCH  11  12
ATOM     12  C   UNL     1       5.818   4.124  16.770  0.00  0.00    +0.000 A 
ATOM     13  C   UNL     1       5.046   3.928  15.614  0.00  0.00    +0.000 A 
ATOM     14  C   UNL     1       5.554   4.271  14.363  0.00  0.00    +0.000 A 
ATOM     15  F   UNL     1       4.803   4.075  13.272  0.00  0.00    +0.000 F 
ATOM     16  C   UNL     1       6.830   4.807  14.226  0.00  0.00    +0.000 A 
ATOM     17  C   UNL     1       7.608   5.011  15.364  0.00  0.00    +0.000 A 
ATOM     18  C   UNL     1       7.101   4.665  16.616  0.00  0.00    +0.000 A 
ATOM     19  F   UNL     1       7.875   4.862  17.695  0.00  0.00    +0.000 F 
ENDBRANCH  11  12
ENDBRANCH   9  11
ENDBRANCH   1  10
BRANCH   2  20
ATOM     20  C   UNL     1       2.490   7.634  18.452  0.00  0.00    +0.000 C 
BRANCH  20  21
ATOM     21  N   UNL     1       1.643   8.425  19.300  0.00  0.00    +0.000 N 
ATOM     22  N   UNL     1       1.277   8.163  20.600  0.00  0.00    +0.000 NA
ATOM     23  C   UNL     1       0.628   9.241  20.983  0.00  0.00    +0.000 A 
ATOM     24  N   UNL     1       0.575  10.206  20.008  0.00  0.00    +0.000 N 
ATOM     25  C   UNL     1       1.241   9.708  18.927  0.00  0.00    +0.000 A 
ATOM     26  O   UNL     1       1.457  10.275  17.868  0.00  0.00    +0.000 OA
ATOM     27  C   UNL     1      -0.046  11.566  20.011  0.00  0.00    +0.000 C 
ATOM     28  C   UNL     1      -0.618  11.555  21.352  0.00  0.00    +0.000 C 
ATOM     29  C   UNL     1      -1.259  11.740  22.648  0.00  0.00    +0.000 C 
ATOM     30  C   UNL     1      -0.890  10.338  23.286  0.00  0.00    +0.000 C 
ATOM     31  C   UNL     1       0.056   9.282  22.492  0.00  0.00    +0.000 C 
ENDBRANCH  20  21
ENDBRANCH   2  20
TORSDOF 5
ENDMDL
MODEL 8
REMARK VINA RESULT:      -8.2      1.914      3.961
REMARK  Name = 
REMARK  6 active torsions:
REMARK  status: ('A' for Active; 'I' for Inactive)
REMARK    1  A    between atoms: C_1  and  C_2
REMARK    2  A    between atoms: N_5  and  C_6
REMARK    3  A    between atoms: C_6  and  C_7
REMARK    4  A    between atoms: C_15  and  N_16
REMARK    5  A    between atoms: C_17  and  C_19
REMARK    6  A    between atoms: C_19  and  N_20
REMARK                            x       y       z     vdW  Elec       q    Type
REMARK                         _______ _______ _______ _____ _____    ______ ____
ROOT
ATOM      1  N   UNL     1       4.181   6.797  17.422  0.00  0.00    +0.000 N 
ATOM      2  C   UNL     1       3.324   7.214  18.416  0.00  0.00    +0.000 C 
ATOM      3  O   UNL     1       3.332   6.807  19.574  0.00  0.00    +0.000 OA
ATOM      4  H   UNL     1       4.172   7.375  16.579  0.00  0.00    +0.000 HD
ENDROOT
BRANCH   1  10
ATOM      5  C   UNL     1       7.255   7.517  17.406  0.00  0.00    +0.000 C 
ATOM      6  C   UNL     1       6.586   6.206  17.580  0.00  0.00    +0.000 A 
ATOM      7  C   UNL     1       7.254   4.990  17.819  0.00  0.00    +0.000 A 
ATOM      8  N   UNL     1       6.421   3.963  17.932  0.00  0.00    +0.000 NA
ATOM      9  N   UNL     1       5.185   4.515  17.788  0.00  0.00    +0.000 N 
ATOM     10  C   UNL     1       5.230   5.891  17.596  0.00  0.00    +0.000 A 
BRANCH   9  11
ATOM     11  C   UNL     1       4.083   3.557  17.667  0.00  0.00    +0.000 C 
BRANCH  11  12
ATOM     12  C   UNL     1       3.227   3.423  18.907  0.00  0.00    +0.000 A 
ATOM     13  C   UNL     1       1.966   4.022  19.052  0.00  0.00    +0.000 A 
ATOM     14  C   UNL     1       1.252   3.875  20.239  0.00  0.00    +0.000 A 
ATOM     15  F   UNL     1       0.051   4.455  20.360  0.00  0.00    +0.000 F 
ATOM     16  C   UNL     1       1.766   3.143  21.303  0.00  0.00    +0.000 A 
ATOM     17  C   UNL     1       3.015   2.540  21.174  0.00  0.00    +0.000 A 
ATOM     18  C   UNL     1       3.732   2.688  19.988  0.00  0.00    +0.000 A 
ATOM     19  F   UNL     1       4.937   2.106  19.892  0.00  0.00    +0.000 F 
ENDBRANCH  11  12
ENDBRANCH   9  11
ENDBRANCH   1  10
BRANCH   2  20
ATOM     20  C   UNL     1       2.242   8.208  18.023  0.00  0.00    +0.000 C 
BRANCH  20  21
ATOM     21  N   UNL     1       1.489   8.971  18.978  0.00  0.00    +0.000 N 
ATOM     22  N   UNL     1       0.924   8.525  20.151  0.00  0.00    +0.000 NA
ATOM     23  C   UNL     1       0.480   9.614  20.738  0.00  0.00    +0.000 A 
ATOM     24  N   UNL     1       0.751  10.754  20.021  0.00  0.00    +0.000 N 
ATOM     25  C   UNL     1       1.420  10.362  18.899  0.00  0.00    +0.000 A 
ATOM     26  O   UNL     1       1.876  11.080  18.024  0.00  0.00    +0.000 OA
ATOM     27  C   UNL     1       0.440  12.188  20.311  0.00  0.00    +0.000 C 
ATOM     28  C   UNL     1      -0.276  12.019  21.569  0.00  0.00    +0.000 C 
ATOM     29  C   UNL     1      -1.013  12.062  22.826  0.00  0.00    +0.000 C 
ATOM     30  C   UNL     1      -1.032  10.508  23.131  0.00  0.00    +0.000 C 
ATOM     31  C   UNL     1      -0.246   9.458  22.170  0.00  0.00    +0.000 C 
ENDBRANCH  20  21
ENDBRANCH   2  20
TORSDOF 5
ENDMDL
MODEL 9
REMARK VINA RESULT:      -8.2      1.309      2.039
REMARK  Name = 
REMARK  6 active torsions:
REMARK  status: ('A' for Active; 'I' for Inactive)
REMARK    1  A    between atoms: C_1  and  C_2
REMARK    2  A    between atoms: N_5  and  C_6
REMARK    3  A    between atoms: C_6  and  C_7
REMARK    4  A    between atoms: C_15  and  N_16
REMARK    5  A    between atoms: C_17  and  C_19
REMARK    6  A    between atoms: C_19  and  N_20
REMARK                            x       y       z     vdW  Elec       q    Type
REMARK                         _______ _______ _______ _____ _____    ______ ____
ROOT
ATOM      1  N   UNL     1       3.031   5.862  19.549  0.00  0.00    +0.000 N 
ATOM      2  C   UNL     1       2.880   6.466  18.320  0.00  0.00    +0.000 C 
ATOM      3  O   UNL     1       2.961   5.896  17.236  0.00  0.00    +0.000 OA
ATOM      4  H   UNL     1       2.736   6.431  20.344  0.00  0.00    +0.000 HD
ENDROOT
BRANCH   1  10
ATOM      5  C   UNL     1       0.870   3.799  20.569  0.00  0.00    +0.000 C 
ATOM      6  C   UNL     1       2.291   3.587  20.208  0.00  0.00    +0.000 A 
ATOM      7  C   UNL     1       2.947   2.341  20.227  0.00  0.00    +0.000 A 
ATOM      8  N   UNL     1       4.220   2.427  19.864  0.00  0.00    +0.000 NA
ATOM      9  N   UNL     1       4.400   3.747  19.579  0.00  0.00    +0.000 N 
ATOM     10  C   UNL     1       3.241   4.495  19.749  0.00  0.00    +0.000 A 
BRANCH   9  11
ATOM     11  C   UNL     1       5.789   4.152  19.346  0.00  0.00    +0.000 C 
BRANCH  11  12
ATOM     12  C   UNL     1       6.084   4.603  17.933  0.00  0.00    +0.000 A 
ATOM     13  C   UNL     1       5.606   3.947  16.788  0.00  0.00    +0.000 A 
ATOM     14  C   UNL     1       5.948   4.408  15.520  0.00  0.00    +0.000 A 
ATOM     15  F   UNL     1       5.483   3.768  14.439  0.00  0.00    +0.000 F 
ATOM     16  C   UNL     1       6.769   5.518  15.354  0.00  0.00    +0.000 A 
ATOM     17  C   UNL     1       7.250   6.182  16.480  0.00  0.00    +0.000 A 
ATOM     18  C   UNL     1       6.911   5.719  17.751  0.00  0.00    +0.000 A 
ATOM     19  F   UNL     1       7.396   6.371  18.819  0.00  0.00    +0.000 F 
ENDBRANCH  11  12
ENDBRANCH   9  11
ENDBRANCH   1  10
BRANCH   2  20
ATOM     20  C   UNL     1       2.660   7.971  18.314  0.00  0.00    +0.000 C 
BRANCH  20  21
ATOM     21  N   UNL     1       1.760   8.638  19.212  0.00  0.00    +0.000 N 
ATOM     22  N   UNL     1       1.457   8.291  20.509  0.00  0.00    +0.000 NA
ATOM     23  C   UNL     1       0.712   9.281  20.949  0.00  0.00    +0.000 A 
ATOM     24  N   UNL     1       0.534  10.271  20.015  0.00  0.00    +0.000 N 
ATOM     25  C   UNL     1       1.219   9.886  18.900  0.00  0.00    +0.000 A 
ATOM     26  O   UNL     1       1.347  10.511  17.860  0.00  0.00    +0.000 OA
ATOM     27  C   UNL     1      -0.222  11.559  20.086  0.00  0.00    +0.000 C 
ATOM     28  C   UNL     1      -0.753  11.439  21.439  0.00  0.00    +0.000 C 
ATOM     29  C   UNL     1      -1.375  11.508  22.755  0.00  0.00    +0.000 C 
ATOM     30  C   UNL     1      -0.848  10.129  23.328  0.00  0.00    +0.000 C 
ATOM     31  C   UNL     1       0.180   9.206  22.471  0.00  0.00    +0.000 C 
ENDBRANCH  20  21
ENDBRANCH   2  20
TORSDOF 5
ENDMDL
