MODEL 1
REMARK VINA RESULT:      -8.2      0.000      0.000
REMARK  Name = 
REMARK  5 active torsions:
REMARK  status: ('A' for Active; 'I' for Inactive)
REMARK    1  A    between atoms: C_1  and  C_2
REMARK    2  A    between atoms: C_9  and  S_10
REMARK    3  A    between atoms: S_10  and  N_13
REMARK    4  A    between atoms: N_13  and  C_14
REMARK    5  A    between atoms: C_14  and  C_15
REMARK                            x       y       z     vdW  Elec       q    Type
REMARK                         _______ _______ _______ _____ _____    ______ ____
ROOT
ATOM      1  S   UNL     1       2.899   6.886  18.250  0.00  0.00    +0.000 S 
ATOM      2  O   UNL     1       2.068   6.285  17.234  0.00  0.00    +0.000 OA
ATOM      3  O   UNL     1       4.058   7.683  17.905  0.00  0.00    +0.000 OA
ENDROOT
BRANCH   1  12
ATOM      4  C   UNL     1      -1.373  12.253  23.038  0.00  0.00    +0.000 C 
ATOM      5  C   UNL     1      -0.593  10.996  22.714  0.00  0.00    +0.000 C 
ATOM      6  O   UNL     1      -0.251  10.238  23.620  0.00  0.00    +0.000 OA
ATOM      7  N   UNL     1      -0.336  10.799  21.368  0.00  0.00    +0.000 N 
ATOM      8  C   UNL     1      -0.632  11.773  20.301  0.00  0.00    +0.000 C 
ATOM      9  C   UNL     1      -0.213  11.141  18.974  0.00  0.00    +0.000 C 
ATOM     10  C   UNL     1       0.541   9.939  19.433  0.00  0.00    +0.000 A 
ATOM     11  C   UNL     1       1.298   9.085  18.647  0.00  0.00    +0.000 A 
ATOM     12  C   UNL     1       1.841   7.941  19.232  0.00  0.00    +0.000 A 
ATOM     13  C   UNL     1       1.680   7.710  20.613  0.00  0.00    +0.000 A 
ATOM     14  C   UNL     1       0.960   8.619  21.412  0.00  0.00    +0.000 A 
ATOM     15  C   UNL     1       0.393   9.731  20.805  0.00  0.00    +0.000 A 
ENDBRANCH   1  12
BRANCH   1  16
ATOM     16  N   UNL     1       3.457   5.711  19.317  0.00  0.00    +0.000 NA
ATOM     17  H   UNL     1       3.043   5.807  20.242  0.00  0.00    +0.000 HD
BRANCH  16  18
ATOM     18  C   UNL     1       3.862   4.346  18.911  0.00  0.00    +0.000 C 
ATOM     19  C   UNL     1       2.630   3.446  18.694  0.00  0.00    +0.000 C 
ATOM     20  C   UNL     1       3.086   2.011  18.971  0.00  0.00    +0.000 C 
ATOM     21  C   UNL     1       4.334   2.133  19.837  0.00  0.00    +0.000 C 
ATOM     22  C   UNL     1       4.439   3.621  20.168  0.00  0.00    +0.000 C 
BRANCH  18  23
ATOM     23  C   UNL     1       4.944   4.310  17.817  0.00  0.00    +0.000 A 
ATOM     24  C   UNL     1       4.590   4.019  16.482  0.00  0.00    +0.000 A 
ATOM     25  C   UNL     1       5.513   4.163  15.442  0.00  0.00    +0.000 A 
ATOM     26  C   UNL     1       6.808   4.568  15.727  0.00  0.00    +0.000 A 
ATOM     27  F   UNL     1       7.680   4.761  14.729  0.00  0.00    +0.000 F 
ATOM     28  C   UNL     1       7.210   4.787  17.035  0.00  0.00    +0.000 A 
ATOM     29  C   UNL     1       6.287   4.644  18.074  0.00  0.00    +0.000 A 
ENDBRANCH  18  23
ENDBRANCH  16  18
ENDBRANCH   1  16
TORSDOF 4
ENDMDL
MODEL 2
REMARK VINA RESULT:      -8.1      2.285      3.215
REMARK  Name = 
REMARK  5 active torsions:
REMARK  status: ('A' for Active; 'I' for Inactive)
REMARK    1  A    between atoms: C_1  and  C_2
REMARK    2  A    between atoms: C_9  and  S_10
REMARK    3  A    between atoms: S_10  and  N_13
REMARK    4  A    between atoms: N_13  and  C_14
REMARK    5  A    between atoms: C_14  and  C_15
REMARK                            x       y       z     vdW  Elec       q    Type
REMARK                         _______ _______ _______ _____ _____    ______ ____
ROOT
ATOM      1  S   UNL     1       3.427   5.407  18.621  0.00  0.00    +0.000 S 
ATOM      2  O   UNL     1       4.537   5.226  19.526  0.00  0.00    +0.000 OA
ATOM      3  O   UNL     1       2.522   4.320  18.308  0.00  0.00    +0.000 OA
ENDROOT
BRANCH   1  12
ATOM      4  C   UNL     1      -0.613  11.844  22.117  0.00  0.00    +0.000 C 
ATOM      5  C   UNL     1      -0.079  10.431  22.010  0.00  0.00    +0.000 C 
ATOM      6  O   UNL     1      -0.159   9.671  22.974  0.00  0.00    +0.000 OA
ATOM      7  N   UNL     1       0.463  10.103  20.778  0.00  0.00    +0.000 N 
ATOM      8  C   UNL     1       0.676  11.054  19.671  0.00  0.00    +0.000 C 
ATOM      9  C   UNL     1       1.267  10.269  18.500  0.00  0.00    +0.000 C 
ATOM     10  C   UNL     1       1.590   8.961  19.142  0.00  0.00    +0.000 A 
ATOM     11  C   UNL     1       2.312   7.919  18.582  0.00  0.00    +0.000 A 
ATOM     12  C   UNL     1       2.417   6.721  19.290  0.00  0.00    +0.000 A 
ATOM     13  C   UNL     1       1.860   6.613  20.581  0.00  0.00    +0.000 A 
ATOM     14  C   UNL     1       1.182   7.701  21.162  0.00  0.00    +0.000 A 
ATOM     15  C   UNL     1       1.053   8.872  20.427  0.00  0.00    +0.000 A 
ENDBRANCH   1  12
BRANCH   1  16
ATOM     16  N   UNL     1       3.973   5.987  17.138  0.00  0.00    +0.000 NA
ATOM     17  H   UNL     1       3.596   6.909  16.926  0.00  0.00    +0.000 HD
BRANCH  16  18
ATOM     18  C   UNL     1       5.293   5.661  16.555  0.00  0.00    +0.000 C 
ATOM     19  C   UNL     1       5.235   5.674  15.015  0.00  0.00    +0.000 C 
ATOM     20  C   UNL     1       6.320   4.709  14.531  0.00  0.00    +0.000 C 
ATOM     21  C   UNL     1       6.600   3.777  15.704  0.00  0.00    +0.000 C 
ATOM     22  C   UNL     1       5.540   4.131  16.747  0.00  0.00    +0.000 C 
BRANCH  18  23
ATOM     23  C   UNL     1       6.471   6.407  17.207  0.00  0.00    +0.000 A 
ATOM     24  C   UNL     1       6.741   7.747  16.855  0.00  0.00    +0.000 A 
ATOM     25  C   UNL     1       7.679   8.504  17.563  0.00  0.00    +0.000 A 
ATOM     26  C   UNL     1       8.381   7.923  18.608  0.00  0.00    +0.000 A 
ATOM     27  F   UNL     1       9.240   8.659  19.324  0.00  0.00    +0.000 F 
ATOM     28  C   UNL     1       8.196   6.588  18.929  0.00  0.00    +0.000 A 
ATOM     29  C   UNL     1       7.258   5.831  18.223  0.00  0.00    +0.000 A 
ENDBRANCH  18  23
ENDBRANCH  16  18
ENDBRANCH   1  16
TORSDOF 4
ENDMDL
MODEL 3
REMARK VINA RESULT:      -8.1      1.292      1.901
REMARK  Name = 
REMARK  5 active torsions:
REMARK  status: ('A' for Active; 'I' for Inactive)
REMARK    1  A    between atoms: C_1  and  C_2
REMARK    2  A    between atoms: C_9  and  S_10
REMARK    3  A    between atoms: S_10  and  N_13
REMARK    4  A    between atoms: N_13  and  C_14
REMARK    5  A    between atoms: C_14  and  C_15
REMARK                            x       y       z     vdW  Elec       q    Type
REMARK                         _______ _______ _______ _____ _____    ______ ____
ROOT
ATOM      1  S   UNL     1       2.401   7.393  18.428  0.00  0.00    +0.000 S 
ATOM      2  O   UNL     1       1.540   7.004  17.336  0.00  0.00    +0.000 OA
ATOM      3  O   UNL     1       3.724   7.932  18.191  0.00  0.00    +0.000 OA
ENDROOT
BRANCH   1  12
ATOM      4  C   UNL     1      -2.415  12.758  22.669  0.00  0.00    +0.000 C 
ATOM      5  C   UNL     1      -1.666  12.209  21.474  0.00  0.00    +0.000 C 
ATOM      6  O   UNL     1      -1.808  12.732  20.370  0.00  0.00    +0.000 OA
ATOM      7  N   UNL     1      -0.842  11.130  21.746  0.00  0.00    +0.000 N 
ATOM      8  C   UNL     1      -0.776  10.426  23.040  0.00  0.00    +0.000 C 
ATOM      9  C   UNL     1       0.275   9.323  22.908  0.00  0.00    +0.000 C 
ATOM     10  C   UNL     1       0.537   9.326  21.439  0.00  0.00    +0.000 A 
ATOM     11  C   UNL     1       1.286   8.401  20.729  0.00  0.00    +0.000 A 
ATOM     12  C   UNL     1       1.520   8.629  19.372  0.00  0.00    +0.000 A 
ATOM     13  C   UNL     1       0.935   9.740  18.732  0.00  0.00    +0.000 A 
ATOM     14  C   UNL     1       0.126  10.638  19.454  0.00  0.00    +0.000 A 
ATOM     15  C   UNL     1      -0.064  10.418  20.811  0.00  0.00    +0.000 A 
ENDBRANCH   1  12
BRANCH   1  16
ATOM     16  N   UNL     1       2.617   6.104  19.488  0.00  0.00    +0.000 NA
ATOM     17  H   UNL     1       2.113   6.239  20.362  0.00  0.00    +0.000 HD
BRANCH  16  18
ATOM     18  C   UNL     1       2.834   4.704  19.058  0.00  0.00    +0.000 C 
ATOM     19  C   UNL     1       1.541   4.096  18.482  0.00  0.00    +0.000 C 
ATOM     20  C   UNL     1       1.627   2.586  18.719  0.00  0.00    +0.000 C 
ATOM     21  C   UNL     1       2.627   2.402  19.855  0.00  0.00    +0.000 C 
ATOM     22  C   UNL     1       2.936   3.818  20.340  0.00  0.00    +0.000 C 
BRANCH  18  23
ATOM     23  C   UNL     1       4.122   4.489  18.242  0.00  0.00    +0.000 A 
ATOM     24  C   UNL     1       4.044   4.201  16.863  0.00  0.00    +0.000 A 
ATOM     25  C   UNL     1       5.190   4.187  16.062  0.00  0.00    +0.000 A 
ATOM     26  C   UNL     1       6.430   4.428  16.636  0.00  0.00    +0.000 A 
ATOM     27  F   UNL     1       7.524   4.471  15.865  0.00  0.00    +0.000 F 
ATOM     28  C   UNL     1       6.549   4.638  18.001  0.00  0.00    +0.000 A 
ATOM     29  C   UNL     1       5.404   4.653  18.801  0.00  0.00    +0.000 A 
ENDBRANCH  18  23
ENDBRANCH  16  18
ENDBRANCH   1  16
TORSDOF 4
ENDMDL
MODEL 4
REMARK VINA RESULT:      -8.0      2.510      3.840
REMARK  Name = 
REMARK  5 active torsions:
REMARK  status: ('A' for Active; 'I' for Inactive)
REMARK    1  A    between atoms: C_1  and  C_2
REMARK    2  A    between atoms: C_9  and  S_10
REMARK    3  A    between atoms: S_10  and  N_13
REMARK    4  A    between atoms: N_13  and  C_14
REMARK    5  A    between atoms: C_14  and  C_15
REMARK                            x       y       z     vdW  Elec       q    Type
REMARK                         _______ _______ _______ _____ _____    ______ ____
ROOT
ATOM      1  S   UNL     1       3.651   3.595  18.377  0.00  0.00    +0.000 S 
ATOM      2  O   UNL     1       3.457   2.618  19.422  0.00  0.00    +0.000 OA
ATOM      3  O   UNL     1       3.197   3.352  17.023  0.00  0.00    +0.000 OA
ENDROOT
BRANCH   1  12
ATOM      4  C   UNL     1       0.627  10.880  21.161  0.00  0.00    +0.000 C 
ATOM      5  C   UNL     1       0.991   9.411  21.223  0.00  0.00    +0.000 C 
ATOM      6  O   UNL     1       0.897   8.802  22.287  0.00  0.00    +0.000 OA
ATOM      7  N   UNL     1       1.399   8.860  20.020  0.00  0.00    +0.000 N 
ATOM      8  C   UNL     1       1.636   9.622  18.780  0.00  0.00    +0.000 C 
ATOM      9  C   UNL     1       2.048   8.623  17.699  0.00  0.00    +0.000 C 
ATOM     10  C   UNL     1       2.268   7.383  18.499  0.00  0.00    +0.000 A 
ATOM     11  C   UNL     1       2.825   6.196  18.050  0.00  0.00    +0.000 A 
ATOM     12  C   UNL     1       2.847   5.099  18.912  0.00  0.00    +0.000 A 
ATOM     13  C   UNL     1       2.378   5.231  20.235  0.00  0.00    +0.000 A 
ATOM     14  C   UNL     1       1.871   6.461  20.695  0.00  0.00    +0.000 A 
ATOM     15  C   UNL     1       1.821   7.531  19.812  0.00  0.00    +0.000 A 
ENDBRANCH   1  12
BRANCH   1  16
ATOM     16  N   UNL     1       5.281   3.992  18.246  0.00  0.00    +0.000 NA
ATOM     17  H   UNL     1       5.882   3.271  18.640  0.00  0.00    +0.000 HD
BRANCH  16  18
ATOM     18  C   UNL     1       5.851   4.806  17.149  0.00  0.00    +0.000 C 
ATOM     19  C   UNL     1       4.840   4.968  15.998  0.00  0.00    +0.000 C 
ATOM     20  C   UNL     1       5.662   5.165  14.722  0.00  0.00    +0.000 C 
ATOM     21  C   UNL     1       7.041   4.591  15.024  0.00  0.00    +0.000 C 
ATOM     22  C   UNL     1       6.899   3.928  16.394  0.00  0.00    +0.000 C 
BRANCH  18  23
ATOM     23  C   UNL     1       6.570   6.083  17.621  0.00  0.00    +0.000 A 
ATOM     24  C   UNL     1       7.625   5.997  18.554  0.00  0.00    +0.000 A 
ATOM     25  C   UNL     1       8.415   7.110  18.856  0.00  0.00    +0.000 A 
ATOM     26  C   UNL     1       8.139   8.329  18.255  0.00  0.00    +0.000 A 
ATOM     27  F   UNL     1       8.926   9.385  18.498  0.00  0.00    +0.000 F 
ATOM     28  C   UNL     1       7.062   8.466  17.393  0.00  0.00    +0.000 A 
ATOM     29  C   UNL     1       6.274   7.353  17.090  0.00  0.00    +0.000 A 
ENDBRANCH  18  23
ENDBRANCH  16  18
ENDBRANCH   1  16
TORSDOF 4
ENDMDL
MODEL 5
REMARK VINA RESULT:      -7.9      2.383      3.486
REMARK  Name = 
REMARK  5 active torsions:
REMARK  status: ('A' for Active; 'I' for Inactive)
REMARK    1  A    between atoms: C_1  and  C_2
REMARK    2  A    between atoms: C_9  and  S_10
REMARK    3  A    between atoms: S_10  and  N_13
REMARK    4  A    between atoms: N_13  and  C_14
REMARK    5  A    between atoms: C_14  and  C_15
REMARK                            x       y       z     vdW  Elec       q    Type
REMARK                         _______ _______ _______ _____ _____    ______ ____
ROOT
ATOM      1  S   UNL     1       3.284   5.832  18.690  0.00  0.00    +0.000 S 
ATOM      2  O   UNL     1       4.412   5.704  19.583  0.00  0.00    +0.000 OA
ATOM      3  O   UNL     1       2.278   4.794  18.592  0.00  0.00    +0.000 OA
ENDROOT
BRANCH   1  12
ATOM      4  C   UNL     1      -1.463  12.440  20.631  0.00  0.00    +0.000 C 
ATOM      5  C   UNL     1      -0.592  11.563  19.756  0.00  0.00    +0.000 C 
ATOM      6  O   UNL     1      -0.466  11.824  18.561  0.00  0.00    +0.000 OA
ATOM      7  N   UNL     1       0.023  10.510  20.413  0.00  0.00    +0.000 N 
ATOM      8  C   UNL     1      -0.235  10.124  21.813  0.00  0.00    +0.000 C 
ATOM      9  C   UNL     1       0.669   8.934  22.133  0.00  0.00    +0.000 C 
ATOM     10  C   UNL     1       1.185   8.570  20.781  0.00  0.00    +0.000 A 
ATOM     11  C   UNL     1       1.921   7.443  20.451  0.00  0.00    +0.000 A 
ATOM     12  C   UNL     1       2.419   7.326  19.153  0.00  0.00    +0.000 A 
ATOM     13  C   UNL     1       2.108   8.304  18.186  0.00  0.00    +0.000 A 
ATOM     14  C   UNL     1       1.308   9.413  18.521  0.00  0.00    +0.000 A 
ATOM     15  C   UNL     1       0.854   9.533  19.828  0.00  0.00    +0.000 A 
ENDBRANCH   1  12
BRANCH   1  16
ATOM     16  N   UNL     1       3.815   6.102  17.117  0.00  0.00    +0.000 NA
ATOM     17  H   UNL     1       3.451   6.973  16.735  0.00  0.00    +0.000 HD
BRANCH  16  18
ATOM     18  C   UNL     1       5.119   5.642  16.589  0.00  0.00    +0.000 C 
ATOM     19  C   UNL     1       5.095   5.561  15.051  0.00  0.00    +0.000 C 
ATOM     20  C   UNL     1       6.114   4.488  14.656  0.00  0.00    +0.000 C 
ATOM     21  C   UNL     1       6.296   3.615  15.893  0.00  0.00    +0.000 C 
ATOM     22  C   UNL     1       5.245   4.114  16.884  0.00  0.00    +0.000 C 
BRANCH  18  23
ATOM     23  C   UNL     1       6.336   6.339  17.225  0.00  0.00    +0.000 A 
ATOM     24  C   UNL     1       6.636   7.677  16.894  0.00  0.00    +0.000 A 
ATOM     25  C   UNL     1       7.615   8.391  17.591  0.00  0.00    +0.000 A 
ATOM     26  C   UNL     1       8.328   7.767  18.604  0.00  0.00    +0.000 A 
ATOM     27  F   UNL     1       9.228   8.462  19.312  0.00  0.00    +0.000 F 
ATOM     28  C   UNL     1       8.111   6.431  18.902  0.00  0.00    +0.000 A 
ATOM     29  C   UNL     1       7.132   5.717  18.206  0.00  0.00    +0.000 A 
ENDBRANCH  18  23
ENDBRANCH  16  18
ENDBRANCH   1  16
TORSDOF 4
ENDMDL
MODEL 6
REMARK VINA RESULT:      -7.9      3.967      8.202
REMARK  Name = 
REMARK  5 active torsions:
REMARK  status: ('A' for Active; 'I' for Inactive)
REMARK    1  A    between atoms: C_1  and  C_2
REMARK    2  A    between atoms: C_9  and  S_10
REMARK    3  A    between atoms: S_10  and  N_13
REMARK    4  A    between atoms: N_13  and  C_14
REMARK    5  A    between atoms: C_14  and  C_15
REMARK                            x       y       z     vdW  Elec       q    Type
REMARK                         _______ _______ _______ _____ _____    ______ ____
ROOT
ATOM      1  S   UNL     1       5.601   4.723  19.405  0.00  0.00    +0.000 S 
ATOM      2  O   UNL     1       4.886   3.479  19.571  0.00  0.00    +0.000 OA
ATOM      3  O   UNL     1       6.846   4.976  20.101  0.00  0.00    +0.000 OA
ENDROOT
BRANCH   1  12
ATOM      4  C   UNL     1       7.833   4.917  11.346  0.00  0.00    +0.000 C 
ATOM      5  C   UNL     1       7.862   5.315  12.807  0.00  0.00    +0.000 C 
ATOM      6  O   UNL     1       8.736   6.078  13.215  0.00  0.00    +0.000 OA
ATOM      7  N   UNL     1       6.850   4.774  13.581  0.00  0.00    +0.000 N 
ATOM      8  C   UNL     1       5.886   3.759  13.117  0.00  0.00    +0.000 C 
ATOM      9  C   UNL     1       4.936   3.465  14.279  0.00  0.00    +0.000 C 
ATOM     10  C   UNL     1       5.615   4.160  15.411  0.00  0.00    +0.000 A 
ATOM     11  C   UNL     1       5.280   4.078  16.753  0.00  0.00    +0.000 A 
ATOM     12  C   UNL     1       5.957   4.892  17.662  0.00  0.00    +0.000 A 
ATOM     13  C   UNL     1       7.010   5.719  17.222  0.00  0.00    +0.000 A 
ATOM     14  C   UNL     1       7.380   5.745  15.863  0.00  0.00    +0.000 A 
ATOM     15  C   UNL     1       6.669   4.959  14.967  0.00  0.00    +0.000 A 
ENDBRANCH   1  12
BRANCH   1  16
ATOM     16  N   UNL     1       4.599   6.024  19.776  0.00  0.00    +0.000 NA
ATOM     17  H   UNL     1       5.122   6.816  20.144  0.00  0.00    +0.000 HD
BRANCH  16  18
ATOM     18  C   UNL     1       3.344   6.336  19.056  0.00  0.00    +0.000 C 
ATOM     19  C   UNL     1       3.630   7.120  17.761  0.00  0.00    +0.000 C 
ATOM     20  C   UNL     1       2.384   7.964  17.480  0.00  0.00    +0.000 C 
ATOM     21  C   UNL     1       1.660   8.092  18.815  0.00  0.00    +0.000 C 
ATOM     22  C   UNL     1       2.611   7.471  19.838  0.00  0.00    +0.000 C 
BRANCH  18  23
ATOM     23  C   UNL     1       2.372   5.148  18.943  0.00  0.00    +0.000 A 
ATOM     24  C   UNL     1       2.195   4.495  17.704  0.00  0.00    +0.000 A 
ATOM     25  C   UNL     1       1.468   3.304  17.613  0.00  0.00    +0.000 A 
ATOM     26  C   UNL     1       0.882   2.770  18.751  0.00  0.00    +0.000 A 
ATOM     27  F   UNL     1       0.232   1.602  18.679  0.00  0.00    +0.000 F 
ATOM     28  C   UNL     1       0.971   3.427  19.968  0.00  0.00    +0.000 A 
ATOM     29  C   UNL     1       1.698   4.616  20.060  0.00  0.00    +0.000 A 
ENDBRANCH  18  23
ENDBRANCH  16  18
ENDBRANCH   1  16
TORSDOF 4
ENDMDL
MODEL 7
REMARK VINA RESULT:      -7.9      1.895      2.599
REMARK  Name = 
REMARK  5 active torsions:
REMARK  status: ('A' for Active; 'I' for Inactive)
REMARK    1  A    between atoms: C_1  and  C_2
REMARK    2  A    between atoms: C_9  and  S_10
REMARK    3  A    between atoms: S_10  and  N_13
REMARK    4  A    between atoms: N_13  and  C_14
REMARK    5  A    between atoms: C_14  and  C_15
REMARK                            x       y       z     vdW  Elec       q    Type
REMARK                         _______ _______ _______ _____ _____    ______ ____
ROOT
ATOM      1  S   UNL     1       3.058   5.839  18.784  0.00  0.00    +0.000 S 
ATOM      2  O   UNL     1       3.687   5.162  19.893  0.00  0.00    +0.000 OA
ATOM      3  O   UNL     1       2.172   5.139  17.877  0.00  0.00    +0.000 OA
ENDROOT
BRANCH   1  12
ATOM      4  C   UNL     1      -0.667  12.471  22.264  0.00  0.00    +0.000 C 
ATOM      5  C   UNL     1      -0.138  11.054  22.189  0.00  0.00    +0.000 C 
ATOM      6  O   UNL     1      -0.124  10.352  23.199  0.00  0.00    +0.000 OA
ATOM      7  N   UNL     1       0.287  10.654  20.933  0.00  0.00    +0.000 N 
ATOM      8  C   UNL     1       0.391  11.539  19.758  0.00  0.00    +0.000 C 
ATOM      9  C   UNL     1       0.874  10.686  18.584  0.00  0.00    +0.000 C 
ATOM     10  C   UNL     1       1.262   9.418  19.268  0.00  0.00    +0.000 A 
ATOM     11  C   UNL     1       1.933   8.345  18.704  0.00  0.00    +0.000 A 
ATOM     12  C   UNL     1       2.109   7.190  19.468  0.00  0.00    +0.000 A 
ATOM     13  C   UNL     1       1.677   7.158  20.809  0.00  0.00    +0.000 A 
ATOM     14  C   UNL     1       1.051   8.279  21.387  0.00  0.00    +0.000 A 
ATOM     15  C   UNL     1       0.848   9.405  20.601  0.00  0.00    +0.000 A 
ENDBRANCH   1  12
BRANCH   1  16
ATOM     16  N   UNL     1       4.221   6.569  17.812  0.00  0.00    +0.000 NA
ATOM     17  H   UNL     1       4.053   7.566  17.697  0.00  0.00    +0.000 HD
BRANCH  16  18
ATOM     18  C   UNL     1       5.629   6.121  17.724  0.00  0.00    +0.000 C 
ATOM     19  C   UNL     1       6.119   5.568  19.076  0.00  0.00    +0.000 C 
ATOM     20  C   UNL     1       7.633   5.789  19.114  0.00  0.00    +0.000 C 
ATOM     21  C   UNL     1       7.915   6.899  18.108  0.00  0.00    +0.000 C 
ATOM     22  C   UNL     1       6.536   7.391  17.669  0.00  0.00    +0.000 C 
BRANCH  18  23
ATOM     23  C   UNL     1       5.943   5.273  16.478  0.00  0.00    +0.000 A 
ATOM     24  C   UNL     1       5.214   4.091  16.225  0.00  0.00    +0.000 A 
ATOM     25  C   UNL     1       5.346   3.406  15.013  0.00  0.00    +0.000 A 
ATOM     26  C   UNL     1       6.232   3.875  14.054  0.00  0.00    +0.000 A 
ATOM     27  F   UNL     1       6.322   3.254  12.871  0.00  0.00    +0.000 F 
ATOM     28  C   UNL     1       7.020   4.988  14.302  0.00  0.00    +0.000 A 
ATOM     29  C   UNL     1       6.887   5.673  15.512  0.00  0.00    +0.000 A 
ENDBRANCH  18  23
ENDBRANCH  16  18
ENDBRANCH   1  16
TORSDOF 4
ENDMDL
MODEL 8
REMARK VINA RESULT:      -7.9      3.730      8.313
REMARK  Name = 
REMARK  5 active torsions:
REMARK  status: ('A' for Active; 'I' for Inactive)
REMARK    1  A    between atoms: C_1  and  C_2
REMARK    2  A    between atoms: C_9  and  S_10
REMARK    3  A    between atoms: S_10  and  N_13
REMARK    4  A    between atoms: N_13  and  C_14
REMARK    5  A    between atoms: C_14  and  C_15
REMARK                            x       y       z     vdW  Elec       q    Type
REMARK                         _______ _______ _______ _____ _____    ______ ____
ROOT
ATOM      1  S   UNL     1       5.646   4.665  19.379  0.00  0.00    +0.000 S 
ATOM      2  O   UNL     1       5.046   3.363  19.550  0.00  0.00    +0.000 OA
ATOM      3  O   UNL     1       6.857   5.037  20.081  0.00  0.00    +0.000 OA
ENDROOT
BRANCH   1  12
ATOM      4  C   UNL     1       7.859   4.942  11.317  0.00  0.00    +0.000 C 
ATOM      5  C   UNL     1       7.895   5.322  12.782  0.00  0.00    +0.000 C 
ATOM      6  O   UNL     1       8.777   6.072  13.198  0.00  0.00    +0.000 OA
ATOM      7  N   UNL     1       6.881   4.779  13.552  0.00  0.00    +0.000 N 
ATOM      8  C   UNL     1       5.907   3.778  13.078  0.00  0.00    +0.000 C 
ATOM      9  C   UNL     1       4.958   3.477  14.239  0.00  0.00    +0.000 C 
ATOM     10  C   UNL     1       5.645   4.152  15.378  0.00  0.00    +0.000 A 
ATOM     11  C   UNL     1       5.313   4.057  16.720  0.00  0.00    +0.000 A 
ATOM     12  C   UNL     1       5.999   4.853  17.637  0.00  0.00    +0.000 A 
ATOM     13  C   UNL     1       7.058   5.677  17.204  0.00  0.00    +0.000 A 
ATOM     14  C   UNL     1       7.424   5.717  15.845  0.00  0.00    +0.000 A 
ATOM     15  C   UNL     1       6.705   4.948  14.941  0.00  0.00    +0.000 A 
ENDBRANCH   1  12
BRANCH   1  16
ATOM     16  N   UNL     1       4.527   5.872  19.731  0.00  0.00    +0.000 NA
ATOM     17  H   UNL     1       4.900   6.803  19.554  0.00  0.00    +0.000 HD
BRANCH  16  18
ATOM     18  C   UNL     1       3.062   5.710  19.599  0.00  0.00    +0.000 C 
ATOM     19  C   UNL     1       2.504   4.801  20.711  0.00  0.00    +0.000 C 
ATOM     20  C   UNL     1       1.243   4.145  20.145  0.00  0.00    +0.000 C 
ATOM     21  C   UNL     1       1.378   4.227  18.629  0.00  0.00    +0.000 C 
ATOM     22  C   UNL     1       2.789   4.762  18.389  0.00  0.00    +0.000 C 
BRANCH  18  23
ATOM     23  C   UNL     1       2.304   7.025  19.339  0.00  0.00    +0.000 A 
ATOM     24  C   UNL     1       1.644   7.682  20.399  0.00  0.00    +0.000 A 
ATOM     25  C   UNL     1       1.111   8.964  20.234  0.00  0.00    +0.000 A 
ATOM     26  C   UNL     1       1.203   9.591  19.000  0.00  0.00    +0.000 A 
ATOM     27  F   UNL     1       0.743  10.840  18.851  0.00  0.00    +0.000 F 
ATOM     28  C   UNL     1       1.776   8.942  17.918  0.00  0.00    +0.000 A 
ATOM     29  C   UNL     1       2.309   7.661  18.083  0.00  0.00    +0.000 A 
ENDBRANCH  18  23
ENDBRANCH  16  18
ENDBRANCH   1  16
TORSDOF 4
ENDMDL
MODEL 9
REMARK VINA RESULT:      -7.8      2.192      3.101
REMARK  Name = 
REMARK  5 active torsions:
REMARK  status: ('A' for Active; 'I' for Inactive)
REMARK    1  A    between atoms: C_1  and  C_2
REMARK    2  A    between atoms: C_9  and  S_10
REMARK    3  A    between atoms: S_10  and  N_13
REMARK    4  A    between atoms: N_13  and  C_14
REMARK    5  A    between atoms: C_14  and  C_15
REMARK                            x       y       z     vdW  Elec       q    Type
REMARK                         _______ _______ _______ _____ _____    ______ ____
ROOT
ATOM      1  S   UNL     1       3.050   6.107  18.634  0.00  0.00    +0.000 S 
ATOM      2  O   UNL     1       3.670   5.572  19.824  0.00  0.00    +0.000 OA
ATOM      3  O   UNL     1       2.108   5.327  17.858  0.00  0.00    +0.000 OA
ENDROOT
BRANCH   1  12
ATOM      4  C   UNL     1      -1.686  12.687  20.693  0.00  0.00    +0.000 C 
ATOM      5  C   UNL     1      -0.827  11.818  19.799  0.00  0.00    +0.000 C 
ATOM      6  O   UNL     1      -0.723  12.086  18.603  0.00  0.00    +0.000 OA
ATOM      7  N   UNL     1      -0.198  10.764  20.438  0.00  0.00    +0.000 N 
ATOM      8  C   UNL     1      -0.429  10.370  21.841  0.00  0.00    +0.000 C 
ATOM      9  C   UNL     1       0.485   9.181  22.139  0.00  0.00    +0.000 C 
ATOM     10  C   UNL     1       0.978   8.826  20.776  0.00  0.00    +0.000 A 
ATOM     11  C   UNL     1       1.712   7.704  20.427  0.00  0.00    +0.000 A 
ATOM     12  C   UNL     1       2.188   7.596  19.119  0.00  0.00    +0.000 A 
ATOM     13  C   UNL     1       1.856   8.577  18.164  0.00  0.00    +0.000 A 
ATOM     14  C   UNL     1       1.058   9.682  18.519  0.00  0.00    +0.000 A 
ATOM     15  C   UNL     1       0.627   9.794  19.834  0.00  0.00    +0.000 A 
ENDBRANCH   1  12
BRANCH   1  16
ATOM     16  N   UNL     1       4.226   6.618  17.544  0.00  0.00    +0.000 NA
ATOM     17  H   UNL     1       4.093   7.589  17.266  0.00  0.00    +0.000 HD
BRANCH  16  18
ATOM     18  C   UNL     1       5.614   6.107  17.521  0.00  0.00    +0.000 C 
ATOM     19  C   UNL     1       6.006   5.508  18.886  0.00  0.00    +0.000 C 
ATOM     20  C   UNL     1       7.525   5.657  19.006  0.00  0.00    +0.000 C 
ATOM     21  C   UNL     1       7.910   6.770  18.039  0.00  0.00    +0.000 C 
ATOM     22  C   UNL     1       6.580   7.333  17.539  0.00  0.00    +0.000 C 
BRANCH  18  23
ATOM     23  C   UNL     1       5.955   5.266  16.276  0.00  0.00    +0.000 A 
ATOM     24  C   UNL     1       5.216   4.099  15.988  0.00  0.00    +0.000 A 
ATOM     25  C   UNL     1       5.376   3.424  14.774  0.00  0.00    +0.000 A 
ATOM     26  C   UNL     1       6.299   3.889  13.849  0.00  0.00    +0.000 A 
ATOM     27  F   UNL     1       6.417   3.279  12.662  0.00  0.00    +0.000 F 
ATOM     28  C   UNL     1       7.096   4.986  14.133  0.00  0.00    +0.000 A 
ATOM     29  C   UNL     1       6.935   5.661  15.346  0.00  0.00    +0.000 A 
ENDBRANCH  18  23
ENDBRANCH  16  18
ENDBRANCH   1  16
TORSDOF 4
ENDMDL
