MODEL 1
REMARK VINA RESULT:      -8.5      0.000      0.000
REMARK  Name = 
REMARK  5 active torsions:
REMARK  status: ('A' for Active; 'I' for Inactive)
REMARK    1  A    between atoms: C_1  and  C_2
REMARK    2  A    between atoms: C_2  and  C_3
REMARK    3  A    between atoms: N_14  and  C_15
REMARK    4  A    between atoms: C_15  and  C_16
REMARK    5  A    between atoms: N_18  and  C_19
REMARK                            x       y       z     vdW  Elec       q    Type
REMARK                         _______ _______ _______ _____ _____    ______ ____
ROOT
ATOM      1  C   UNL     1      -0.929  13.768  20.116  0.00  0.00    +0.000 C 
ATOM      2  C   UNL     1      -0.990  12.270  20.382  0.00  0.00    +0.000 C 
ATOM      3  N   UNL     1      -1.561  12.031  21.700  0.00  0.00    +0.000 N 
ATOM      4  C   UNL     1      -0.834  11.125  22.432  0.00  0.00    +0.000 C 
ATOM      5  O   UNL     1      -1.120  10.748  23.554  0.00  0.00    +0.000 OA
ATOM      6  N   UNL     1       0.267  10.792  21.721  0.00  0.00    +0.000 N 
ATOM      7  C   UNL     1       0.390  11.609  20.630  0.00  0.00    +0.000 C 
ATOM      8  O   UNL     1       1.391  11.708  19.938  0.00  0.00    +0.000 OA
ATOM      9  H   UNL     1      -2.438  12.404  22.042  0.00  0.00    +0.000 HD
ENDROOT
BRANCH   2  10
ATOM     10  C   UNL     1      -1.689  11.484  19.272  0.00  0.00    +0.000 A 
ATOM     11  C   UNL     1      -1.017  10.571  18.442  0.00  0.00    +0.000 A 
ATOM     12  C   UNL     1      -1.688   9.950  17.387  0.00  0.00    +0.000 A 
ATOM     13  F   UNL     1      -1.022   9.092  16.605  0.00  0.00    +0.000 F 
ATOM     14  C   UNL     1      -3.026  10.214  17.124  0.00  0.00    +0.000 A 
ATOM     15  C   UNL     1      -3.709  11.117  17.930  0.00  0.00    +0.000 A 
ATOM     16  C   UNL     1      -3.045  11.737  18.987  0.00  0.00    +0.000 A 
ATOM     17  F   UNL     1      -3.735  12.612  19.729  0.00  0.00    +0.000 F 
ENDBRANCH   2  10
BRANCH   6  18
ATOM     18  C   UNL     1       1.148   9.684  22.007  0.00  0.00    +0.000 C 
BRANCH  18  19
ATOM     19  C   UNL     1       0.880   8.434  21.202  0.00  0.00    +0.000 C 
ATOM     20  O   UNL     1      -0.271   8.007  21.121  0.00  0.00    +0.000 OA
ATOM     21  N   UNL     1       2.012   7.770  20.758  0.00  0.00    +0.000 N 
ATOM     22  H   UNL     1       2.895   8.035  21.183  0.00  0.00    +0.000 HD
BRANCH  21  23
ATOM     23  C   UNL     1       1.998   6.583  19.998  0.00  0.00    +0.000 A 
ATOM     24  C   UNL     1       2.359   6.558  18.635  0.00  0.00    +0.000 A 
ATOM     25  C   UNL     1       2.233   5.395  17.875  0.00  0.00    +0.000 A 
ATOM     26  C   UNL     1       1.755   4.275  18.509  0.00  0.00    +0.000 A 
ATOM     27  C   UNL     1       1.454   4.274  19.851  0.00  0.00    +0.000 A 
ATOM     28  C   UNL     1       1.586   5.404  20.632  0.00  0.00    +0.000 A 
ATOM     29  O   UNL     1       0.993   3.065  20.273  0.00  0.00    +0.000 OA
ATOM     30  C   UNL     1       0.951   2.343  19.025  0.00  0.00    +0.000 C 
ATOM     31  O   UNL     1       1.513   3.075  17.918  0.00  0.00    +0.000 OA
ENDBRANCH  21  23
ENDBRANCH  18  19
ENDBRANCH   6  18
TORSDOF 4
ENDMDL
MODEL 2
REMARK VINA RESULT:      -8.3      6.251      9.596
REMARK  Name = 
REMARK  5 active torsions:
REMARK  status: ('A' for Active; 'I' for Inactive)
REMARK    1  A    between atoms: C_1  and  C_2
REMARK    2  A    between atoms: C_2  and  C_3
REMARK    3  A    between atoms: N_14  and  C_15
REMARK    4  A    between atoms: C_15  and  C_16
REMARK    5  A    between atoms: N_18  and  C_19
REMARK                            x       y       z     vdW  Elec       q    Type
REMARK                         _______ _______ _______ _____ _____    ______ ____
ROOT
ATOM      1  C   UNL     1       4.031   3.678  18.056  0.00  0.00    +0.000 C 
ATOM      2  C   UNL     1       4.702   5.040  17.929  0.00  0.00    +0.000 C 
ATOM      3  N   UNL     1       5.275   5.179  16.598  0.00  0.00    +0.000 N 
ATOM      4  C   UNL     1       6.563   5.655  16.627  0.00  0.00    +0.000 C 
ATOM      5  O   UNL     1       7.246   5.874  15.644  0.00  0.00    +0.000 OA
ATOM      6  N   UNL     1       6.944   5.765  17.920  0.00  0.00    +0.000 N 
ATOM      7  C   UNL     1       6.017   5.181  18.738  0.00  0.00    +0.000 C 
ATOM      8  O   UNL     1       6.190   4.915  19.918  0.00  0.00    +0.000 OA
ATOM      9  H   UNL     1       4.785   5.035  15.725  0.00  0.00    +0.000 HD
ENDROOT
BRANCH   2  10
ATOM     10  C   UNL     1       3.790   6.204  18.317  0.00  0.00    +0.000 A 
ATOM     11  C   UNL     1       3.030   6.218  19.499  0.00  0.00    +0.000 A 
ATOM     12  C   UNL     1       2.146   7.268  19.756  0.00  0.00    +0.000 A 
ATOM     13  F   UNL     1       1.425   7.253  20.884  0.00  0.00    +0.000 F 
ATOM     14  C   UNL     1       1.988   8.318  18.862  0.00  0.00    +0.000 A 
ATOM     15  C   UNL     1       2.727   8.322  17.684  0.00  0.00    +0.000 A 
ATOM     16  C   UNL     1       3.614   7.279  17.425  0.00  0.00    +0.000 A 
ATOM     17  F   UNL     1       4.294   7.313  16.272  0.00  0.00    +0.000 F 
ENDBRANCH   2  10
BRANCH   6  18
ATOM     18  C   UNL     1       8.113   6.469  18.394  0.00  0.00    +0.000 C 
BRANCH  18  19
ATOM     19  C   UNL     1       8.052   7.972  18.252  0.00  0.00    +0.000 C 
ATOM     20  O   UNL     1       7.351   8.464  17.369  0.00  0.00    +0.000 OA
ATOM     21  N   UNL     1       8.949   8.671  19.044  0.00  0.00    +0.000 N 
ATOM     22  H   UNL     1       9.700   8.136  19.467  0.00  0.00    +0.000 HD
BRANCH  21  23
ATOM     23  C   UNL     1       9.069  10.076  19.069  0.00  0.00    +0.000 A 
ATOM     24  C   UNL     1       8.903  10.865  17.913  0.00  0.00    +0.000 A 
ATOM     25  C   UNL     1       9.134  12.241  17.937  0.00  0.00    +0.000 A 
ATOM     26  C   UNL     1       9.517  12.796  19.133  0.00  0.00    +0.000 A 
ATOM     27  C   UNL     1       9.626  12.044  20.279  0.00  0.00    +0.000 A 
ATOM     28  C   UNL     1       9.386  10.684  20.289  0.00  0.00    +0.000 A 
ATOM     29  O   UNL     1      10.022  12.789  21.347  0.00  0.00    +0.000 OA
ATOM     30  C   UNL     1      10.238  14.068  20.716  0.00  0.00    +0.000 C 
ATOM     31  O   UNL     1       9.838  14.101  19.331  0.00  0.00    +0.000 OA
ENDBRANCH  21  23
ENDBRANCH  18  19
ENDBRANCH   6  18
TORSDOF 4
ENDMDL
MODEL 3
REMARK VINA RESULT:      -8.2      6.227      9.544
REMARK  Name = 
REMARK  5 active torsions:
REMARK  status: ('A' for Active; 'I' for Inactive)
REMARK    1  A    between atoms: C_1  and  C_2
REMARK    2  A    between atoms: C_2  and  C_3
REMARK    3  A    between atoms: N_14  and  C_15
REMARK    4  A    between atoms: C_15  and  C_16
REMARK    5  A    between atoms: N_18  and  C_19
REMARK                            x       y       z     vdW  Elec       q    Type
REMARK                         _______ _______ _______ _____ _____    ______ ____
ROOT
ATOM      1  C   UNL     1       3.801   3.509  17.817  0.00  0.00    +0.000 C 
ATOM      2  C   UNL     1       4.492   4.865  17.762  0.00  0.00    +0.000 C 
ATOM      3  N   UNL     1       5.081   5.059  16.445  0.00  0.00    +0.000 N 
ATOM      4  C   UNL     1       6.375   5.514  16.509  0.00  0.00    +0.000 C 
ATOM      5  O   UNL     1       7.071   5.770  15.543  0.00  0.00    +0.000 OA
ATOM      6  N   UNL     1       6.744   5.558  17.809  0.00  0.00    +0.000 N 
ATOM      7  C   UNL     1       5.801   4.949  18.590  0.00  0.00    +0.000 C 
ATOM      8  O   UNL     1       5.957   4.625  19.757  0.00  0.00    +0.000 OA
ATOM      9  H   UNL     1       4.598   4.964  15.560  0.00  0.00    +0.000 HD
ENDROOT
BRANCH   2  10
ATOM     10  C   UNL     1       3.592   6.022  18.196  0.00  0.00    +0.000 A 
ATOM     11  C   UNL     1       3.446   7.200  17.443  0.00  0.00    +0.000 A 
ATOM     12  C   UNL     1       2.682   8.260  17.933  0.00  0.00    +0.000 A 
ATOM     13  F   UNL     1       2.567   9.376  17.202  0.00  0.00    +0.000 F 
ATOM     14  C   UNL     1       2.050   8.188  19.168  0.00  0.00    +0.000 A 
ATOM     15  C   UNL     1       2.184   7.034  19.931  0.00  0.00    +0.000 A 
ATOM     16  C   UNL     1       2.943   5.971  19.444  0.00  0.00    +0.000 A 
ATOM     17  F   UNL     1       3.060   4.884  20.217  0.00  0.00    +0.000 F 
ENDBRANCH   2  10
BRANCH   6  18
ATOM     18  C   UNL     1       7.918   6.221  18.327  0.00  0.00    +0.000 C 
BRANCH  18  19
ATOM     19  C   UNL     1       7.957   7.714  18.099  0.00  0.00    +0.000 C 
ATOM     20  O   UNL     1       7.438   8.181  17.087  0.00  0.00    +0.000 OA
ATOM     21  N   UNL     1       8.746   8.421  18.993  0.00  0.00    +0.000 N 
ATOM     22  H   UNL     1       9.389   7.882  19.563  0.00  0.00    +0.000 HD
BRANCH  21  23
ATOM     23  C   UNL     1       8.932   9.819  18.964  0.00  0.00    +0.000 A 
ATOM     24  C   UNL     1       8.477  10.616  17.894  0.00  0.00    +0.000 A 
ATOM     25  C   UNL     1       8.767  11.980  17.834  0.00  0.00    +0.000 A 
ATOM     26  C   UNL     1       9.502  12.515  18.862  0.00  0.00    +0.000 A 
ATOM     27  C   UNL     1       9.901  11.758  19.938  0.00  0.00    +0.000 A 
ATOM     28  C   UNL     1       9.613  10.411  20.034  0.00  0.00    +0.000 A 
ATOM     29  O   UNL     1      10.621  12.482  20.838  0.00  0.00    +0.000 OA
ATOM     30  C   UNL     1      10.705  13.751  20.155  0.00  0.00    +0.000 C 
ATOM     31  O   UNL     1       9.926  13.803  18.944  0.00  0.00    +0.000 OA
ENDBRANCH  21  23
ENDBRANCH  18  19
ENDBRANCH   6  18
TORSDOF 4
ENDMDL
MODEL 4
REMARK VINA RESULT:      -8.1      3.859      8.471
REMARK  Name = 
REMARK  5 active torsions:
REMARK  status: ('A' for Active; 'I' for Inactive)
REMARK    1  A    between atoms: C_1  and  C_2
REMARK    2  A    between atoms: C_2  and  C_3
REMARK    3  A    between atoms: N_14  and  C_15
REMARK    4  A    between atoms: C_15  and  C_16
REMARK    5  A    between atoms: N_18  and  C_19
REMARK                            x       y       z     vdW  Elec       q    Type
REMARK                         _______ _______ _______ _____ _____    ______ ____
ROOT
ATOM      1  C   UNL     1       4.300   4.135  16.008  0.00  0.00    +0.000 C 
ATOM      2  C   UNL     1       4.649   4.302  17.481  0.00  0.00    +0.000 C 
ATOM      3  N   UNL     1       4.820   2.993  18.094  0.00  0.00    +0.000 N 
ATOM      4  C   UNL     1       4.153   2.880  19.289  0.00  0.00    +0.000 C 
ATOM      5  O   UNL     1       4.159   1.890  19.998  0.00  0.00    +0.000 OA
ATOM      6  N   UNL     1       3.450   4.017  19.490  0.00  0.00    +0.000 N 
ATOM      7  C   UNL     1       3.472   4.793  18.364  0.00  0.00    +0.000 C 
ATOM      8  O   UNL     1       2.746   5.753  18.158  0.00  0.00    +0.000 OA
ATOM      9  H   UNL     1       5.423   2.254  17.754  0.00  0.00    +0.000 HD
ENDROOT
BRANCH   2  10
ATOM     10  C   UNL     1       5.833   5.239  17.721  0.00  0.00    +0.000 A 
ATOM     11  C   UNL     1       6.834   4.977  18.673  0.00  0.00    +0.000 A 
ATOM     12  C   UNL     1       7.843   5.912  18.911  0.00  0.00    +0.000 A 
ATOM     13  F   UNL     1       8.778   5.642  19.830  0.00  0.00    +0.000 F 
ATOM     14  C   UNL     1       7.888   7.120  18.228  0.00  0.00    +0.000 A 
ATOM     15  C   UNL     1       6.905   7.401  17.285  0.00  0.00    +0.000 A 
ATOM     16  C   UNL     1       5.899   6.469  17.040  0.00  0.00    +0.000 A 
ATOM     17  F   UNL     1       4.963   6.787  16.136  0.00  0.00    +0.000 F 
ENDBRANCH   2  10
BRANCH   6  18
ATOM     18  C   UNL     1       2.831   4.413  20.734  0.00  0.00    +0.000 C 
BRANCH  18  19
ATOM     19  C   UNL     1       1.775   5.486  20.606  0.00  0.00    +0.000 C 
ATOM     20  O   UNL     1       0.644   5.174  20.238  0.00  0.00    +0.000 OA
ATOM     21  N   UNL     1       2.239   6.783  20.755  0.00  0.00    +0.000 N 
ATOM     22  H   UNL     1       3.243   6.919  20.712  0.00  0.00    +0.000 HD
BRANCH  21  23
ATOM     23  C   UNL     1       1.432   7.937  20.669  0.00  0.00    +0.000 A 
ATOM     24  C   UNL     1       0.569   8.331  21.713  0.00  0.00    +0.000 A 
ATOM     25  C   UNL     1      -0.300   9.412  21.563  0.00  0.00    +0.000 A 
ATOM     26  C   UNL     1      -0.273  10.083  20.366  0.00  0.00    +0.000 A 
ATOM     27  C   UNL     1       0.604   9.742  19.363  0.00  0.00    +0.000 A 
ATOM     28  C   UNL     1       1.488   8.688  19.489  0.00  0.00    +0.000 A 
ATOM     29  O   UNL     1       0.460  10.530  18.263  0.00  0.00    +0.000 OA
ATOM     30  C   UNL     1      -0.669  11.337  18.658  0.00  0.00    +0.000 C 
ATOM     31  O   UNL     1      -1.083  11.118  20.022  0.00  0.00    +0.000 OA
ENDBRANCH  21  23
ENDBRANCH  18  19
ENDBRANCH   6  18
TORSDOF 4
ENDMDL
MODEL 5
REMARK VINA RESULT:      -8.0      5.901      9.441
REMARK  Name = 
REMARK  5 active torsions:
REMARK  status: ('A' for Active; 'I' for Inactive)
REMARK    1  A    between atoms: C_1  and  C_2
REMARK    2  A    between atoms: C_2  and  C_3
REMARK    3  A    between atoms: N_14  and  C_15
REMARK    4  A    between atoms: C_15  and  C_16
REMARK    5  A    between atoms: N_18  and  C_19
REMARK                            x       y       z     vdW  Elec       q    Type
REMARK                         _______ _______ _______ _____ _____    ______ ____
ROOT
ATOM      1  C   UNL     1       3.968   3.231  18.022  0.00  0.00    +0.000 C 
ATOM      2  C   UNL     1       4.604   4.609  17.892  0.00  0.00    +0.000 C 
ATOM      3  N   UNL     1       5.161   4.765  16.556  0.00  0.00    +0.000 N 
ATOM      4  C   UNL     1       6.437   5.272  16.574  0.00  0.00    +0.000 C 
ATOM      5  O   UNL     1       7.105   5.511  15.584  0.00  0.00    +0.000 OA
ATOM      6  N   UNL     1       6.828   5.390  17.863  0.00  0.00    +0.000 N 
ATOM      7  C   UNL     1       5.923   4.781  18.689  0.00  0.00    +0.000 C 
ATOM      8  O   UNL     1       6.114   4.517  19.866  0.00  0.00    +0.000 OA
ATOM      9  H   UNL     1       4.666   4.611  15.687  0.00  0.00    +0.000 HD
ENDROOT
BRANCH   2  10
ATOM     10  C   UNL     1       3.668   5.750  18.291  0.00  0.00    +0.000 A 
ATOM     11  C   UNL     1       3.501   6.909  17.514  0.00  0.00    +0.000 A 
ATOM     12  C   UNL     1       2.701   7.957  17.973  0.00  0.00    +0.000 A 
ATOM     13  F   UNL     1       2.567   9.055  17.218  0.00  0.00    +0.000 F 
ATOM     14  C   UNL     1       2.054   7.891  19.200  0.00  0.00    +0.000 A 
ATOM     15  C   UNL     1       2.208   6.755  19.986  0.00  0.00    +0.000 A 
ATOM     16  C   UNL     1       3.002   5.704  19.531  0.00  0.00    +0.000 A 
ATOM     17  F   UNL     1       3.137   4.636  20.326  0.00  0.00    +0.000 F 
ENDBRANCH   2  10
BRANCH   6  18
ATOM     18  C   UNL     1       7.984   6.121  18.327  0.00  0.00    +0.000 C 
BRANCH  18  19
ATOM     19  C   UNL     1       7.891   7.621  18.174  0.00  0.00    +0.000 C 
ATOM     20  O   UNL     1       7.120   8.093  17.341  0.00  0.00    +0.000 OA
ATOM     21  N   UNL     1       8.835   8.341  18.889  0.00  0.00    +0.000 N 
ATOM     22  H   UNL     1       9.623   7.821  19.260  0.00  0.00    +0.000 HD
BRANCH  21  23
ATOM     23  C   UNL     1       8.937   9.747  18.889  0.00  0.00    +0.000 A 
ATOM     24  C   UNL     1       9.580  10.455  19.926  0.00  0.00    +0.000 A 
ATOM     25  C   UNL     1       9.574  11.849  19.961  0.00  0.00    +0.000 A 
ATOM     26  C   UNL     1       8.929  12.504  18.942  0.00  0.00    +0.000 A 
ATOM     27  C   UNL     1       8.349  11.825  17.896  0.00  0.00    +0.000 A 
ATOM     28  C   UNL     1       8.354  10.446  17.825  0.00  0.00    +0.000 A 
ATOM     29  O   UNL     1       7.761  12.664  17.001  0.00  0.00    +0.000 OA
ATOM     30  C   UNL     1       7.959  13.935  17.654  0.00  0.00    +0.000 C 
ATOM     31  O   UNL     1       8.773  13.850  18.841  0.00  0.00    +0.000 OA
ENDBRANCH  21  23
ENDBRANCH  18  19
ENDBRANCH   6  18
TORSDOF 4
ENDMDL
MODEL 6
REMARK VINA RESULT:      -8.0      0.659      1.314
REMARK  Name = 
REMARK  5 active torsions:
REMARK  status: ('A' for Active; 'I' for Inactive)
REMARK    1  A    between atoms: C_1  and  C_2
REMARK    2  A    between atoms: C_2  and  C_3
REMARK    3  A    between atoms: N_14  and  C_15
REMARK    4  A    between atoms: C_15  and  C_16
REMARK    5  A    between atoms: N_18  and  C_19
REMARK                            x       y       z     vdW  Elec       q    Type
REMARK                         _______ _______ _______ _____ _____    ______ ____
ROOT
ATOM      1  C   UNL     1      -1.281  13.855  20.253  0.00  0.00    +0.000 C 
ATOM      2  C   UNL     1      -1.190  12.344  20.425  0.00  0.00    +0.000 C 
ATOM      3  N   UNL     1      -1.669  11.975  21.750  0.00  0.00    +0.000 N 
ATOM      4  C   UNL     1      -0.825  11.100  22.389  0.00  0.00    +0.000 C 
ATOM      5  O   UNL     1      -1.017  10.631  23.496  0.00  0.00    +0.000 OA
ATOM      6  N   UNL     1       0.265  10.916  21.609  0.00  0.00    +0.000 N 
ATOM      7  C   UNL     1       0.256  11.804  20.568  0.00  0.00    +0.000 C 
ATOM      8  O   UNL     1       1.207  12.039  19.839  0.00  0.00    +0.000 OA
ATOM      9  H   UNL     1      -2.557  12.242  22.154  0.00  0.00    +0.000 HD
ENDROOT
BRANCH   2  10
ATOM     10  C   UNL     1      -1.870  11.563  19.301  0.00  0.00    +0.000 A 
ATOM     11  C   UNL     1      -1.183  10.655  18.478  0.00  0.00    +0.000 A 
ATOM     12  C   UNL     1      -1.835  10.038  17.409  0.00  0.00    +0.000 A 
ATOM     13  F   UNL     1      -1.156   9.185  16.633  0.00  0.00    +0.000 F 
ATOM     14  C   UNL     1      -3.169  10.302  17.124  0.00  0.00    +0.000 A 
ATOM     15  C   UNL     1      -3.867  11.200  17.924  0.00  0.00    +0.000 A 
ATOM     16  C   UNL     1      -3.221  11.815  18.994  0.00  0.00    +0.000 A 
ATOM     17  F   UNL     1      -3.925  12.686  19.729  0.00  0.00    +0.000 F 
ENDBRANCH   2  10
BRANCH   6  18
ATOM     18  C   UNL     1       1.257   9.882  21.783  0.00  0.00    +0.000 C 
BRANCH  18  19
ATOM     19  C   UNL     1       0.915   8.557  21.143  0.00  0.00    +0.000 C 
ATOM     20  O   UNL     1      -0.259   8.194  21.104  0.00  0.00    +0.000 OA
ATOM     21  N   UNL     1       2.006   7.774  20.800  0.00  0.00    +0.000 N 
ATOM     22  H   UNL     1       2.902   8.037  21.197  0.00  0.00    +0.000 HD
BRANCH  21  23
ATOM     23  C   UNL     1       1.920   6.501  20.199  0.00  0.00    +0.000 A 
ATOM     24  C   UNL     1       1.298   5.408  20.836  0.00  0.00    +0.000 A 
ATOM     25  C   UNL     1       1.320   4.133  20.271  0.00  0.00    +0.000 A 
ATOM     26  C   UNL     1       1.962   3.987  19.067  0.00  0.00    +0.000 A 
ATOM     27  C   UNL     1       2.522   5.057  18.409  0.00  0.00    +0.000 A 
ATOM     28  C   UNL     1       2.499   6.334  18.935  0.00  0.00    +0.000 A 
ATOM     29  O   UNL     1       3.109   4.691  17.238  0.00  0.00    +0.000 OA
ATOM     30  C   UNL     1       2.934   3.260  17.286  0.00  0.00    +0.000 C 
ATOM     31  O   UNL     1       2.133   2.816  18.398  0.00  0.00    +0.000 OA
ENDBRANCH  21  23
ENDBRANCH  18  19
ENDBRANCH   6  18
TORSDOF 4
ENDMDL
MODEL 7
REMARK VINA RESULT:      -7.9      3.724      8.436
REMARK  Name = 
REMARK  5 active torsions:
REMARK  status: ('A' for Active; 'I' for Inactive)
REMARK    1  A    between atoms: C_1  and  C_2
REMARK    2  A    between atoms: C_2  and  C_3
REMARK    3  A    between atoms: N_14  and  C_15
REMARK    4  A    between atoms: C_15  and  C_16
REMARK    5  A    between atoms: N_18  and  C_19
REMARK                            x       y       z     vdW  Elec       q    Type
REMARK                         _______ _______ _______ _____ _____    ______ ____
ROOT
ATOM      1  C   UNL     1       4.008   4.174  16.208  0.00  0.00    +0.000 C 
ATOM      2  C   UNL     1       4.408   4.362  17.665  0.00  0.00    +0.000 C 
ATOM      3  N   UNL     1       4.507   3.063  18.315  0.00  0.00    +0.000 N 
ATOM      4  C   UNL     1       3.866   3.032  19.529  0.00  0.00    +0.000 C 
ATOM      5  O   UNL     1       3.824   2.067  20.269  0.00  0.00    +0.000 OA
ATOM      6  N   UNL     1       3.247   4.221  19.712  0.00  0.00    +0.000 N 
ATOM      7  C   UNL     1       3.291   4.959  18.561  0.00  0.00    +0.000 C 
ATOM      8  O   UNL     1       2.627   5.960  18.343  0.00  0.00    +0.000 OA
ATOM      9  H   UNL     1       5.048   2.275  17.984  0.00  0.00    +0.000 HD
ENDROOT
BRANCH   2  10
ATOM     10  C   UNL     1       5.659   5.222  17.845  0.00  0.00    +0.000 A 
ATOM     11  C   UNL     1       6.681   4.902  18.754  0.00  0.00    +0.000 A 
ATOM     12  C   UNL     1       7.758   5.772  18.940  0.00  0.00    +0.000 A 
ATOM     13  F   UNL     1       8.714   5.448  19.820  0.00  0.00    +0.000 F 
ATOM     14  C   UNL     1       7.850   6.970  18.244  0.00  0.00    +0.000 A 
ATOM     15  C   UNL     1       6.847   7.308  17.343  0.00  0.00    +0.000 A 
ATOM     16  C   UNL     1       5.773   6.441  17.150  0.00  0.00    +0.000 A 
ATOM     17  F   UNL     1       4.820   6.813  16.285  0.00  0.00    +0.000 F 
ENDBRANCH   2  10
BRANCH   6  18
ATOM     18  C   UNL     1       2.691   4.696  20.957  0.00  0.00    +0.000 C 
BRANCH  18  19
ATOM     19  C   UNL     1       1.650   5.782  20.816  0.00  0.00    +0.000 C 
ATOM     20  O   UNL     1       0.510   5.479  20.469  0.00  0.00    +0.000 OA
ATOM     21  N   UNL     1       2.135   7.075  20.929  0.00  0.00    +0.000 N 
ATOM     22  H   UNL     1       3.141   7.194  20.871  0.00  0.00    +0.000 HD
BRANCH  21  23
ATOM     23  C   UNL     1       1.344   8.238  20.825  0.00  0.00    +0.000 A 
ATOM     24  C   UNL     1       0.996   8.802  19.581  0.00  0.00    +0.000 A 
ATOM     25  C   UNL     1       0.306  10.012  19.503  0.00  0.00    +0.000 A 
ATOM     26  C   UNL     1      -0.029  10.625  20.685  0.00  0.00    +0.000 A 
ATOM     27  C   UNL     1       0.255  10.055  21.903  0.00  0.00    +0.000 A 
ATOM     28  C   UNL     1       0.921   8.850  22.011  0.00  0.00    +0.000 A 
ATOM     29  O   UNL     1      -0.159  10.830  22.943  0.00  0.00    +0.000 OA
ATOM     30  C   UNL     1      -0.648  11.988  22.235  0.00  0.00    +0.000 C 
ATOM     31  O   UNL     1      -0.648  11.829  20.803  0.00  0.00    +0.000 OA
ENDBRANCH  21  23
ENDBRANCH  18  19
ENDBRANCH   6  18
TORSDOF 4
ENDMDL
MODEL 8
REMARK VINA RESULT:      -7.7      5.978      9.416
REMARK  Name = 
REMARK  5 active torsions:
REMARK  status: ('A' for Active; 'I' for Inactive)
REMARK    1  A    between atoms: C_1  and  C_2
REMARK    2  A    between atoms: C_2  and  C_3
REMARK    3  A    between atoms: N_14  and  C_15
REMARK    4  A    between atoms: C_15  and  C_16
REMARK    5  A    between atoms: N_18  and  C_19
REMARK                            x       y       z     vdW  Elec       q    Type
REMARK                         _______ _______ _______ _____ _____    ______ ____
ROOT
ATOM      1  C   UNL     1       3.731   3.762  18.094  0.00  0.00    +0.000 C 
ATOM      2  C   UNL     1       4.456   5.089  17.916  0.00  0.00    +0.000 C 
ATOM      3  N   UNL     1       4.947   5.197  16.549  0.00  0.00    +0.000 N 
ATOM      4  C   UNL     1       6.255   5.611  16.491  0.00  0.00    +0.000 C 
ATOM      5  O   UNL     1       6.882   5.794  15.464  0.00  0.00    +0.000 OA
ATOM      6  N   UNL     1       6.726   5.706  17.756  0.00  0.00    +0.000 N 
ATOM      7  C   UNL     1       5.827   5.169  18.636  0.00  0.00    +0.000 C 
ATOM      8  O   UNL     1       6.064   4.898  19.803  0.00  0.00    +0.000 OA
ATOM      9  H   UNL     1       4.394   5.075  15.710  0.00  0.00    +0.000 HD
ENDROOT
BRANCH   2  10
ATOM     10  C   UNL     1       3.629   6.297  18.356  0.00  0.00    +0.000 A 
ATOM     11  C   UNL     1       2.903   6.328  19.559  0.00  0.00    +0.000 A 
ATOM     12  C   UNL     1       2.093   7.423  19.866  0.00  0.00    +0.000 A 
ATOM     13  F   UNL     1       1.404   7.424  21.013  0.00  0.00    +0.000 F 
ATOM     14  C   UNL     1       1.976   8.503  19.000  0.00  0.00    +0.000 A 
ATOM     15  C   UNL     1       2.682   8.491  17.802  0.00  0.00    +0.000 A 
ATOM     16  C   UNL     1       3.495   7.402  17.494  0.00  0.00    +0.000 A 
ATOM     17  F   UNL     1       4.144   7.423  16.323  0.00  0.00    +0.000 F 
ENDBRANCH   2  10
BRANCH   6  18
ATOM     18  C   UNL     1       7.955   6.353  18.148  0.00  0.00    +0.000 C 
BRANCH  18  19
ATOM     19  C   UNL     1       7.884   7.860  18.227  0.00  0.00    +0.000 C 
ATOM     20  O   UNL     1       7.045   8.458  17.555  0.00  0.00    +0.000 OA
ATOM     21  N   UNL     1       8.911   8.458  18.940  0.00  0.00    +0.000 N 
ATOM     22  H   UNL     1       9.719   7.882  19.149  0.00  0.00    +0.000 HD
BRANCH  21  23
ATOM     23  C   UNL     1       9.046   9.848  19.136  0.00  0.00    +0.000 A 
ATOM     24  C   UNL     1       9.183  10.417  20.419  0.00  0.00    +0.000 A 
ATOM     25  C   UNL     1       9.206  11.800  20.598  0.00  0.00    +0.000 A 
ATOM     26  C   UNL     1       9.100  12.584  19.476  0.00  0.00    +0.000 A 
ATOM     27  C   UNL     1       9.023  12.039  18.216  0.00  0.00    +0.000 A 
ATOM     28  C   UNL     1       9.017  10.674  18.006  0.00  0.00    +0.000 A 
ATOM     29  O   UNL     1       8.921  12.991  17.249  0.00  0.00    +0.000 OA
ATOM     30  C   UNL     1       8.847  14.185  18.056  0.00  0.00    +0.000 C 
ATOM     31  O   UNL     1       9.047  13.942  19.462  0.00  0.00    +0.000 OA
ENDBRANCH  21  23
ENDBRANCH  18  19
ENDBRANCH   6  18
TORSDOF 4
ENDMDL
MODEL 9
REMARK VINA RESULT:      -7.7      3.577      8.019
REMARK  Name = 
REMARK  5 active torsions:
REMARK  status: ('A' for Active; 'I' for Inactive)
REMARK    1  A    between atoms: C_1  and  C_2
REMARK    2  A    between atoms: C_2  and  C_3
REMARK    3  A    between atoms: N_14  and  C_15
REMARK    4  A    between atoms: C_15  and  C_16
REMARK    5  A    between atoms: N_18  and  C_19
REMARK                            x       y       z     vdW  Elec       q    Type
REMARK                         _______ _______ _______ _____ _____    ______ ____
ROOT
ATOM      1  C   UNL     1       2.810   4.509  17.100  0.00  0.00    +0.000 C 
ATOM      2  C   UNL     1       3.344   5.235  18.327  0.00  0.00    +0.000 C 
ATOM      3  N   UNL     1       2.960   4.508  19.529  0.00  0.00    +0.000 N 
ATOM      4  C   UNL     1       2.438   5.331  20.497  0.00  0.00    +0.000 C 
ATOM      5  O   UNL     1       2.064   4.962  21.595  0.00  0.00    +0.000 OA
ATOM      6  N   UNL     1       2.356   6.582  19.990  0.00  0.00    +0.000 N 
ATOM      7  C   UNL     1       2.617   6.566  18.648  0.00  0.00    +0.000 C 
ATOM      8  O   UNL     1       2.392   7.488  17.878  0.00  0.00    +0.000 OA
ATOM      9  H   UNL     1       3.121   3.524  19.703  0.00  0.00    +0.000 HD
ENDROOT
BRANCH   2  10
ATOM     10  C   UNL     1       4.842   5.529  18.255  0.00  0.00    +0.000 A 
ATOM     11  C   UNL     1       5.722   5.281  19.323  0.00  0.00    +0.000 A 
ATOM     12  C   UNL     1       7.064   5.653  19.232  0.00  0.00    +0.000 A 
ATOM     13  F   UNL     1       7.879   5.416  20.267  0.00  0.00    +0.000 F 
ATOM     14  C   UNL     1       7.569   6.276  18.098  0.00  0.00    +0.000 A 
ATOM     15  C   UNL     1       6.715   6.534  17.031  0.00  0.00    +0.000 A 
ATOM     16  C   UNL     1       5.375   6.160  17.115  0.00  0.00    +0.000 A 
ATOM     17  F   UNL     1       4.584   6.442  16.072  0.00  0.00    +0.000 F 
ENDBRANCH   2  10
BRANCH   6  18
ATOM     18  C   UNL     1       2.115   7.783  20.755  0.00  0.00    +0.000 C 
BRANCH  18  19
ATOM     19  C   UNL     1       0.787   8.451  20.488  0.00  0.00    +0.000 C 
ATOM     20  O   UNL     1      -0.224   8.020  21.040  0.00  0.00    +0.000 OA
ATOM     21  N   UNL     1       0.804   9.408  19.486  0.00  0.00    +0.000 N 
ATOM     22  H   UNL     1       1.618   9.422  18.879  0.00  0.00    +0.000 HD
BRANCH  21  23
ATOM     23  C   UNL     1      -0.320  10.150  19.067  0.00  0.00    +0.000 A 
ATOM     24  C   UNL     1      -0.878  11.178  19.854  0.00  0.00    +0.000 A 
ATOM     25  C   UNL     1      -2.054  11.824  19.472  0.00  0.00    +0.000 A 
ATOM     26  C   UNL     1      -2.638  11.428  18.295  0.00  0.00    +0.000 A 
ATOM     27  C   UNL     1      -2.071  10.466  17.492  0.00  0.00    +0.000 A 
ATOM     28  C   UNL     1      -0.899   9.822  17.836  0.00  0.00    +0.000 A 
ATOM     29  O   UNL     1      -2.815  10.222  16.379  0.00  0.00    +0.000 OA
ATOM     30  C   UNL     1      -3.955  11.071  16.626  0.00  0.00    +0.000 C 
ATOM     31  O   UNL     1      -3.810  11.902  17.795  0.00  0.00    +0.000 OA
ENDBRANCH  21  23
ENDBRANCH  18  19
ENDBRANCH   6  18
TORSDOF 4
ENDMDL
