MODEL 1
REMARK VINA RESULT:      -8.9      0.000      0.000
REMARK  Name = 
REMARK  4 active torsions:
REMARK  status: ('A' for Active; 'I' for Inactive)
REMARK    1  A    between atoms: C_1  and  C_2
REMARK    2  A    between atoms: C_7  and  N_8
REMARK    3  A    between atoms: C_9  and  C_11
REMARK    4  A    between atoms: C_18  and  C_19
REMARK                            x       y       z     vdW  Elec       q    Type
REMARK                         _______ _______ _______ _____ _____    ______ ____
ROOT
ATOM      1  N   UNL     1       1.812   7.236  20.935  0.00  0.00    +0.000 N 
ATOM      2  C   UNL     1       2.270   6.559  19.817  0.00  0.00    +0.000 C 
ATOM      3  O   UNL     1       2.275   7.035  18.682  0.00  0.00    +0.000 OA
ATOM      4  H   UNL     1       1.948   6.793  21.836  0.00  0.00    +0.000 HD
ENDROOT
BRANCH   1  11
ATOM      5  C   UNL     1      -1.524  13.216  23.258  0.00  0.00    +0.000 C 
ATOM      6  C   UNL     1      -0.848  12.112  22.540  0.00  0.00    +0.000 A 
ATOM      7  N   UNL     1      -0.597  12.199  21.203  0.00  0.00    +0.000 NA
ATOM      8  C   UNL     1      -0.005  11.061  20.941  0.00  0.00    +0.000 A 
ATOM      9  C   UNL     1       0.504  10.526  19.742  0.00  0.00    +0.000 A 
ATOM     10  C   UNL     1       1.074   9.310  19.745  0.00  0.00    +0.000 A 
ATOM     11  C   UNL     1       1.206   8.492  20.958  0.00  0.00    +0.000 A 
ATOM     12  C   UNL     1       0.707   9.015  22.101  0.00  0.00    +0.000 A 
ATOM     13  N   UNL     1       0.107  10.287  22.096  0.00  0.00    +0.000 N 
ATOM     14  N   UNL     1      -0.448  10.978  23.132  0.00  0.00    +0.000 NA
ENDBRANCH   1  11
BRANCH   2  15
ATOM     15  C   UNL     1       2.926   5.181  20.001  0.00  0.00    +0.000 C 
ATOM     16  C   UNL     1       2.124   4.013  20.616  0.00  0.00    +0.000 C 
ATOM     17  C   UNL     1       0.972   3.591  19.696  0.00  0.00    +0.000 C 
ATOM     18  C   UNL     1       1.505   3.236  18.303  0.00  0.00    +0.000 C 
ATOM     19  C   UNL     1       3.049   3.284  18.288  0.00  0.00    +0.000 C 
ATOM     20  C   UNL     1       3.559   2.327  19.370  0.00  0.00    +0.000 C 
ATOM     21  C   UNL     1       3.093   2.807  20.750  0.00  0.00    +0.000 C 
ATOM     22  C   UNL     1       3.482   4.738  18.600  0.00  0.00    +0.000 C 
BRANCH  22  23
ATOM     23  C   UNL     1       4.979   5.021  18.432  0.00  0.00    +0.000 C 
ATOM     24  F   UNL     1       5.661   4.957  19.594  0.00  0.00    +0.000 F 
ATOM     25  F   UNL     1       5.565   4.146  17.583  0.00  0.00    +0.000 F 
ATOM     26  F   UNL     1       5.180   6.254  17.913  0.00  0.00    +0.000 F 
ENDBRANCH  22  23
ENDBRANCH   2  15
TORSDOF 3
ENDMDL
MODEL 2
REMARK VINA RESULT:      -8.8      0.717      1.068
REMARK  Name = 
REMARK  4 active torsions:
REMARK  status: ('A' for Active; 'I' for Inactive)
REMARK    1  A    between atoms: C_1  and  C_2
REMARK    2  A    between atoms: C_7  and  N_8
REMARK    3  A    between atoms: C_9  and  C_11
REMARK    4  A    between atoms: C_18  and  C_19
REMARK                            x       y       z     vdW  Elec       q    Type
REMARK                         _______ _______ _______ _____ _____    ______ ____
ROOT
ATOM      1  N   UNL     1       2.028   7.100  20.482  0.00  0.00    +0.000 N 
ATOM      2  C   UNL     1       2.327   6.416  19.316  0.00  0.00    +0.000 C 
ATOM      3  O   UNL     1       2.170   6.884  18.188  0.00  0.00    +0.000 OA
ATOM      4  H   UNL     1       2.293   6.664  21.358  0.00  0.00    +0.000 HD
ENDROOT
BRANCH   1  11
ATOM      5  C   UNL     1      -1.317  12.923  23.161  0.00  0.00    +0.000 C 
ATOM      6  C   UNL     1      -0.637  11.867  22.379  0.00  0.00    +0.000 A 
ATOM      7  N   UNL     1      -0.374  12.041  21.053  0.00  0.00    +0.000 NA
ATOM      8  C   UNL     1       0.219  10.921  20.723  0.00  0.00    +0.000 A 
ATOM      9  C   UNL     1       0.738  10.465  19.496  0.00  0.00    +0.000 A 
ATOM     10  C   UNL     1       1.306   9.249  19.424  0.00  0.00    +0.000 A 
ATOM     11  C   UNL     1       1.425   8.353  20.582  0.00  0.00    +0.000 A 
ATOM     12  C   UNL     1       0.916   8.801  21.752  0.00  0.00    +0.000 A 
ATOM     13  N   UNL     1       0.318  10.072  21.825  0.00  0.00    +0.000 N 
ATOM     14  N   UNL     1      -0.245  10.696  22.899  0.00  0.00    +0.000 NA
ENDBRANCH   1  11
BRANCH   2  15
ATOM     15  C   UNL     1       3.011   5.043  19.415  0.00  0.00    +0.000 C 
ATOM     16  C   UNL     1       2.489   3.983  20.410  0.00  0.00    +0.000 C 
ATOM     17  C   UNL     1       1.083   3.508  20.021  0.00  0.00    +0.000 C 
ATOM     18  C   UNL     1       1.080   2.978  18.582  0.00  0.00    +0.000 C 
ATOM     19  C   UNL     1       2.514   2.962  18.009  0.00  0.00    +0.000 C 
ATOM     20  C   UNL     1       3.384   2.113  18.942  0.00  0.00    +0.000 C 
ATOM     21  C   UNL     1       3.445   2.763  20.330  0.00  0.00    +0.000 C 
ATOM     22  C   UNL     1       3.025   4.424  17.970  0.00  0.00    +0.000 C 
BRANCH  22  23
ATOM     23  C   UNL     1       4.360   4.627  17.245  0.00  0.00    +0.000 C 
ATOM     24  F   UNL     1       4.424   5.796  16.575  0.00  0.00    +0.000 F 
ATOM     25  F   UNL     1       5.407   4.607  18.101  0.00  0.00    +0.000 F 
ATOM     26  F   UNL     1       4.577   3.636  16.350  0.00  0.00    +0.000 F 
ENDBRANCH  22  23
ENDBRANCH   2  15
TORSDOF 3
ENDMDL
MODEL 3
REMARK VINA RESULT:      -8.8      1.097      1.141
REMARK  Name = 
REMARK  4 active torsions:
REMARK  status: ('A' for Active; 'I' for Inactive)
REMARK    1  A    between atoms: C_1  and  C_2
REMARK    2  A    between atoms: C_7  and  N_8
REMARK    3  A    between atoms: C_9  and  C_11
REMARK    4  A    between atoms: C_18  and  C_19
REMARK                            x       y       z     vdW  Elec       q    Type
REMARK                         _______ _______ _______ _____ _____    ______ ____
ROOT
ATOM      1  N   UNL     1       2.379   7.050  20.123  0.00  0.00    +0.000 N 
ATOM      2  C   UNL     1       1.914   5.756  20.281  0.00  0.00    +0.000 C 
ATOM      3  O   UNL     1       0.739   5.475  20.518  0.00  0.00    +0.000 OA
ATOM      4  H   UNL     1       3.341   7.166  19.827  0.00  0.00    +0.000 HD
ENDROOT
BRANCH   1  11
ATOM      5  C   UNL     1      -1.296  12.469  23.190  0.00  0.00    +0.000 C 
ATOM      6  C   UNL     1      -0.591  11.492  22.332  0.00  0.00    +0.000 A 
ATOM      7  N   UNL     1      -0.505  11.682  20.984  0.00  0.00    +0.000 NA
ATOM      8  C   UNL     1       0.174  10.636  20.584  0.00  0.00    +0.000 A 
ATOM      9  C   UNL     1       0.598  10.231  19.303  0.00  0.00    +0.000 A 
ATOM     10  C   UNL     1       1.292   9.090  19.162  0.00  0.00    +0.000 A 
ATOM     11  C   UNL     1       1.649   8.226  20.296  0.00  0.00    +0.000 A 
ATOM     12  C   UNL     1       1.229   8.623  21.518  0.00  0.00    +0.000 A 
ATOM     13  N   UNL     1       0.498   9.816  21.664  0.00  0.00    +0.000 N 
ATOM     14  N   UNL     1      -0.007  10.380  22.798  0.00  0.00    +0.000 NA
ENDBRANCH   1  11
BRANCH   2  15
ATOM     15  C   UNL     1       2.876   4.585  20.028  0.00  0.00    +0.000 C 
ATOM     16  C   UNL     1       2.755   3.285  20.854  0.00  0.00    +0.000 C 
ATOM     17  C   UNL     1       1.437   2.562  20.552  0.00  0.00    +0.000 C 
ATOM     18  C   UNL     1       1.313   2.286  19.049  0.00  0.00    +0.000 C 
ATOM     19  C   UNL     1       2.607   2.702  18.315  0.00  0.00    +0.000 C 
ATOM     20  C   UNL     1       3.774   1.942  18.954  0.00  0.00    +0.000 C 
ATOM     21  C   UNL     1       3.920   2.353  20.425  0.00  0.00    +0.000 C 
ATOM     22  C   UNL     1       2.788   4.229  18.500  0.00  0.00    +0.000 C 
BRANCH  22  23
ATOM     23  C   UNL     1       3.916   4.856  17.673  0.00  0.00    +0.000 C 
ATOM     24  F   UNL     1       5.090   4.906  18.336  0.00  0.00    +0.000 F 
ATOM     25  F   UNL     1       4.140   4.173  16.527  0.00  0.00    +0.000 F 
ATOM     26  F   UNL     1       3.602   6.121  17.311  0.00  0.00    +0.000 F 
ENDBRANCH  22  23
ENDBRANCH   2  15
TORSDOF 3
ENDMDL
MODEL 4
REMARK VINA RESULT:      -8.6      2.934      3.825
REMARK  Name = 
REMARK  4 active torsions:
REMARK  status: ('A' for Active; 'I' for Inactive)
REMARK    1  A    between atoms: C_1  and  C_2
REMARK    2  A    between atoms: C_7  and  N_8
REMARK    3  A    between atoms: C_9  and  C_11
REMARK    4  A    between atoms: C_18  and  C_19
REMARK                            x       y       z     vdW  Elec       q    Type
REMARK                         _______ _______ _______ _____ _____    ______ ____
ROOT
ATOM      1  N   UNL     1       1.954   8.234  17.847  0.00  0.00    +0.000 N 
ATOM      2  C   UNL     1       2.363   7.259  18.742  0.00  0.00    +0.000 C 
ATOM      3  O   UNL     1       2.350   7.403  19.965  0.00  0.00    +0.000 OA
ATOM      4  H   UNL     1       1.906   7.978  16.869  0.00  0.00    +0.000 HD
ENDROOT
BRANCH   1  11
ATOM      5  C   UNL     1       2.079  15.402  18.790  0.00  0.00    +0.000 C 
ATOM      6  C   UNL     1       1.799  13.953  18.684  0.00  0.00    +0.000 A 
ATOM      7  N   UNL     1       0.571  13.455  19.008  0.00  0.00    +0.000 NA
ATOM      8  C   UNL     1       0.710  12.171  18.790  0.00  0.00    +0.000 A 
ATOM      9  C   UNL     1      -0.188  11.096  18.936  0.00  0.00    +0.000 A 
ATOM     10  C   UNL     1       0.214   9.848  18.641  0.00  0.00    +0.000 A 
ATOM     11  C   UNL     1       1.566   9.538  18.156  0.00  0.00    +0.000 A 
ATOM     12  C   UNL     1       2.420  10.578  18.028  0.00  0.00    +0.000 A 
ATOM     13  N   UNL     1       1.999  11.883  18.342  0.00  0.00    +0.000 N 
ATOM     14  N   UNL     1       2.702  13.050  18.278  0.00  0.00    +0.000 NA
ENDBRANCH   1  11
BRANCH   2  15
ATOM     15  C   UNL     1       2.739   5.869  18.204  0.00  0.00    +0.000 C 
ATOM     16  C   UNL     1       3.988   5.691  17.313  0.00  0.00    +0.000 C 
ATOM     17  C   UNL     1       5.272   5.983  18.100  0.00  0.00    +0.000 C 
ATOM     18  C   UNL     1       5.342   5.098  19.350  0.00  0.00    +0.000 C 
ATOM     19  C   UNL     1       4.169   4.094  19.368  0.00  0.00    +0.000 C 
ATOM     20  C   UNL     1       4.228   3.279  18.072  0.00  0.00    +0.000 C 
ATOM     21  C   UNL     1       4.029   4.205  16.865  0.00  0.00    +0.000 C 
ATOM     22  C   UNL     1       2.851   4.905  19.440  0.00  0.00    +0.000 C 
BRANCH  22  23
ATOM     23  C   UNL     1       1.585   4.071  19.665  0.00  0.00    +0.000 C 
ATOM     24  F   UNL     1       1.834   2.882  20.253  0.00  0.00    +0.000 F 
ATOM     25  F   UNL     1       0.689   4.716  20.447  0.00  0.00    +0.000 F 
ATOM     26  F   UNL     1       0.960   3.819  18.493  0.00  0.00    +0.000 F 
ENDBRANCH  22  23
ENDBRANCH   2  15
TORSDOF 3
ENDMDL
MODEL 5
REMARK VINA RESULT:      -8.5      1.574      2.187
REMARK  Name = 
REMARK  4 active torsions:
REMARK  status: ('A' for Active; 'I' for Inactive)
REMARK    1  A    between atoms: C_1  and  C_2
REMARK    2  A    between atoms: C_7  and  N_8
REMARK    3  A    between atoms: C_9  and  C_11
REMARK    4  A    between atoms: C_18  and  C_19
REMARK                            x       y       z     vdW  Elec       q    Type
REMARK                         _______ _______ _______ _____ _____    ______ ____
ROOT
ATOM      1  N   UNL     1       2.478   6.915  19.985  0.00  0.00    +0.000 N 
ATOM      2  C   UNL     1       2.036   5.622  20.210  0.00  0.00    +0.000 C 
ATOM      3  O   UNL     1       0.904   5.344  20.607  0.00  0.00    +0.000 OA
ATOM      4  H   UNL     1       3.390   7.028  19.559  0.00  0.00    +0.000 HD
ENDROOT
BRANCH   1  11
ATOM      5  C   UNL     1      -0.888  13.256  19.124  0.00  0.00    +0.000 C 
ATOM      6  C   UNL     1      -0.261  11.989  19.561  0.00  0.00    +0.000 A 
ATOM      7  N   UNL     1      -0.293  11.610  20.871  0.00  0.00    +0.000 NA
ATOM      8  C   UNL     1       0.347  10.468  20.861  0.00  0.00    +0.000 A 
ATOM      9  C   UNL     1       0.663   9.565  21.894  0.00  0.00    +0.000 A 
ATOM     10  C   UNL     1       1.345   8.442  21.611  0.00  0.00    +0.000 A 
ATOM     11  C   UNL     1       1.780   8.093  20.252  0.00  0.00    +0.000 A 
ATOM     12  C   UNL     1       1.476   8.972  19.272  0.00  0.00    +0.000 A 
ATOM     13  N   UNL     1       0.766  10.149  19.569  0.00  0.00    +0.000 N 
ATOM     14  N   UNL     1       0.368  11.147  18.730  0.00  0.00    +0.000 NA
ENDBRANCH   1  11
BRANCH   2  15
ATOM     15  C   UNL     1       2.952   4.448  19.831  0.00  0.00    +0.000 C 
ATOM     16  C   UNL     1       2.819   3.091  20.557  0.00  0.00    +0.000 C 
ATOM     17  C   UNL     1       1.470   2.431  20.248  0.00  0.00    +0.000 C 
ATOM     18  C   UNL     1       1.285   2.279  18.733  0.00  0.00    +0.000 C 
ATOM     19  C   UNL     1       2.566   2.715  17.987  0.00  0.00    +0.000 C 
ATOM     20  C   UNL     1       3.730   1.874  18.522  0.00  0.00    +0.000 C 
ATOM     21  C   UNL     1       3.939   2.163  20.013  0.00  0.00    +0.000 C 
ATOM     22  C   UNL     1       2.800   4.217  18.284  0.00  0.00    +0.000 C 
BRANCH  22  23
ATOM     23  C   UNL     1       3.919   4.875  17.468  0.00  0.00    +0.000 C 
ATOM     24  F   UNL     1       4.181   4.226  16.314  0.00  0.00    +0.000 F 
ATOM     25  F   UNL     1       3.619   6.153  17.141  0.00  0.00    +0.000 F 
ATOM     26  F   UNL     1       5.070   4.919  18.177  0.00  0.00    +0.000 F 
ENDBRANCH  22  23
ENDBRANCH   2  15
TORSDOF 3
ENDMDL
MODEL 6
REMARK VINA RESULT:      -8.5      1.386      2.061
REMARK  Name = 
REMARK  4 active torsions:
REMARK  status: ('A' for Active; 'I' for Inactive)
REMARK    1  A    between atoms: C_1  and  C_2
REMARK    2  A    between atoms: C_7  and  N_8
REMARK    3  A    between atoms: C_9  and  C_11
REMARK    4  A    between atoms: C_18  and  C_19
REMARK                            x       y       z     vdW  Elec       q    Type
REMARK                         _______ _______ _______ _____ _____    ______ ____
ROOT
ATOM      1  N   UNL     1       2.146   6.960  20.461  0.00  0.00    +0.000 N 
ATOM      2  C   UNL     1       2.387   6.258  19.292  0.00  0.00    +0.000 C 
ATOM      3  O   UNL     1       2.176   6.709  18.166  0.00  0.00    +0.000 OA
ATOM      4  H   UNL     1       2.451   6.537  21.329  0.00  0.00    +0.000 HD
ENDROOT
BRANCH   1  11
ATOM      5  C   UNL     1      -0.423  13.514  18.811  0.00  0.00    +0.000 C 
ATOM      6  C   UNL     1       0.017  12.229  19.399  0.00  0.00    +0.000 A 
ATOM      7  N   UNL     1      -0.193  11.957  20.718  0.00  0.00    +0.000 NA
ATOM      8  C   UNL     1       0.320  10.761  20.856  0.00  0.00    +0.000 A 
ATOM      9  C   UNL     1       0.429   9.913  21.975  0.00  0.00    +0.000 A 
ATOM     10  C   UNL     1       1.014   8.711  21.846  0.00  0.00    +0.000 A 
ATOM     11  C   UNL     1       1.552   8.217  20.570  0.00  0.00    +0.000 A 
ATOM     12  C   UNL     1       1.447   9.044  19.506  0.00  0.00    +0.000 A 
ATOM     13  N   UNL     1       0.838  10.304  19.644  0.00  0.00    +0.000 N 
ATOM     14  N   UNL     1       0.638  11.269  18.701  0.00  0.00    +0.000 NA
ENDBRANCH   1  11
BRANCH   2  15
ATOM     15  C   UNL     1       3.070   4.884  19.379  0.00  0.00    +0.000 C 
ATOM     16  C   UNL     1       2.545   3.814  20.361  0.00  0.00    +0.000 C 
ATOM     17  C   UNL     1       1.141   3.341  19.961  0.00  0.00    +0.000 C 
ATOM     18  C   UNL     1       1.144   2.827  18.517  0.00  0.00    +0.000 C 
ATOM     19  C   UNL     1       2.580   2.818  17.949  0.00  0.00    +0.000 C 
ATOM     20  C   UNL     1       3.447   1.960  18.877  0.00  0.00    +0.000 C 
ATOM     21  C   UNL     1       3.502   2.594  20.272  0.00  0.00    +0.000 C 
ATOM     22  C   UNL     1       3.091   4.280  17.928  0.00  0.00    +0.000 C 
BRANCH  22  23
ATOM     23  C   UNL     1       4.429   4.492  17.211  0.00  0.00    +0.000 C 
ATOM     24  F   UNL     1       4.494   5.667  16.552  0.00  0.00    +0.000 F 
ATOM     25  F   UNL     1       5.472   4.465  18.071  0.00  0.00    +0.000 F 
ATOM     26  F   UNL     1       4.651   3.510  16.307  0.00  0.00    +0.000 F 
ENDBRANCH  22  23
ENDBRANCH   2  15
TORSDOF 3
ENDMDL
MODEL 7
REMARK VINA RESULT:      -8.5      0.922      1.012
REMARK  Name = 
REMARK  4 active torsions:
REMARK  status: ('A' for Active; 'I' for Inactive)
REMARK    1  A    between atoms: C_1  and  C_2
REMARK    2  A    between atoms: C_7  and  N_8
REMARK    3  A    between atoms: C_9  and  C_11
REMARK    4  A    between atoms: C_18  and  C_19
REMARK                            x       y       z     vdW  Elec       q    Type
REMARK                         _______ _______ _______ _____ _____    ______ ____
ROOT
ATOM      1  N   UNL     1       1.859   7.564  20.296  0.00  0.00    +0.000 N 
ATOM      2  C   UNL     1       2.553   7.197  19.155  0.00  0.00    +0.000 C 
ATOM      3  O   UNL     1       2.697   7.929  18.175  0.00  0.00    +0.000 OA
ATOM      4  H   UNL     1       1.889   6.928  21.084  0.00  0.00    +0.000 HD
ENDROOT
BRANCH   1  11
ATOM      5  C   UNL     1      -1.612  13.050  23.479  0.00  0.00    +0.000 C 
ATOM      6  C   UNL     1      -0.962  12.055  22.597  0.00  0.00    +0.000 A 
ATOM      7  N   UNL     1      -0.959  12.219  21.244  0.00  0.00    +0.000 NA
ATOM      8  C   UNL     1      -0.308  11.164  20.823  0.00  0.00    +0.000 A 
ATOM      9  C   UNL     1       0.035  10.733  19.526  0.00  0.00    +0.000 A 
ATOM     10  C   UNL     1       0.718   9.587  19.365  0.00  0.00    +0.000 A 
ATOM     11  C   UNL     1       1.142   8.745  20.491  0.00  0.00    +0.000 A 
ATOM     12  C   UNL     1       0.799   9.166  21.729  0.00  0.00    +0.000 A 
ATOM     13  N   UNL     1       0.081  10.363  21.897  0.00  0.00    +0.000 N 
ATOM     14  N   UNL     1      -0.352  10.951  23.049  0.00  0.00    +0.000 NA
ENDBRANCH   1  11
BRANCH   2  15
ATOM     15  C   UNL     1       3.298   5.852  19.140  0.00  0.00    +0.000 C 
ATOM     16  C   UNL     1       2.767   4.659  19.964  0.00  0.00    +0.000 C 
ATOM     17  C   UNL     1       1.416   4.174  19.423  0.00  0.00    +0.000 C 
ATOM     18  C   UNL     1       1.535   3.822  17.935  0.00  0.00    +0.000 C 
ATOM     19  C   UNL     1       3.002   3.937  17.468  0.00  0.00    +0.000 C 
ATOM     20  C   UNL     1       3.851   3.020  18.354  0.00  0.00    +0.000 C 
ATOM     21  C   UNL     1       3.787   3.499  19.810  0.00  0.00    +0.000 C 
ATOM     22  C   UNL     1       3.439   5.414  17.638  0.00  0.00    +0.000 C 
BRANCH  22  23
ATOM     23  C   UNL     1       4.807   5.760  17.039  0.00  0.00    +0.000 C 
ATOM     24  F   UNL     1       5.749   5.994  17.975  0.00  0.00    +0.000 F 
ATOM     25  F   UNL     1       5.277   4.769  16.248  0.00  0.00    +0.000 F 
ATOM     26  F   UNL     1       4.726   6.865  16.263  0.00  0.00    +0.000 F 
ENDBRANCH  22  23
ENDBRANCH   2  15
TORSDOF 3
ENDMDL
MODEL 8
REMARK VINA RESULT:      -8.5      1.100      1.692
REMARK  Name = 
REMARK  4 active torsions:
REMARK  status: ('A' for Active; 'I' for Inactive)
REMARK    1  A    between atoms: C_1  and  C_2
REMARK    2  A    between atoms: C_7  and  N_8
REMARK    3  A    between atoms: C_9  and  C_11
REMARK    4  A    between atoms: C_18  and  C_19
REMARK                            x       y       z     vdW  Elec       q    Type
REMARK                         _______ _______ _______ _____ _____    ______ ____
ROOT
ATOM      1  N   UNL     1       1.742   7.255  20.981  0.00  0.00    +0.000 N 
ATOM      2  C   UNL     1       2.237   6.589  19.873  0.00  0.00    +0.000 C 
ATOM      3  O   UNL     1       2.305   7.085  18.748  0.00  0.00    +0.000 OA
ATOM      4  H   UNL     1       1.827   6.794  21.879  0.00  0.00    +0.000 HD
ENDROOT
BRANCH   1  11
ATOM      5  C   UNL     1      -0.500  13.818  18.937  0.00  0.00    +0.000 C 
ATOM      6  C   UNL     1      -0.155  12.537  19.592  0.00  0.00    +0.000 A 
ATOM      7  N   UNL     1      -0.523  12.293  20.882  0.00  0.00    +0.000 NA
ATOM      8  C   UNL     1      -0.050  11.091  21.098  0.00  0.00    +0.000 A 
ATOM      9  C   UNL     1      -0.088  10.262  22.236  0.00  0.00    +0.000 A 
ATOM     10  C   UNL     1       0.487   9.048  22.195  0.00  0.00    +0.000 A 
ATOM     11  C   UNL     1       1.161   8.523  21.000  0.00  0.00    +0.000 A 
ATOM     12  C   UNL     1       1.197   9.332  19.918  0.00  0.00    +0.000 A 
ATOM     13  N   UNL     1       0.598  10.604  19.962  0.00  0.00    +0.000 N 
ATOM     14  N   UNL     1       0.527  11.555  18.987  0.00  0.00    +0.000 NA
ENDBRANCH   1  11
BRANCH   2  15
ATOM     15  C   UNL     1       2.857   5.194  20.061  0.00  0.00    +0.000 C 
ATOM     16  C   UNL     1       2.043   4.065  20.732  0.00  0.00    +0.000 C 
ATOM     17  C   UNL     1       0.843   3.663  19.866  0.00  0.00    +0.000 C 
ATOM     18  C   UNL     1       1.310   3.262  18.462  0.00  0.00    +0.000 C 
ATOM     19  C   UNL     1       2.852   3.260  18.386  0.00  0.00    +0.000 C 
ATOM     20  C   UNL     1       3.375   2.309  19.468  0.00  0.00    +0.000 C 
ATOM     21  C   UNL     1       2.978   2.832  20.855  0.00  0.00    +0.000 C 
ATOM     22  C   UNL     1       3.343   4.705  18.649  0.00  0.00    +0.000 C 
BRANCH  22  23
ATOM     23  C   UNL     1       4.840   4.937  18.418  0.00  0.00    +0.000 C 
ATOM     24  F   UNL     1       5.559   4.920  19.560  0.00  0.00    +0.000 F 
ATOM     25  F   UNL     1       5.375   3.999  17.603  0.00  0.00    +0.000 F 
ATOM     26  F   UNL     1       5.056   6.132  17.823  0.00  0.00    +0.000 F 
ENDBRANCH  22  23
ENDBRANCH   2  15
TORSDOF 3
ENDMDL
MODEL 9
REMARK VINA RESULT:      -8.4      2.001      3.032
REMARK  Name = 
REMARK  4 active torsions:
REMARK  status: ('A' for Active; 'I' for Inactive)
REMARK    1  A    between atoms: C_1  and  C_2
REMARK    2  A    between atoms: C_7  and  N_8
REMARK    3  A    between atoms: C_9  and  C_11
REMARK    4  A    between atoms: C_18  and  C_19
REMARK                            x       y       z     vdW  Elec       q    Type
REMARK                         _______ _______ _______ _____ _____    ______ ____
ROOT
ATOM      1  N   UNL     1       1.927   7.954  19.265  0.00  0.00    +0.000 N 
ATOM      2  C   UNL     1       2.311   6.635  19.444  0.00  0.00    +0.000 C 
ATOM      3  O   UNL     1       2.079   5.986  20.464  0.00  0.00    +0.000 OA
ATOM      4  H   UNL     1       2.074   8.362  18.350  0.00  0.00    +0.000 HD
ENDROOT
BRANCH   1  11
ATOM      5  C   UNL     1      -1.715  13.418  22.292  0.00  0.00    +0.000 C 
ATOM      6  C   UNL     1      -0.944  12.209  21.926  0.00  0.00    +0.000 A 
ATOM      7  N   UNL     1      -0.537  11.326  22.881  0.00  0.00    +0.000 NA
ATOM      8  C   UNL     1       0.098  10.415  22.186  0.00  0.00    +0.000 A 
ATOM      9  C   UNL     1       0.760   9.235  22.576  0.00  0.00    +0.000 A 
ATOM     10  C   UNL     1       1.343   8.461  21.646  0.00  0.00    +0.000 A 
ATOM     11  C   UNL     1       1.321   8.780  20.212  0.00  0.00    +0.000 A 
ATOM     12  C   UNL     1       0.688   9.919  19.853  0.00  0.00    +0.000 A 
ATOM     13  N   UNL     1       0.081  10.731  20.828  0.00  0.00    +0.000 N 
ATOM     14  N   UNL     1      -0.598  11.903  20.668  0.00  0.00    +0.000 NA
ENDBRANCH   1  11
BRANCH   2  15
ATOM     15  C   UNL     1       2.953   5.884  18.266  0.00  0.00    +0.000 C 
ATOM     16  C   UNL     1       4.386   6.234  17.808  0.00  0.00    +0.000 C 
ATOM     17  C   UNL     1       5.413   5.877  18.890  0.00  0.00    +0.000 C 
ATOM     18  C   UNL     1       5.291   4.397  19.273  0.00  0.00    +0.000 C 
ATOM     19  C   UNL     1       4.264   3.687  18.363  0.00  0.00    +0.000 C 
ATOM     20  C   UNL     1       4.711   3.880  16.910  0.00  0.00    +0.000 C 
ATOM     21  C   UNL     1       4.695   5.372  16.555  0.00  0.00    +0.000 C 
ATOM     22  C   UNL     1       2.883   4.349  18.599  0.00  0.00    +0.000 C 
BRANCH  22  23
ATOM     23  C   UNL     1       1.700   3.644  17.926  0.00  0.00    +0.000 C 
ATOM     24  F   UNL     1       2.076   2.605  17.152  0.00  0.00    +0.000 F 
ATOM     25  F   UNL     1       0.820   3.161  18.832  0.00  0.00    +0.000 F 
ATOM     26  F   UNL     1       1.011   4.504  17.140  0.00  0.00    +0.000 F 
ENDBRANCH  22  23
ENDBRANCH   2  15
TORSDOF 3
ENDMDL
