MODEL 1
REMARK VINA RESULT:      -9.1      0.000      0.000
REMARK  Name = 
REMARK  5 active torsions:
REMARK  status: ('A' for Active; 'I' for Inactive)
REMARK    1  A    between atoms: C_1  and  C_2
REMARK    2  A    between atoms: C_4  and  C_5
REMARK    3  A    between atoms: C_5  and  N_6
REMARK    4  A    between atoms: C_8  and  C_9
REMARK    5  A    between atoms: C_20  and  C_21
REMARK                            x       y       z     vdW  Elec       q    Type
REMARK                         _______ _______ _______ _____ _____    ______ ____
ROOT
ATOM      1  C   UNL     1       2.329   6.497  19.882  0.00  0.00    +0.000 C 
ATOM      2  O   UNL     1       1.845   5.880  20.836  0.00  0.00    +0.000 OA
ATOM      3  N   UNL     1       2.002   7.843  19.561  0.00  0.00    +0.000 N 
ATOM      4  C   UNL     1       2.437   8.497  18.316  0.00  0.00    +0.000 C 
ATOM      5  C   UNL     1       1.273   9.087  17.567  0.00  0.00    +0.000 C 
ATOM      6  C   UNL     1       0.621  10.160  18.407  0.00  0.00    +0.000 C 
ATOM      7  C   UNL     1       0.478   9.788  19.866  0.00  0.00    +0.000 A 
ATOM      8  C   UNL     1       1.149   8.658  20.404  0.00  0.00    +0.000 A 
ATOM      9  C   UNL     1       0.981   8.365  21.767  0.00  0.00    +0.000 A 
ATOM     10  C   UNL     1       0.169   9.155  22.586  0.00  0.00    +0.000 A 
ATOM     11  C   UNL     1      -0.477  10.259  22.060  0.00  0.00    +0.000 A 
ATOM     12  C   UNL     1      -0.338  10.600  20.704  0.00  0.00    +0.000 A 
ENDROOT
BRANCH   1  15
ATOM     13  N   UNL     1       4.911   4.766  18.090  0.00  0.00    +0.000 N 
ATOM     14  C   UNL     1       4.581   5.757  18.964  0.00  0.00    +0.000 A 
ATOM     15  C   UNL     1       3.198   5.755  18.957  0.00  0.00    +0.000 A 
ATOM     16  N   UNL     1       2.777   4.947  17.928  0.00  0.00    +0.000 NA
ATOM     17  N   UNL     1       3.826   4.301  17.446  0.00  0.00    +0.000 NA
BRANCH  13  18
ATOM     18  C   UNL     1       6.220   4.280  17.729  0.00  0.00    +0.000 C 
BRANCH  18  22
ATOM     19  C   UNL     1       6.470   3.896  12.798  0.00  0.00    +0.000 C 
ATOM     20  C   UNL     1       6.573   4.278  14.217  0.00  0.00    +0.000 A 
ATOM     21  N   UNL     1       6.038   3.725  15.282  0.00  0.00    +0.000 NA
ATOM     22  C   UNL     1       6.508   4.531  16.295  0.00  0.00    +0.000 A 
ATOM     23  N   UNL     1       7.324   5.515  15.889  0.00  0.00    +0.000 NA
ATOM     24  O   UNL     1       7.359   5.355  14.503  0.00  0.00    +0.000 OA
ENDBRANCH  18  22
ENDBRANCH  13  18
ENDBRANCH   1  15
BRANCH  12  25
ATOM     25  C   UNL     1      -1.098  11.832  20.242  0.00  0.00    +0.000 C 
ATOM     26  F   UNL     1      -0.350  12.830  19.696  0.00  0.00    +0.000 F 
ATOM     27  F   UNL     1      -2.038  11.527  19.301  0.00  0.00    +0.000 F 
ATOM     28  F   UNL     1      -1.783  12.419  21.264  0.00  0.00    +0.000 F 
ENDBRANCH  12  25
TORSDOF 4
ENDMDL
MODEL 2
REMARK VINA RESULT:      -8.6      0.985      1.298
REMARK  Name = 
REMARK  5 active torsions:
REMARK  status: ('A' for Active; 'I' for Inactive)
REMARK    1  A    between atoms: C_1  and  C_2
REMARK    2  A    between atoms: C_4  and  C_5
REMARK    3  A    between atoms: C_5  and  N_6
REMARK    4  A    between atoms: C_8  and  C_9
REMARK    5  A    between atoms: C_20  and  C_21
REMARK                            x       y       z     vdW  Elec       q    Type
REMARK                         _______ _______ _______ _____ _____    ______ ____
ROOT
ATOM      1  C   UNL     1       2.799   5.970  20.040  0.00  0.00    +0.000 C 
ATOM      2  O   UNL     1       2.120   5.434  20.922  0.00  0.00    +0.000 OA
ATOM      3  N   UNL     1       2.546   7.270  19.524  0.00  0.00    +0.000 N 
ATOM      4  C   UNL     1       3.242   7.812  18.346  0.00  0.00    +0.000 C 
ATOM      5  C   UNL     1       2.269   8.299  17.307  0.00  0.00    +0.000 C 
ATOM      6  C   UNL     1       1.445   9.431  17.874  0.00  0.00    +0.000 C 
ATOM      7  C   UNL     1       0.986   9.197  19.295  0.00  0.00    +0.000 A 
ATOM      8  C   UNL     1       1.526   8.140  20.076  0.00  0.00    +0.000 A 
ATOM      9  C   UNL     1       1.064   7.975  21.392  0.00  0.00    +0.000 A 
ATOM     10  C   UNL     1       0.089   8.819  21.932  0.00  0.00    +0.000 A 
ATOM     11  C   UNL     1      -0.430   9.851  21.170  0.00  0.00    +0.000 A 
ATOM     12  C   UNL     1       0.003  10.064  19.850  0.00  0.00    +0.000 A 
ENDROOT
BRANCH   1  15
ATOM     13  N   UNL     1       5.718   4.567  18.495  0.00  0.00    +0.000 N 
ATOM     14  C   UNL     1       4.918   5.654  18.670  0.00  0.00    +0.000 A 
ATOM     15  C   UNL     1       3.854   5.165  19.405  0.00  0.00    +0.000 A 
ATOM     16  N   UNL     1       3.947   3.794  19.432  0.00  0.00    +0.000 NA
ATOM     17  N   UNL     1       5.120   3.444  18.928  0.00  0.00    +0.000 NA
BRANCH  13  18
ATOM     18  C   UNL     1       7.000   4.486  17.840  0.00  0.00    +0.000 C 
BRANCH  18  22
ATOM     19  C   UNL     1       5.922   3.685  13.073  0.00  0.00    +0.000 C 
ATOM     20  C   UNL     1       6.376   4.197  14.378  0.00  0.00    +0.000 A 
ATOM     21  N   UNL     1       6.205   3.706  15.585  0.00  0.00    +0.000 NA
ATOM     22  C   UNL     1       6.860   4.628  16.369  0.00  0.00    +0.000 A 
ATOM     23  N   UNL     1       7.442   5.626  15.687  0.00  0.00    +0.000 NA
ATOM     24  O   UNL     1       7.110   5.347  14.360  0.00  0.00    +0.000 OA
ENDBRANCH  18  22
ENDBRANCH  13  18
ENDBRANCH   1  15
BRANCH  12  25
ATOM     25  C   UNL     1      -0.641  11.227  19.114  0.00  0.00    +0.000 C 
ATOM     26  F   UNL     1      -1.575  11.935  19.808  0.00  0.00    +0.000 F 
ATOM     27  F   UNL     1       0.282  12.146  18.708  0.00  0.00    +0.000 F 
ATOM     28  F   UNL     1      -1.275  10.821  17.978  0.00  0.00    +0.000 F 
ENDBRANCH  12  25
TORSDOF 4
ENDMDL
MODEL 3
REMARK VINA RESULT:      -8.5      1.622      2.585
REMARK  Name = 
REMARK  5 active torsions:
REMARK  status: ('A' for Active; 'I' for Inactive)
REMARK    1  A    between atoms: C_1  and  C_2
REMARK    2  A    between atoms: C_4  and  C_5
REMARK    3  A    between atoms: C_5  and  N_6
REMARK    4  A    between atoms: C_8  and  C_9
REMARK    5  A    between atoms: C_20  and  C_21
REMARK                            x       y       z     vdW  Elec       q    Type
REMARK                         _______ _______ _______ _____ _____    ______ ____
ROOT
ATOM      1  C   UNL     1       1.921   8.503  18.265  0.00  0.00    +0.000 C 
ATOM      2  O   UNL     1       1.952   9.287  17.312  0.00  0.00    +0.000 OA
ATOM      3  N   UNL     1       1.170   8.727  19.451  0.00  0.00    +0.000 N 
ATOM      4  C   UNL     1       1.296   7.880  20.649  0.00  0.00    +0.000 C 
ATOM      5  C   UNL     1       1.592   8.700  21.875  0.00  0.00    +0.000 C 
ATOM      6  C   UNL     1       0.446   9.647  22.141  0.00  0.00    +0.000 C 
ATOM      7  C   UNL     1      -0.097  10.311  20.895  0.00  0.00    +0.000 A 
ATOM      8  C   UNL     1       0.271   9.854  19.601  0.00  0.00    +0.000 A 
ATOM      9  C   UNL     1      -0.269  10.507  18.482  0.00  0.00    +0.000 A 
ATOM     10  C   UNL     1      -1.146  11.587  18.622  0.00  0.00    +0.000 A 
ATOM     11  C   UNL     1      -1.506  12.024  19.884  0.00  0.00    +0.000 A 
ATOM     12  C   UNL     1      -1.000  11.402  21.037  0.00  0.00    +0.000 A 
ENDROOT
BRANCH   1  15
ATOM     13  N   UNL     1       4.572   6.085  18.198  0.00  0.00    +0.000 N 
ATOM     14  C   UNL     1       4.150   7.341  17.882  0.00  0.00    +0.000 A 
ATOM     15  C   UNL     1       2.808   7.331  18.217  0.00  0.00    +0.000 A 
ATOM     16  N   UNL     1       2.444   6.034  18.488  0.00  0.00    +0.000 NA
ATOM     17  N   UNL     1       3.539   5.292  18.534  0.00  0.00    +0.000 NA
BRANCH  13  18
ATOM     18  C   UNL     1       5.899   5.530  18.108  0.00  0.00    +0.000 C 
BRANCH  18  22
ATOM     19  C   UNL     1       6.230   3.852  13.461  0.00  0.00    +0.000 C 
ATOM     20  C   UNL     1       6.377   4.545  14.753  0.00  0.00    +0.000 A 
ATOM     21  N   UNL     1       5.671   4.434  15.856  0.00  0.00    +0.000 NA
ATOM     22  C   UNL     1       6.300   5.327  16.694  0.00  0.00    +0.000 A 
ATOM     23  N   UNL     1       7.366   5.938  16.157  0.00  0.00    +0.000 NA
ATOM     24  O   UNL     1       7.411   5.427  14.858  0.00  0.00    +0.000 OA
ENDBRANCH  18  22
ENDBRANCH  13  18
ENDBRANCH   1  15
BRANCH  12  25
ATOM     25  C   UNL     1      -1.468  11.972  22.366  0.00  0.00    +0.000 C 
ATOM     26  F   UNL     1      -1.876  11.067  23.298  0.00  0.00    +0.000 F 
ATOM     27  F   UNL     1      -0.493  12.707  22.976  0.00  0.00    +0.000 F 
ATOM     28  F   UNL     1      -2.522  12.823  22.211  0.00  0.00    +0.000 F 
ENDBRANCH  12  25
TORSDOF 4
ENDMDL
MODEL 4
REMARK VINA RESULT:      -8.3      1.385      1.935
REMARK  Name = 
REMARK  5 active torsions:
REMARK  status: ('A' for Active; 'I' for Inactive)
REMARK    1  A    between atoms: C_1  and  C_2
REMARK    2  A    between atoms: C_4  and  C_5
REMARK    3  A    between atoms: C_5  and  N_6
REMARK    4  A    between atoms: C_8  and  C_9
REMARK    5  A    between atoms: C_20  and  C_21
REMARK                            x       y       z     vdW  Elec       q    Type
REMARK                         _______ _______ _______ _____ _____    ______ ____
ROOT
ATOM      1  C   UNL     1       1.962   6.662  20.028  0.00  0.00    +0.000 C 
ATOM      2  O   UNL     1       1.485   6.058  20.994  0.00  0.00    +0.000 OA
ATOM      3  N   UNL     1       1.702   8.030  19.741  0.00  0.00    +0.000 N 
ATOM      4  C   UNL     1       2.120   8.678  18.487  0.00  0.00    +0.000 C 
ATOM      5  C   UNL     1       0.961   9.349  17.801  0.00  0.00    +0.000 C 
ATOM      6  C   UNL     1       0.413  10.444  18.685  0.00  0.00    +0.000 C 
ATOM      7  C   UNL     1       0.312  10.056  20.143  0.00  0.00    +0.000 A 
ATOM      8  C   UNL     1       0.938   8.879  20.634  0.00  0.00    +0.000 A 
ATOM      9  C   UNL     1       0.813   8.574  21.999  0.00  0.00    +0.000 A 
ATOM     10  C   UNL     1       0.087   9.396  22.865  0.00  0.00    +0.000 A 
ATOM     11  C   UNL     1      -0.515  10.545  22.384  0.00  0.00    +0.000 A 
ATOM     12  C   UNL     1      -0.416  10.900  21.028  0.00  0.00    +0.000 A 
ENDROOT
BRANCH   1  15
ATOM     13  N   UNL     1       4.378   4.888  18.054  0.00  0.00    +0.000 N 
ATOM     14  C   UNL     1       4.118   5.923  18.901  0.00  0.00    +0.000 A 
ATOM     15  C   UNL     1       2.744   5.886  19.054  0.00  0.00    +0.000 A 
ATOM     16  N   UNL     1       2.235   5.005  18.130  0.00  0.00    +0.000 NA
ATOM     17  N   UNL     1       3.242   4.357  17.568  0.00  0.00    +0.000 NA
BRANCH  13  18
ATOM     18  C   UNL     1       5.652   4.413  17.574  0.00  0.00    +0.000 C 
BRANCH  18  22
ATOM     19  C   UNL     1       8.316   8.564  18.017  0.00  0.00    +0.000 C 
ATOM     20  C   UNL     1       7.660   7.315  17.591  0.00  0.00    +0.000 A 
ATOM     21  N   UNL     1       6.854   6.516  18.252  0.00  0.00    +0.000 NA
ATOM     22  C   UNL     1       6.583   5.541  17.319  0.00  0.00    +0.000 A 
ATOM     23  N   UNL     1       7.160   5.737  16.125  0.00  0.00    +0.000 NA
ATOM     24  O   UNL     1       7.889   6.914  16.308  0.00  0.00    +0.000 OA
ENDBRANCH  18  22
ENDBRANCH  13  18
ENDBRANCH   1  15
BRANCH  12  25
ATOM     25  C   UNL     1      -1.121  12.183  20.619  0.00  0.00    +0.000 C 
ATOM     26  F   UNL     1      -0.341  13.139  20.041  0.00  0.00    +0.000 F 
ATOM     27  F   UNL     1      -2.127  11.949  19.728  0.00  0.00    +0.000 F 
ATOM     28  F   UNL     1      -1.711  12.800  21.682  0.00  0.00    +0.000 F 
ENDBRANCH  12  25
TORSDOF 4
ENDMDL
MODEL 5
REMARK VINA RESULT:      -8.2      0.608      1.119
REMARK  Name = 
REMARK  5 active torsions:
REMARK  status: ('A' for Active; 'I' for Inactive)
REMARK    1  A    between atoms: C_1  and  C_2
REMARK    2  A    between atoms: C_4  and  C_5
REMARK    3  A    between atoms: C_5  and  N_6
REMARK    4  A    between atoms: C_8  and  C_9
REMARK    5  A    between atoms: C_20  and  C_21
REMARK                            x       y       z     vdW  Elec       q    Type
REMARK                         _______ _______ _______ _____ _____    ______ ____
ROOT
ATOM      1  C   UNL     1       2.532   6.452  19.728  0.00  0.00    +0.000 C 
ATOM      2  O   UNL     1       2.072   5.810  20.677  0.00  0.00    +0.000 OA
ATOM      3  N   UNL     1       2.163   7.790  19.422  0.00  0.00    +0.000 N 
ATOM      4  C   UNL     1       2.573   8.470  18.182  0.00  0.00    +0.000 C 
ATOM      5  C   UNL     1       1.388   9.033  17.445  0.00  0.00    +0.000 C 
ATOM      6  C   UNL     1       0.708  10.076  18.299  0.00  0.00    +0.000 C 
ATOM      7  C   UNL     1       0.583   9.685  19.754  0.00  0.00    +0.000 A 
ATOM      8  C   UNL     1       1.290   8.570  20.277  0.00  0.00    +0.000 A 
ATOM      9  C   UNL     1       1.137   8.259  21.638  0.00  0.00    +0.000 A 
ATOM     10  C   UNL     1       0.306   9.015  22.469  0.00  0.00    +0.000 A 
ATOM     11  C   UNL     1      -0.376  10.104  21.956  0.00  0.00    +0.000 A 
ATOM     12  C   UNL     1      -0.254  10.463  20.604  0.00  0.00    +0.000 A 
ENDROOT
BRANCH   1  15
ATOM     13  N   UNL     1       5.160   4.827  17.901  0.00  0.00    +0.000 N 
ATOM     14  C   UNL     1       4.801   5.803  18.781  0.00  0.00    +0.000 A 
ATOM     15  C   UNL     1       3.419   5.746  18.791  0.00  0.00    +0.000 A 
ATOM     16  N   UNL     1       3.019   4.923  17.766  0.00  0.00    +0.000 NA
ATOM     17  N   UNL     1       4.087   4.319  17.270  0.00  0.00    +0.000 NA
BRANCH  13  18
ATOM     18  C   UNL     1       6.482   4.394  17.524  0.00  0.00    +0.000 C 
BRANCH  18  22
ATOM     19  C   UNL     1       7.799   5.453  12.869  0.00  0.00    +0.000 C 
ATOM     20  C   UNL     1       7.235   4.900  14.114  0.00  0.00    +0.000 A 
ATOM     21  N   UNL     1       7.449   5.244  15.364  0.00  0.00    +0.000 NA
ATOM     22  C   UNL     1       6.637   4.369  16.049  0.00  0.00    +0.000 A 
ATOM     23  N   UNL     1       5.924   3.544  15.268  0.00  0.00    +0.000 NA
ATOM     24  O   UNL     1       6.331   3.889  13.977  0.00  0.00    +0.000 OA
ENDBRANCH  18  22
ENDBRANCH  13  18
ENDBRANCH   1  15
BRANCH  12  25
ATOM     25  C   UNL     1      -1.053  11.677  20.158  0.00  0.00    +0.000 C 
ATOM     26  F   UNL     1      -1.825  12.270  21.109  0.00  0.00    +0.000 F 
ATOM     27  F   UNL     1      -0.247  12.667  19.676  0.00  0.00    +0.000 F 
ATOM     28  F   UNL     1      -1.909  11.376  19.141  0.00  0.00    +0.000 F 
ENDBRANCH  12  25
TORSDOF 4
ENDMDL
MODEL 6
REMARK VINA RESULT:      -8.1      0.983      1.321
REMARK  Name = 
REMARK  5 active torsions:
REMARK  status: ('A' for Active; 'I' for Inactive)
REMARK    1  A    between atoms: C_1  and  C_2
REMARK    2  A    between atoms: C_4  and  C_5
REMARK    3  A    between atoms: C_5  and  N_6
REMARK    4  A    between atoms: C_8  and  C_9
REMARK    5  A    between atoms: C_20  and  C_21
REMARK                            x       y       z     vdW  Elec       q    Type
REMARK                         _______ _______ _______ _____ _____    ______ ____
ROOT
ATOM      1  C   UNL     1       2.466   6.078  19.952  0.00  0.00    +0.000 C 
ATOM      2  O   UNL     1       1.781   5.554  20.835  0.00  0.00    +0.000 OA
ATOM      3  N   UNL     1       2.315   7.427  19.527  0.00  0.00    +0.000 N 
ATOM      4  C   UNL     1       3.005   7.976  18.348  0.00  0.00    +0.000 C 
ATOM      5  C   UNL     1       2.036   8.615  17.391  0.00  0.00    +0.000 C 
ATOM      6  C   UNL     1       1.351   9.780  18.066  0.00  0.00    +0.000 C 
ATOM      7  C   UNL     1       0.938   9.500  19.493  0.00  0.00    +0.000 A 
ATOM      8  C   UNL     1       1.410   8.351  20.181  0.00  0.00    +0.000 A 
ATOM      9  C   UNL     1       0.995   8.147  21.507  0.00  0.00    +0.000 A 
ATOM     10  C   UNL     1       0.132   9.042  22.146  0.00  0.00    +0.000 A 
ATOM     11  C   UNL     1      -0.320  10.163  21.474  0.00  0.00    +0.000 A 
ATOM     12  C   UNL     1       0.069  10.418  20.148  0.00  0.00    +0.000 A 
ENDROOT
BRANCH   1  15
ATOM     13  N   UNL     1       4.399   4.140  17.632  0.00  0.00    +0.000 N 
ATOM     14  C   UNL     1       3.179   4.628  17.989  0.00  0.00    +0.000 A 
ATOM     15  C   UNL     1       3.408   5.221  19.217  0.00  0.00    +0.000 A 
ATOM     16  N   UNL     1       4.667   4.863  19.636  0.00  0.00    +0.000 NA
ATOM     17  N   UNL     1       5.286   4.256  18.636  0.00  0.00    +0.000 NA
BRANCH  13  18
ATOM     18  C   UNL     1       4.779   3.460  16.419  0.00  0.00    +0.000 C 
BRANCH  18  22
ATOM     19  C   UNL     1       7.770   5.175  12.864  0.00  0.00    +0.000 C 
ATOM     20  C   UNL     1       7.032   4.886  14.106  0.00  0.00    +0.000 A 
ATOM     21  N   UNL     1       6.041   4.051  14.324  0.00  0.00    +0.000 NA
ATOM     22  C   UNL     1       5.797   4.235  15.667  0.00  0.00    +0.000 A 
ATOM     23  N   UNL     1       6.616   5.113  16.266  0.00  0.00    +0.000 NA
ATOM     24  O   UNL     1       7.432   5.557  15.223  0.00  0.00    +0.000 OA
ENDBRANCH  18  22
ENDBRANCH  13  18
ENDBRANCH   1  15
BRANCH  12  25
ATOM     25  C   UNL     1      -0.494  11.681  19.516  0.00  0.00    +0.000 C 
ATOM     26  F   UNL     1      -1.208  11.511  18.369  0.00  0.00    +0.000 F 
ATOM     27  F   UNL     1      -1.327  12.347  20.366  0.00  0.00    +0.000 F 
ATOM     28  F   UNL     1       0.488  12.570  19.196  0.00  0.00    +0.000 F 
ENDBRANCH  12  25
TORSDOF 4
ENDMDL
MODEL 7
REMARK VINA RESULT:      -8.1      1.941      2.520
REMARK  Name = 
REMARK  5 active torsions:
REMARK  status: ('A' for Active; 'I' for Inactive)
REMARK    1  A    between atoms: C_1  and  C_2
REMARK    2  A    between atoms: C_4  and  C_5
REMARK    3  A    between atoms: C_5  and  N_6
REMARK    4  A    between atoms: C_8  and  C_9
REMARK    5  A    between atoms: C_20  and  C_21
REMARK                            x       y       z     vdW  Elec       q    Type
REMARK                         _______ _______ _______ _____ _____    ______ ____
ROOT
ATOM      1  C   UNL     1       1.911   7.029  20.005  0.00  0.00    +0.000 C 
ATOM      2  O   UNL     1       1.560   6.340  20.969  0.00  0.00    +0.000 OA
ATOM      3  N   UNL     1       1.505   8.377  19.806  0.00  0.00    +0.000 N 
ATOM      4  C   UNL     1       1.773   9.117  18.561  0.00  0.00    +0.000 C 
ATOM      5  C   UNL     1       0.512   9.703  17.986  0.00  0.00    +0.000 C 
ATOM      6  C   UNL     1      -0.073  10.699  18.957  0.00  0.00    +0.000 C 
ATOM      7  C   UNL     1      -0.036  10.240  20.398  0.00  0.00    +0.000 A 
ATOM      8  C   UNL     1       0.729   9.109  20.787  0.00  0.00    +0.000 A 
ATOM      9  C   UNL     1       0.728   8.733  22.140  0.00  0.00    +0.000 A 
ATOM     10  C   UNL     1      -0.010   9.443  23.092  0.00  0.00    +0.000 A 
ATOM     11  C   UNL     1      -0.749  10.548  22.709  0.00  0.00    +0.000 A 
ATOM     12  C   UNL     1      -0.777  10.971  21.370  0.00  0.00    +0.000 A 
ENDROOT
BRANCH   1  15
ATOM     13  N   UNL     1       4.334   5.735  17.697  0.00  0.00    +0.000 N 
ATOM     14  C   UNL     1       3.946   6.759  18.506  0.00  0.00    +0.000 A 
ATOM     15  C   UNL     1       2.692   6.376  18.945  0.00  0.00    +0.000 A 
ATOM     16  N   UNL     1       2.299   5.283  18.211  0.00  0.00    +0.000 NA
ATOM     17  N   UNL     1       3.331   4.863  17.497  0.00  0.00    +0.000 NA
BRANCH  13  18
ATOM     18  C   UNL     1       5.581   5.563  16.995  0.00  0.00    +0.000 C 
BRANCH  18  22
ATOM     19  C   UNL     1       8.580   9.391  17.931  0.00  0.00    +0.000 C 
ATOM     20  C   UNL     1       7.868   8.102  17.878  0.00  0.00    +0.000 A 
ATOM     21  N   UNL     1       6.808   7.750  17.185  0.00  0.00    +0.000 NA
ATOM     22  C   UNL     1       6.640   6.436  17.560  0.00  0.00    +0.000 A 
ATOM     23  N   UNL     1       7.566   5.978  18.414  0.00  0.00    +0.000 NA
ATOM     24  O   UNL     1       8.379   7.091  18.637  0.00  0.00    +0.000 OA
ENDBRANCH  18  22
ENDBRANCH  13  18
ENDBRANCH   1  15
BRANCH  12  25
ATOM     25  C   UNL     1      -1.625  12.197  21.072  0.00  0.00    +0.000 C 
ATOM     26  F   UNL     1      -2.601  12.039  20.136  0.00  0.00    +0.000 F 
ATOM     27  F   UNL     1      -2.263  12.657  22.187  0.00  0.00    +0.000 F 
ATOM     28  F   UNL     1      -0.870  13.241  20.627  0.00  0.00    +0.000 F 
ENDBRANCH  12  25
TORSDOF 4
ENDMDL
MODEL 8
REMARK VINA RESULT:      -7.9      1.418      2.057
REMARK  Name = 
REMARK  5 active torsions:
REMARK  status: ('A' for Active; 'I' for Inactive)
REMARK    1  A    between atoms: C_1  and  C_2
REMARK    2  A    between atoms: C_4  and  C_5
REMARK    3  A    between atoms: C_5  and  N_6
REMARK    4  A    between atoms: C_8  and  C_9
REMARK    5  A    between atoms: C_20  and  C_21
REMARK                            x       y       z     vdW  Elec       q    Type
REMARK                         _______ _______ _______ _____ _____    ______ ____
ROOT
ATOM      1  C   UNL     1       2.182   6.113  20.189  0.00  0.00    +0.000 C 
ATOM      2  O   UNL     1       1.504   5.642  21.108  0.00  0.00    +0.000 OA
ATOM      3  N   UNL     1       2.078   7.456  19.735  0.00  0.00    +0.000 N 
ATOM      4  C   UNL     1       2.752   7.943  18.520  0.00  0.00    +0.000 C 
ATOM      5  C   UNL     1       1.781   8.604  17.579  0.00  0.00    +0.000 C 
ATOM      6  C   UNL     1       1.173   9.815  18.245  0.00  0.00    +0.000 C 
ATOM      7  C   UNL     1       0.796   9.589  19.692  0.00  0.00    +0.000 A 
ATOM      8  C   UNL     1       1.239   8.437  20.394  0.00  0.00    +0.000 A 
ATOM      9  C   UNL     1       0.860   8.284  21.738  0.00  0.00    +0.000 A 
ATOM     10  C   UNL     1       0.061   9.234  22.381  0.00  0.00    +0.000 A 
ATOM     11  C   UNL     1      -0.363  10.358  21.695  0.00  0.00    +0.000 A 
ATOM     12  C   UNL     1      -0.007  10.563  20.351  0.00  0.00    +0.000 A 
ENDROOT
BRANCH   1  15
ATOM     13  N   UNL     1       4.557   4.422  18.097  0.00  0.00    +0.000 N 
ATOM     14  C   UNL     1       3.711   5.477  18.260  0.00  0.00    +0.000 A 
ATOM     15  C   UNL     1       3.058   5.195  19.446  0.00  0.00    +0.000 A 
ATOM     16  N   UNL     1       3.364   3.904  19.806  0.00  0.00    +0.000 NA
ATOM     17  N   UNL     1       4.326   3.464  19.011  0.00  0.00    +0.000 NA
BRANCH  13  18
ATOM     18  C   UNL     1       5.526   4.195  17.053  0.00  0.00    +0.000 C 
BRANCH  18  22
ATOM     19  C   UNL     1       8.140   8.297  17.983  0.00  0.00    +0.000 C 
ATOM     20  C   UNL     1       7.530   7.077  17.427  0.00  0.00    +0.000 A 
ATOM     21  N   UNL     1       6.655   6.252  17.959  0.00  0.00    +0.000 NA
ATOM     22  C   UNL     1       6.482   5.326  16.955  0.00  0.00    +0.000 A 
ATOM     23  N   UNL     1       7.182   5.577  15.840  0.00  0.00    +0.000 NA
ATOM     24  O   UNL     1       7.891   6.737  16.157  0.00  0.00    +0.000 OA
ENDBRANCH  18  22
ENDBRANCH  13  18
ENDBRANCH   1  15
BRANCH  12  25
ATOM     25  C   UNL     1      -0.533  11.834  19.705  0.00  0.00    +0.000 C 
ATOM     26  F   UNL     1      -1.288  11.670  18.583  0.00  0.00    +0.000 F 
ATOM     27  F   UNL     1      -1.311  12.556  20.563  0.00  0.00    +0.000 F 
ATOM     28  F   UNL     1       0.477  12.672  19.336  0.00  0.00    +0.000 F 
ENDBRANCH  12  25
TORSDOF 4
ENDMDL
MODEL 9
REMARK VINA RESULT:      -7.9      4.942      9.523
REMARK  Name = 
REMARK  5 active torsions:
REMARK  status: ('A' for Active; 'I' for Inactive)
REMARK    1  A    between atoms: C_1  and  C_2
REMARK    2  A    between atoms: C_4  and  C_5
REMARK    3  A    between atoms: C_5  and  N_6
REMARK    4  A    between atoms: C_8  and  C_9
REMARK    5  A    between atoms: C_20  and  C_21
REMARK                            x       y       z     vdW  Elec       q    Type
REMARK                         _______ _______ _______ _____ _____    ______ ____
ROOT
ATOM      1  C   UNL     1       1.036   8.973  20.907  0.00  0.00    +0.000 C 
ATOM      2  O   UNL     1       1.121   8.521  22.053  0.00  0.00    +0.000 OA
ATOM      3  N   UNL     1       1.517   8.298  19.751  0.00  0.00    +0.000 N 
ATOM      4  C   UNL     1       1.581   8.932  18.424  0.00  0.00    +0.000 C 
ATOM      5  C   UNL     1       2.960   8.831  17.831  0.00  0.00    +0.000 C 
ATOM      6  C   UNL     1       3.320   7.379  17.629  0.00  0.00    +0.000 C 
ATOM      7  C   UNL     1       2.921   6.486  18.781  0.00  0.00    +0.000 A 
ATOM      8  C   UNL     1       2.051   6.952  19.803  0.00  0.00    +0.000 A 
ATOM      9  C   UNL     1       1.713   6.075  20.846  0.00  0.00    +0.000 A 
ATOM     10  C   UNL     1       2.217   4.772  20.894  0.00  0.00    +0.000 A 
ATOM     11  C   UNL     1       3.058   4.320  19.893  0.00  0.00    +0.000 A 
ATOM     12  C   UNL     1       3.423   5.154  18.824  0.00  0.00    +0.000 A 
ENDROOT
BRANCH   1  15
ATOM     13  N   UNL     1      -0.822  12.018  20.517  0.00  0.00    +0.000 N 
ATOM     14  C   UNL     1      -0.733  10.683  20.265  0.00  0.00    +0.000 A 
ATOM     15  C   UNL     1       0.517  10.339  20.746  0.00  0.00    +0.000 A 
ATOM     16  N   UNL     1       1.195  11.498  21.040  0.00  0.00    +0.000 NA
ATOM     17  N   UNL     1       0.349  12.512  20.956  0.00  0.00    +0.000 NA
BRANCH  13  18
ATOM     18  C   UNL     1      -1.927  12.911  20.274  0.00  0.00    +0.000 C 
BRANCH  18  22
ATOM     19  C   UNL     1      -4.248  12.502  24.630  0.00  0.00    +0.000 C 
ATOM     20  C   UNL     1      -3.858  12.596  23.212  0.00  0.00    +0.000 A 
ATOM     21  N   UNL     1      -2.677  12.801  22.672  0.00  0.00    +0.000 NA
ATOM     22  C   UNL     1      -2.965  12.778  21.326  0.00  0.00    +0.000 A 
ATOM     23  N   UNL     1      -4.252  12.536  21.037  0.00  0.00    +0.000 NA
ATOM     24  O   UNL     1      -4.851  12.427  22.293  0.00  0.00    +0.000 OA
ENDBRANCH  18  22
ENDBRANCH  13  18
ENDBRANCH   1  15
BRANCH  12  25
ATOM     25  C   UNL     1       4.353   4.545  17.787  0.00  0.00    +0.000 C 
ATOM     26  F   UNL     1       3.884   4.505  16.509  0.00  0.00    +0.000 F 
ATOM     27  F   UNL     1       5.542   5.212  17.716  0.00  0.00    +0.000 F 
ATOM     28  F   UNL     1       4.676   3.256  18.089  0.00  0.00    +0.000 F 
ENDBRANCH  12  25
TORSDOF 4
ENDMDL
