MODEL 1
REMARK VINA RESULT:      -7.8      0.000      0.000
REMARK  Name = 
REMARK  7 active torsions:
REMARK  status: ('A' for Active; 'I' for Inactive)
REMARK    1  A    between atoms: C_1  and  C_2
REMARK    2  A    between atoms: C_2  and  S_3
REMARK    3  A    between atoms: C_2  and  C_10
REMARK    4  A    between atoms: S_3  and  C_4
REMARK    5  A    between atoms: N_8  and  C_9
REMARK    6  A    between atoms: C_14  and  N_15
REMARK    7  A    between atoms: C_16  and  C_18
REMARK                            x       y       z     vdW  Elec       q    Type
REMARK                         _______ _______ _______ _____ _____    ______ ____
ROOT
ATOM      1  C   UNL     1       0.706   9.209  20.363  0.00  0.00    +0.000 A 
ATOM      2  C   UNL     1       0.543   9.947  19.179  0.00  0.00    +0.000 A 
ATOM      3  C   UNL     1       1.166   9.549  18.002  0.00  0.00    +0.000 A 
ATOM      4  C   UNL     1       2.004   8.434  17.986  0.00  0.00    +0.000 A 
ATOM      5  C   UNL     1       2.259   7.695  19.143  0.00  0.00    +0.000 A 
ATOM      6  C   UNL     1       1.565   8.069  20.324  0.00  0.00    +0.000 A 
ENDROOT
BRANCH   5   7
ATOM      7  N   UNL     1       3.188   6.605  19.149  0.00  0.00    +0.000 N 
ATOM      8  C   UNL     1       2.887   5.231  19.181  0.00  0.00    +0.000 C 
ATOM      9  O   UNL     1       1.759   4.747  19.147  0.00  0.00    +0.000 OA
ATOM     10  H   UNL     1       4.176   6.830  19.178  0.00  0.00    +0.000 HD
BRANCH   8  11
ATOM     11  C   UNL     1       4.188   4.351  19.461  0.00  0.00    +0.000 C 
ATOM     12  C   UNL     1       5.387   4.717  18.926  0.00  0.00    +0.000 A 
ATOM     13  C   UNL     1       6.668   5.132  18.275  0.00  0.00    +0.000 A 
ATOM     14  C   UNL     1       6.817   5.347  16.958  0.00  0.00    +0.000 A 
ATOM     15  C   UNL     1       5.720   5.093  16.049  0.00  0.00    +0.000 A 
ATOM     16  C   UNL     1       4.765   4.231  16.409  0.00  0.00    +0.000 A 
ATOM     17  C   UNL     1       4.754   3.911  17.819  0.00  0.00    +0.000 A 
ATOM     18  N   UNL     1       4.145   3.173  18.646  0.00  0.00    +0.000 NA
ENDBRANCH   8  11
ENDBRANCH   5   7
BRANCH   1  20
ATOM     19  C   UNL     1       0.612   9.312  22.935  0.00  0.00    +0.000 C 
ATOM     20  C   UNL     1      -0.019   9.743  21.613  0.00  0.00    +0.000 C 
BRANCH  20  21
ATOM     21  S   UNL     1      -0.131  11.574  21.517  0.00  0.00    +0.000 S 
BRANCH  21  22
ATOM     22  C   UNL     1      -1.695  11.942  22.163  0.00  0.00    +0.000 A 
ATOM     23  N   UNL     1      -2.171  11.669  23.357  0.00  0.00    +0.000 NA
ATOM     24  N   UNL     1      -3.482  12.115  23.399  0.00  0.00    +0.000 NA
ATOM     25  C   UNL     1      -3.761  12.641  22.228  0.00  0.00    +0.000 A 
ATOM     26  N   UNL     1      -2.662  12.570  21.427  0.00  0.00    +0.000 N 
ATOM     27  C   UNL     1      -2.555  13.084  20.089  0.00  0.00    +0.000 C 
ENDBRANCH  21  22
ENDBRANCH  20  21
ENDBRANCH   1  20
TORSDOF 5
ENDMDL
MODEL 2
REMARK VINA RESULT:      -7.8      2.746      9.239
REMARK  Name = 
REMARK  7 active torsions:
REMARK  status: ('A' for Active; 'I' for Inactive)
REMARK    1  A    between atoms: C_1  and  C_2
REMARK    2  A    between atoms: C_2  and  S_3
REMARK    3  A    between atoms: C_2  and  C_10
REMARK    4  A    between atoms: S_3  and  C_4
REMARK    5  A    between atoms: N_8  and  C_9
REMARK    6  A    between atoms: C_14  and  N_15
REMARK    7  A    between atoms: C_16  and  C_18
REMARK                            x       y       z     vdW  Elec       q    Type
REMARK                         _______ _______ _______ _____ _____    ______ ____
ROOT
ATOM      1  C   UNL     1       2.725   6.757  19.372  0.00  0.00    +0.000 A 
ATOM      2  C   UNL     1       3.081   7.139  18.068  0.00  0.00    +0.000 A 
ATOM      3  C   UNL     1       2.649   8.350  17.538  0.00  0.00    +0.000 A 
ATOM      4  C   UNL     1       1.813   9.188  18.276  0.00  0.00    +0.000 A 
ATOM      5  C   UNL     1       1.369   8.837  19.553  0.00  0.00    +0.000 A 
ATOM      6  C   UNL     1       1.870   7.630  20.111  0.00  0.00    +0.000 A 
ENDROOT
BRANCH   5   7
ATOM      7  N   UNL     1       0.439   9.652  20.276  0.00  0.00    +0.000 N 
ATOM      8  C   UNL     1       0.545  10.083  21.610  0.00  0.00    +0.000 C 
ATOM      9  O   UNL     1       1.499   9.873  22.355  0.00  0.00    +0.000 OA
ATOM     10  H   UNL     1      -0.416   9.919  19.803  0.00  0.00    +0.000 HD
BRANCH   8  11
ATOM     11  C   UNL     1      -0.818  10.731  22.128  0.00  0.00    +0.000 C 
ATOM     12  C   UNL     1      -1.469  11.652  21.363  0.00  0.00    +0.000 A 
ATOM     13  C   UNL     1      -2.119  12.695  20.511  0.00  0.00    +0.000 A 
ATOM     14  C   UNL     1      -1.502  13.796  20.055  0.00  0.00    +0.000 A 
ATOM     15  C   UNL     1      -0.141  14.089  20.453  0.00  0.00    +0.000 A 
ATOM     16  C   UNL     1       0.326  13.571  21.592  0.00  0.00    +0.000 A 
ATOM     17  C   UNL     1      -0.472  12.488  22.124  0.00  0.00    +0.000 A 
ATOM     18  N   UNL     1      -0.523  11.717  23.125  0.00  0.00    +0.000 NA
ENDBRANCH   8  11
ENDBRANCH   5   7
BRANCH   1  20
ATOM     19  C   UNL     1       2.290   4.649  20.787  0.00  0.00    +0.000 C 
ATOM     20  C   UNL     1       3.246   5.391  19.857  0.00  0.00    +0.000 C 
BRANCH  20  21
ATOM     21  S   UNL     1       3.674   4.351  18.404  0.00  0.00    +0.000 S 
BRANCH  21  22
ATOM     22  C   UNL     1       5.395   4.491  18.268  0.00  0.00    +0.000 A 
ATOM     23  N   UNL     1       6.275   4.704  19.220  0.00  0.00    +0.000 NA
ATOM     24  N   UNL     1       7.524   4.786  18.627  0.00  0.00    +0.000 NA
ATOM     25  C   UNL     1       7.362   4.623  17.333  0.00  0.00    +0.000 A 
ATOM     26  N   UNL     1       6.042   4.417  17.065  0.00  0.00    +0.000 N 
ATOM     27  C   UNL     1       5.472   4.150  15.773  0.00  0.00    +0.000 C 
ENDBRANCH  21  22
ENDBRANCH  20  21
ENDBRANCH   1  20
TORSDOF 5
ENDMDL
MODEL 3
REMARK VINA RESULT:      -7.7      3.065      9.035
REMARK  Name = 
REMARK  7 active torsions:
REMARK  status: ('A' for Active; 'I' for Inactive)
REMARK    1  A    between atoms: C_1  and  C_2
REMARK    2  A    between atoms: C_2  and  S_3
REMARK    3  A    between atoms: C_2  and  C_10
REMARK    4  A    between atoms: S_3  and  C_4
REMARK    5  A    between atoms: N_8  and  C_9
REMARK    6  A    between atoms: C_14  and  N_15
REMARK    7  A    between atoms: C_16  and  C_18
REMARK                            x       y       z     vdW  Elec       q    Type
REMARK                         _______ _______ _______ _____ _____    ______ ____
ROOT
ATOM      1  C   UNL     1       2.698   5.721  18.696  0.00  0.00    +0.000 A 
ATOM      2  C   UNL     1       2.229   4.519  19.251  0.00  0.00    +0.000 A 
ATOM      3  C   UNL     1       1.471   4.521  20.416  0.00  0.00    +0.000 A 
ATOM      4  C   UNL     1       1.201   5.716  21.083  0.00  0.00    +0.000 A 
ATOM      5  C   UNL     1       1.692   6.938  20.620  0.00  0.00    +0.000 A 
ATOM      6  C   UNL     1       2.408   6.934  19.393  0.00  0.00    +0.000 A 
ENDROOT
BRANCH   5   7
ATOM      7  N   UNL     1       1.493   8.154  21.351  0.00  0.00    +0.000 N 
ATOM      8  C   UNL     1       0.269   8.692  21.787  0.00  0.00    +0.000 C 
ATOM      9  O   UNL     1      -0.831   8.162  21.658  0.00  0.00    +0.000 OA
ATOM     10  H   UNL     1       2.308   8.723  21.546  0.00  0.00    +0.000 HD
BRANCH   8  11
ATOM     11  C   UNL     1       0.440  10.189  22.315  0.00  0.00    +0.000 C 
ATOM     12  C   UNL     1      -0.572  11.087  22.157  0.00  0.00    +0.000 A 
ATOM     13  C   UNL     1      -1.691  12.049  21.915  0.00  0.00    +0.000 A 
ATOM     14  C   UNL     1      -2.239  12.292  20.713  0.00  0.00    +0.000 A 
ATOM     15  C   UNL     1      -1.693  11.674  19.525  0.00  0.00    +0.000 A 
ATOM     16  C   UNL     1      -0.419  11.270  19.530  0.00  0.00    +0.000 A 
ATOM     17  C   UNL     1       0.170  11.181  20.848  0.00  0.00    +0.000 A 
ATOM     18  N   UNL     1       1.274  10.916  21.405  0.00  0.00    +0.000 NA
ENDBRANCH   8  11
ENDBRANCH   5   7
BRANCH   1  20
ATOM     19  C   UNL     1       4.363   6.849  17.086  0.00  0.00    +0.000 C 
ATOM     20  C   UNL     1       3.539   5.606  17.411  0.00  0.00    +0.000 C 
BRANCH  20  21
ATOM     21  S   UNL     1       4.620   4.124  17.521  0.00  0.00    +0.000 S 
BRANCH  21  22
ATOM     22  C   UNL     1       6.009   4.672  18.401  0.00  0.00    +0.000 A 
ATOM     23  N   UNL     1       6.117   4.916  19.687  0.00  0.00    +0.000 NA
ATOM     24  N   UNL     1       7.401   5.378  19.920  0.00  0.00    +0.000 NA
ATOM     25  C   UNL     1       8.032   5.402  18.767  0.00  0.00    +0.000 A 
ATOM     26  N   UNL     1       7.200   4.950  17.788  0.00  0.00    +0.000 N 
ATOM     27  C   UNL     1       7.538   4.781  16.402  0.00  0.00    +0.000 C 
ENDBRANCH  21  22
ENDBRANCH  20  21
ENDBRANCH   1  20
TORSDOF 5
ENDMDL
MODEL 4
REMARK VINA RESULT:      -7.6      0.715      1.268
REMARK  Name = 
REMARK  7 active torsions:
REMARK  status: ('A' for Active; 'I' for Inactive)
REMARK    1  A    between atoms: C_1  and  C_2
REMARK    2  A    between atoms: C_2  and  S_3
REMARK    3  A    between atoms: C_2  and  C_10
REMARK    4  A    between atoms: S_3  and  C_4
REMARK    5  A    between atoms: N_8  and  C_9
REMARK    6  A    between atoms: C_14  and  N_15
REMARK    7  A    between atoms: C_16  and  C_18
REMARK                            x       y       z     vdW  Elec       q    Type
REMARK                         _______ _______ _______ _____ _____    ______ ____
ROOT
ATOM      1  C   UNL     1       0.670   9.329  20.212  0.00  0.00    +0.000 A 
ATOM      2  C   UNL     1       0.575  10.082  19.031  0.00  0.00    +0.000 A 
ATOM      3  C   UNL     1       1.234   9.680  17.875  0.00  0.00    +0.000 A 
ATOM      4  C   UNL     1       2.043   8.543  17.881  0.00  0.00    +0.000 A 
ATOM      5  C   UNL     1       2.232   7.787  19.039  0.00  0.00    +0.000 A 
ATOM      6  C   UNL     1       1.501   8.167  20.196  0.00  0.00    +0.000 A 
ENDROOT
BRANCH   5   7
ATOM      7  N   UNL     1       3.132   6.673  19.071  0.00  0.00    +0.000 N 
ATOM      8  C   UNL     1       2.872   5.357  18.647  0.00  0.00    +0.000 C 
ATOM      9  O   UNL     1       1.833   4.969  18.119  0.00  0.00    +0.000 OA
ATOM     10  H   UNL     1       4.047   6.820  19.481  0.00  0.00    +0.000 HD
BRANCH   8  11
ATOM     11  C   UNL     1       4.025   4.354  19.105  0.00  0.00    +0.000 C 
ATOM     12  C   UNL     1       5.316   4.584  18.733  0.00  0.00    +0.000 A 
ATOM     13  C   UNL     1       6.708   4.852  18.257  0.00  0.00    +0.000 A 
ATOM     14  C   UNL     1       7.053   5.024  16.971  0.00  0.00    +0.000 A 
ATOM     15  C   UNL     1       6.066   4.866  15.924  0.00  0.00    +0.000 A 
ATOM     16  C   UNL     1       4.987   4.114  16.158  0.00  0.00    +0.000 A 
ATOM     17  C   UNL     1       4.756   3.825  17.556  0.00  0.00    +0.000 A 
ATOM     18  N   UNL     1       3.968   3.171  18.298  0.00  0.00    +0.000 NA
ENDBRANCH   8  11
ENDBRANCH   5   7
BRANCH   1  20
ATOM     19  C   UNL     1       0.435   9.357  22.778  0.00  0.00    +0.000 C 
ATOM     20  C   UNL     1      -0.090   9.870  21.439  0.00  0.00    +0.000 C 
BRANCH  20  21
ATOM     21  S   UNL     1      -0.080  11.706  21.400  0.00  0.00    +0.000 S 
BRANCH  21  22
ATOM     22  C   UNL     1      -1.711  12.135  21.004  0.00  0.00    +0.000 A 
ATOM     23  N   UNL     1      -2.242  12.324  19.818  0.00  0.00    +0.000 NA
ATOM     24  N   UNL     1      -3.562  12.698  20.002  0.00  0.00    +0.000 NA
ATOM     25  C   UNL     1      -3.791  12.728  21.296  0.00  0.00    +0.000 A 
ATOM     26  N   UNL     1      -2.660  12.364  21.963  0.00  0.00    +0.000 N 
ATOM     27  C   UNL     1      -2.524  12.228  23.387  0.00  0.00    +0.000 C 
ENDBRANCH  21  22
ENDBRANCH  20  21
ENDBRANCH   1  20
TORSDOF 5
ENDMDL
MODEL 5
REMARK VINA RESULT:      -7.6      1.804      2.986
REMARK  Name = 
REMARK  7 active torsions:
REMARK  status: ('A' for Active; 'I' for Inactive)
REMARK    1  A    between atoms: C_1  and  C_2
REMARK    2  A    between atoms: C_2  and  S_3
REMARK    3  A    between atoms: C_2  and  C_10
REMARK    4  A    between atoms: S_3  and  C_4
REMARK    5  A    between atoms: N_8  and  C_9
REMARK    6  A    between atoms: C_14  and  N_15
REMARK    7  A    between atoms: C_16  and  C_18
REMARK                            x       y       z     vdW  Elec       q    Type
REMARK                         _______ _______ _______ _____ _____    ______ ____
ROOT
ATOM      1  C   UNL     1       1.311   8.925  19.932  0.00  0.00    +0.000 A 
ATOM      2  C   UNL     1       1.591   9.752  18.831  0.00  0.00    +0.000 A 
ATOM      3  C   UNL     1       2.230   9.245  17.705  0.00  0.00    +0.000 A 
ATOM      4  C   UNL     1       2.648   7.915  17.667  0.00  0.00    +0.000 A 
ATOM      5  C   UNL     1       2.459   7.058  18.752  0.00  0.00    +0.000 A 
ATOM      6  C   UNL     1       1.745   7.566  19.871  0.00  0.00    +0.000 A 
ENDROOT
BRANCH   5   7
ATOM      7  N   UNL     1       2.967   5.719  18.750  0.00  0.00    +0.000 N 
ATOM      8  C   UNL     1       4.299   5.315  18.953  0.00  0.00    +0.000 C 
ATOM      9  O   UNL     1       5.237   6.059  19.228  0.00  0.00    +0.000 OA
ATOM     10  H   UNL     1       2.317   4.971  18.537  0.00  0.00    +0.000 HD
BRANCH   8  11
ATOM     11  C   UNL     1       4.506   3.773  18.596  0.00  0.00    +0.000 C 
ATOM     12  C   UNL     1       3.424   2.968  18.401  0.00  0.00    +0.000 A 
ATOM     13  C   UNL     1       2.206   2.114  18.246  0.00  0.00    +0.000 A 
ATOM     14  C   UNL     1       1.231   2.007  19.162  0.00  0.00    +0.000 A 
ATOM     15  C   UNL     1       1.355   2.674  20.440  0.00  0.00    +0.000 A 
ATOM     16  C   UNL     1       2.572   2.980  20.897  0.00  0.00    +0.000 A 
ATOM     17  C   UNL     1       3.614   2.922  19.896  0.00  0.00    +0.000 A 
ATOM     18  N   UNL     1       4.866   3.059  19.785  0.00  0.00    +0.000 NA
ENDBRANCH   8  11
ENDBRANCH   5   7
BRANCH   1  20
ATOM     19  C   UNL     1       1.160   9.165  22.492  0.00  0.00    +0.000 C 
ATOM     20  C   UNL     1       0.611   9.589  21.132  0.00  0.00    +0.000 C 
BRANCH  20  21
ATOM     21  S   UNL     1       0.683  11.415  20.946  0.00  0.00    +0.000 S 
BRANCH  21  22
ATOM     22  C   UNL     1      -0.961  11.883  20.668  0.00  0.00    +0.000 A 
ATOM     23  N   UNL     1      -1.656  11.806  19.556  0.00  0.00    +0.000 NA
ATOM     24  N   UNL     1      -2.908  12.342  19.804  0.00  0.00    +0.000 NA
ATOM     25  C   UNL     1      -2.933  12.732  21.059  0.00  0.00    +0.000 A 
ATOM     26  N   UNL     1      -1.737  12.446  21.644  0.00  0.00    +0.000 N 
ATOM     27  C   UNL     1      -1.393  12.674  23.021  0.00  0.00    +0.000 C 
ENDBRANCH  21  22
ENDBRANCH  20  21
ENDBRANCH   1  20
TORSDOF 5
ENDMDL
MODEL 6
REMARK VINA RESULT:      -7.5      2.956      9.159
REMARK  Name = 
REMARK  7 active torsions:
REMARK  status: ('A' for Active; 'I' for Inactive)
REMARK    1  A    between atoms: C_1  and  C_2
REMARK    2  A    between atoms: C_2  and  S_3
REMARK    3  A    between atoms: C_2  and  C_10
REMARK    4  A    between atoms: S_3  and  C_4
REMARK    5  A    between atoms: N_8  and  C_9
REMARK    6  A    between atoms: C_14  and  N_15
REMARK    7  A    between atoms: C_16  and  C_18
REMARK                            x       y       z     vdW  Elec       q    Type
REMARK                         _______ _______ _______ _____ _____    ______ ____
ROOT
ATOM      1  C   UNL     1       2.677   6.602  19.437  0.00  0.00    +0.000 A 
ATOM      2  C   UNL     1       2.929   6.946  18.099  0.00  0.00    +0.000 A 
ATOM      3  C   UNL     1       2.523   8.175  17.592  0.00  0.00    +0.000 A 
ATOM      4  C   UNL     1       1.814   9.072  18.392  0.00  0.00    +0.000 A 
ATOM      5  C   UNL     1       1.476   8.764  19.711  0.00  0.00    +0.000 A 
ATOM      6  C   UNL     1       1.953   7.535  20.240  0.00  0.00    +0.000 A 
ENDROOT
BRANCH   5   7
ATOM      7  N   UNL     1       0.671   9.644  20.506  0.00  0.00    +0.000 N 
ATOM      8  C   UNL     1      -0.515  10.292  20.119  0.00  0.00    +0.000 C 
ATOM      9  O   UNL     1      -1.086  10.152  19.041  0.00  0.00    +0.000 OA
ATOM     10  H   UNL     1       1.002   9.869  21.436  0.00  0.00    +0.000 HD
BRANCH   8  11
ATOM     11  C   UNL     1      -0.954  11.398  21.183  0.00  0.00    +0.000 C 
ATOM     12  C   UNL     1      -1.217  12.671  20.773  0.00  0.00    +0.000 A 
ATOM     13  C   UNL     1      -1.446  14.064  20.281  0.00  0.00    +0.000 A 
ATOM     14  C   UNL     1      -0.559  14.774  19.566  0.00  0.00    +0.000 A 
ATOM     15  C   UNL     1       0.757  14.236  19.296  0.00  0.00    +0.000 A 
ATOM     16  C   UNL     1       1.256  13.304  20.112  0.00  0.00    +0.000 A 
ATOM     17  C   UNL     1       0.277  12.684  20.976  0.00  0.00    +0.000 A 
ATOM     18  N   UNL     1       0.201  11.835  21.910  0.00  0.00    +0.000 NA
ENDBRANCH   8  11
ENDBRANCH   5   7
BRANCH   1  20
ATOM     19  C   UNL     1       2.158   4.455  20.763  0.00  0.00    +0.000 C 
ATOM     20  C   UNL     1       3.159   5.211  19.893  0.00  0.00    +0.000 C 
BRANCH  20  21
ATOM     21  S   UNL     1       3.619   4.213  18.421  0.00  0.00    +0.000 S 
BRANCH  21  22
ATOM     22  C   UNL     1       5.338   4.396  18.300  0.00  0.00    +0.000 A 
ATOM     23  N   UNL     1       6.210   4.574  19.265  0.00  0.00    +0.000 NA
ATOM     24  N   UNL     1       7.459   4.715  18.683  0.00  0.00    +0.000 NA
ATOM     25  C   UNL     1       7.304   4.621  17.381  0.00  0.00    +0.000 A 
ATOM     26  N   UNL     1       5.990   4.402  17.098  0.00  0.00    +0.000 N 
ATOM     27  C   UNL     1       5.429   4.195  15.791  0.00  0.00    +0.000 C 
ENDBRANCH  21  22
ENDBRANCH  20  21
ENDBRANCH   1  20
TORSDOF 5
ENDMDL
MODEL 7
REMARK VINA RESULT:      -7.5      1.776      2.835
REMARK  Name = 
REMARK  7 active torsions:
REMARK  status: ('A' for Active; 'I' for Inactive)
REMARK    1  A    between atoms: C_1  and  C_2
REMARK    2  A    between atoms: C_2  and  S_3
REMARK    3  A    between atoms: C_2  and  C_10
REMARK    4  A    between atoms: S_3  and  C_4
REMARK    5  A    between atoms: N_8  and  C_9
REMARK    6  A    between atoms: C_14  and  N_15
REMARK    7  A    between atoms: C_16  and  C_18
REMARK                            x       y       z     vdW  Elec       q    Type
REMARK                         _______ _______ _______ _____ _____    ______ ____
ROOT
ATOM      1  C   UNL     1       1.261   8.986  19.900  0.00  0.00    +0.000 A 
ATOM      2  C   UNL     1       1.558   9.817  18.808  0.00  0.00    +0.000 A 
ATOM      3  C   UNL     1       2.211   9.314  17.688  0.00  0.00    +0.000 A 
ATOM      4  C   UNL     1       2.626   7.982  17.649  0.00  0.00    +0.000 A 
ATOM      5  C   UNL     1       2.419   7.121  18.727  0.00  0.00    +0.000 A 
ATOM      6  C   UNL     1       1.692   7.625  19.838  0.00  0.00    +0.000 A 
ENDROOT
BRANCH   5   7
ATOM      7  N   UNL     1       2.923   5.780  18.725  0.00  0.00    +0.000 N 
ATOM      8  C   UNL     1       4.252   5.371  18.935  0.00  0.00    +0.000 C 
ATOM      9  O   UNL     1       5.191   6.111  19.217  0.00  0.00    +0.000 OA
ATOM     10  H   UNL     1       2.272   5.034  18.507  0.00  0.00    +0.000 HD
BRANCH   8  11
ATOM     11  C   UNL     1       4.456   3.830  18.576  0.00  0.00    +0.000 C 
ATOM     12  C   UNL     1       3.373   3.021  18.401  0.00  0.00    +0.000 A 
ATOM     13  C   UNL     1       2.155   2.165  18.269  0.00  0.00    +0.000 A 
ATOM     14  C   UNL     1       1.196   2.057  19.204  0.00  0.00    +0.000 A 
ATOM     15  C   UNL     1       1.341   2.726  20.479  0.00  0.00    +0.000 A 
ATOM     16  C   UNL     1       2.566   3.035  20.913  0.00  0.00    +0.000 A 
ATOM     17  C   UNL     1       3.590   2.978  19.893  0.00  0.00    +0.000 A 
ATOM     18  N   UNL     1       4.840   3.117  19.759  0.00  0.00    +0.000 NA
ENDBRANCH   8  11
ENDBRANCH   5   7
BRANCH   1  20
ATOM     19  C   UNL     1       1.065   9.200  22.460  0.00  0.00    +0.000 C 
ATOM     20  C   UNL     1       0.547   9.646  21.095  0.00  0.00    +0.000 C 
BRANCH  20  21
ATOM     21  S   UNL     1       0.647  11.473  20.930  0.00  0.00    +0.000 S 
BRANCH  21  22
ATOM     22  C   UNL     1      -1.004  11.997  20.952  0.00  0.00    +0.000 A 
ATOM     23  N   UNL     1      -1.800  12.147  21.985  0.00  0.00    +0.000 NA
ATOM     24  N   UNL     1      -3.040  12.538  21.508  0.00  0.00    +0.000 NA
ATOM     25  C   UNL     1      -2.958  12.609  20.198  0.00  0.00    +0.000 A 
ATOM     26  N   UNL     1      -1.692  12.294  19.807  0.00  0.00    +0.000 N 
ATOM     27  C   UNL     1      -1.195  12.307  18.459  0.00  0.00    +0.000 C 
ENDBRANCH  21  22
ENDBRANCH  20  21
ENDBRANCH   1  20
TORSDOF 5
ENDMDL
MODEL 8
REMARK VINA RESULT:      -7.5      0.899      1.009
REMARK  Name = 
REMARK  7 active torsions:
REMARK  status: ('A' for Active; 'I' for Inactive)
REMARK    1  A    between atoms: C_1  and  C_2
REMARK    2  A    between atoms: C_2  and  S_3
REMARK    3  A    between atoms: C_2  and  C_10
REMARK    4  A    between atoms: S_3  and  C_4
REMARK    5  A    between atoms: N_8  and  C_9
REMARK    6  A    between atoms: C_14  and  N_15
REMARK    7  A    between atoms: C_16  and  C_18
REMARK                            x       y       z     vdW  Elec       q    Type
REMARK                         _______ _______ _______ _____ _____    ______ ____
ROOT
ATOM      1  C   UNL     1       0.606   9.346  20.370  0.00  0.00    +0.000 A 
ATOM      2  C   UNL     1       0.433  10.020  19.150  0.00  0.00    +0.000 A 
ATOM      3  C   UNL     1       1.050   9.564  17.991  0.00  0.00    +0.000 A 
ATOM      4  C   UNL     1       1.892   8.453  18.027  0.00  0.00    +0.000 A 
ATOM      5  C   UNL     1       2.157   7.777  19.220  0.00  0.00    +0.000 A 
ATOM      6  C   UNL     1       1.470   8.209  20.385  0.00  0.00    +0.000 A 
ENDROOT
BRANCH   5   7
ATOM      7  N   UNL     1       3.092   6.692  19.277  0.00  0.00    +0.000 N 
ATOM      8  C   UNL     1       2.823   5.327  19.068  0.00  0.00    +0.000 C 
ATOM      9  O   UNL     1       1.738   4.855  18.738  0.00  0.00    +0.000 OA
ATOM     10  H   UNL     1       4.046   6.908  19.538  0.00  0.00    +0.000 HD
BRANCH   8  11
ATOM     11  C   UNL     1       4.060   4.413  19.495  0.00  0.00    +0.000 C 
ATOM     12  C   UNL     1       5.302   4.671  18.996  0.00  0.00    +0.000 A 
ATOM     13  C   UNL     1       6.634   4.962  18.383  0.00  0.00    +0.000 A 
ATOM     14  C   UNL     1       6.860   5.050  17.062  0.00  0.00    +0.000 A 
ATOM     15  C   UNL     1       5.799   4.769  16.120  0.00  0.00    +0.000 A 
ATOM     16  C   UNL     1       4.782   3.991  16.501  0.00  0.00    +0.000 A 
ATOM     17  C   UNL     1       4.683   3.800  17.931  0.00  0.00    +0.000 A 
ATOM     18  N   UNL     1       3.995   3.170  18.784  0.00  0.00    +0.000 NA
ENDBRANCH   8  11
ENDBRANCH   5   7
BRANCH   1  20
ATOM     19  C   UNL     1       0.384   9.406  22.935  0.00  0.00    +0.000 C 
ATOM     20  C   UNL     1      -0.112   9.943  21.595  0.00  0.00    +0.000 C 
BRANCH  20  21
ATOM     21  S   UNL     1       0.016  11.775  21.545  0.00  0.00    +0.000 S 
BRANCH  21  22
ATOM     22  C   UNL     1      -1.273  12.323  22.564  0.00  0.00    +0.000 A 
ATOM     23  N   UNL     1      -2.302  11.643  23.017  0.00  0.00    +0.000 NA
ATOM     24  N   UNL     1      -3.090  12.512  23.752  0.00  0.00    +0.000 NA
ATOM     25  C   UNL     1      -2.516  13.695  23.719  0.00  0.00    +0.000 A 
ATOM     26  N   UNL     1      -1.363  13.616  22.998  0.00  0.00    +0.000 N 
ATOM     27  C   UNL     1      -0.430  14.687  22.776  0.00  0.00    +0.000 C 
ENDBRANCH  21  22
ENDBRANCH  20  21
ENDBRANCH   1  20
TORSDOF 5
ENDMDL
MODEL 9
REMARK VINA RESULT:      -7.4      2.786      8.974
REMARK  Name = 
REMARK  7 active torsions:
REMARK  status: ('A' for Active; 'I' for Inactive)
REMARK    1  A    between atoms: C_1  and  C_2
REMARK    2  A    between atoms: C_2  and  S_3
REMARK    3  A    between atoms: C_2  and  C_10
REMARK    4  A    between atoms: S_3  and  C_4
REMARK    5  A    between atoms: N_8  and  C_9
REMARK    6  A    between atoms: C_14  and  N_15
REMARK    7  A    between atoms: C_16  and  C_18
REMARK                            x       y       z     vdW  Elec       q    Type
REMARK                         _______ _______ _______ _____ _____    ______ ____
ROOT
ATOM      1  C   UNL     1       2.346   5.638  19.526  0.00  0.00    +0.000 A 
ATOM      2  C   UNL     1       2.414   6.010  18.174  0.00  0.00    +0.000 A 
ATOM      3  C   UNL     1       2.246   7.335  17.791  0.00  0.00    +0.000 A 
ATOM      4  C   UNL     1       1.958   8.316  18.741  0.00  0.00    +0.000 A 
ATOM      5  C   UNL     1       1.813   8.002  20.093  0.00  0.00    +0.000 A 
ATOM      6  C   UNL     1       2.053   6.658  20.483  0.00  0.00    +0.000 A 
ENDROOT
BRANCH   5   7
ATOM      7  N   UNL     1       1.429   8.990  21.057  0.00  0.00    +0.000 N 
ATOM      8  C   UNL     1       0.173   9.132  21.675  0.00  0.00    +0.000 C 
ATOM      9  O   UNL     1      -0.785   8.379  21.525  0.00  0.00    +0.000 OA
ATOM     10  H   UNL     1       2.110   9.700  21.298  0.00  0.00    +0.000 HD
BRANCH   8  11
ATOM     11  C   UNL     1       0.061  10.513  22.467  0.00  0.00    +0.000 C 
ATOM     12  C   UNL     1      -1.079  11.256  22.383  0.00  0.00    +0.000 A 
ATOM     13  C   UNL     1      -2.329  12.059  22.218  0.00  0.00    +0.000 A 
ATOM     14  C   UNL     1      -2.844  12.432  21.035  0.00  0.00    +0.000 A 
ATOM     15  C   UNL     1      -2.137  12.137  19.807  0.00  0.00    +0.000 A 
ATOM     16  C   UNL     1      -0.816  11.943  19.850  0.00  0.00    +0.000 A 
ATOM     17  C   UNL     1      -0.293  11.704  21.177  0.00  0.00    +0.000 A 
ATOM     18  N   UNL     1       0.808  11.517  21.770  0.00  0.00    +0.000 NA
ENDBRANCH   8  11
ENDBRANCH   5   7
BRANCH   1  20
ATOM     19  C   UNL     1       1.231   3.372  20.031  0.00  0.00    +0.000 C 
ATOM     20  C   UNL     1       2.535   4.142  19.841  0.00  0.00    +0.000 C 
BRANCH  20  21
ATOM     21  S   UNL     1       3.558   3.368  18.526  0.00  0.00    +0.000 S 
BRANCH  21  22
ATOM     22  C   UNL     1       5.106   4.127  18.685  0.00  0.00    +0.000 A 
ATOM     23  N   UNL     1       5.710   4.531  19.779  0.00  0.00    +0.000 NA
ATOM     24  N   UNL     1       6.906   5.120  19.407  0.00  0.00    +0.000 NA
ATOM     25  C   UNL     1       6.990   5.058  18.097  0.00  0.00    +0.000 A 
ATOM     26  N   UNL     1       5.889   4.427  17.604  0.00  0.00    +0.000 N 
ATOM     27  C   UNL     1       5.636   4.123  16.222  0.00  0.00    +0.000 C 
ENDBRANCH  21  22
ENDBRANCH  20  21
ENDBRANCH   1  20
TORSDOF 5
ENDMDL
