MODEL 1
REMARK VINA RESULT:      -9.9      0.000      0.000
REMARK  Name = 
REMARK  2 active torsions:
REMARK  status: ('A' for Active; 'I' for Inactive)
REMARK    1  A    between atoms: C_10  and  N_11
REMARK    2  A    between atoms: C_21  and  C_22
REMARK                            x       y       z     vdW  Elec       q    Type
REMARK                         _______ _______ _______ _____ _____    ______ ____
ROOT
ATOM      1  N   UNL     1       2.455   7.224  19.937  0.00  0.00    +0.000 N 
ATOM      2  C   UNL     1       2.574   6.316  18.905  0.00  0.00    +0.000 C 
ATOM      3  O   UNL     1       2.189   6.520  17.756  0.00  0.00    +0.000 OA
ATOM      4  N   UNL     1       3.135   5.140  19.241  0.00  0.00    +0.000 N 
ATOM      5  C   UNL     1       3.708   4.573  20.451  0.00  0.00    +0.000 C 
ATOM      6  C   UNL     1       3.268   3.235  19.819  0.00  0.00    +0.000 C 
ATOM      7  C   UNL     1       1.788   2.974  20.265  0.00  0.00    +0.000 C 
ATOM      8  C   UNL     1       0.873   2.510  19.138  0.00  0.00    +0.000 C 
ATOM      9  C   UNL     1       1.069   3.315  17.864  0.00  0.00    +0.000 C 
ATOM     10  C   UNL     1       2.522   3.288  17.449  0.00  0.00    +0.000 C 
ATOM     11  C   UNL     1       3.486   3.961  18.434  0.00  0.00    +0.000 C 
ATOM     12  H   UNL     1       3.063   7.096  20.739  0.00  0.00    +0.000 HD
ENDROOT
BRANCH   1  22
ATOM     13  O   UNL     1      -1.246  12.286  18.679  0.00  0.00    +0.000 OA
ATOM     14  C   UNL     1      -0.957  11.766  19.749  0.00  0.00    +0.000 C 
ATOM     15  N   UNL     1      -1.543  12.173  20.921  0.00  0.00    +0.000 N 
ATOM     16  C   UNL     1      -0.940  11.879  22.200  0.00  0.00    +0.000 C 
ATOM     17  C   UNL     1      -0.494  10.422  22.306  0.00  0.00    +0.000 C 
ATOM     18  C   UNL     1       0.226   9.980  21.061  0.00  0.00    +0.000 A 
ATOM     19  C   UNL     1       0.011  10.645  19.844  0.00  0.00    +0.000 A 
ATOM     20  C   UNL     1       0.640  10.222  18.678  0.00  0.00    +0.000 A 
ATOM     21  C   UNL     1       1.466   9.100  18.709  0.00  0.00    +0.000 A 
ATOM     22  C   UNL     1       1.679   8.399  19.896  0.00  0.00    +0.000 A 
ATOM     23  C   UNL     1       1.053   8.850  21.066  0.00  0.00    +0.000 A 
ATOM     24  F   UNL     1       1.239   8.176  22.215  0.00  0.00    +0.000 F 
ATOM     25  H   UNL     1      -2.130  12.991  20.814  0.00  0.00    +0.000 HD
ENDBRANCH   1  22
BRANCH  11  26
ATOM     26  C   UNL     1       4.854   4.264  17.617  0.00  0.00    +0.000 A 
ATOM     27  C   UNL     1       4.799   4.272  16.192  0.00  0.00    +0.000 A 
ATOM     28  C   UNL     1       5.902   4.474  15.374  0.00  0.00    +0.000 A 
ATOM     29  C   UNL     1       7.141   4.697  15.959  0.00  0.00    +0.000 A 
ATOM     30  C   UNL     1       7.241   4.727  17.354  0.00  0.00    +0.000 A 
ATOM     31  C   UNL     1       6.113   4.514  18.167  0.00  0.00    +0.000 A 
ENDBRANCH  11  26
TORSDOF 2
ENDMDL
MODEL 2
REMARK VINA RESULT:      -9.8      1.493      2.028
REMARK  Name = 
REMARK  2 active torsions:
REMARK  status: ('A' for Active; 'I' for Inactive)
REMARK    1  A    between atoms: C_10  and  N_11
REMARK    2  A    between atoms: C_21  and  C_22
REMARK                            x       y       z     vdW  Elec       q    Type
REMARK                         _______ _______ _______ _____ _____    ______ ____
ROOT
ATOM      1  N   UNL     1       2.749   6.989  19.825  0.00  0.00    +0.000 N 
ATOM      2  C   UNL     1       2.656   6.064  18.804  0.00  0.00    +0.000 C 
ATOM      3  O   UNL     1       1.832   6.118  17.895  0.00  0.00    +0.000 OA
ATOM      4  N   UNL     1       3.537   5.049  18.872  0.00  0.00    +0.000 N 
ATOM      5  C   UNL     1       4.630   4.682  19.758  0.00  0.00    +0.000 C 
ATOM      6  C   UNL     1       4.275   3.248  19.310  0.00  0.00    +0.000 C 
ATOM      7  C   UNL     1       3.165   2.718  20.281  0.00  0.00    +0.000 C 
ATOM      8  C   UNL     1       2.011   2.013  19.578  0.00  0.00    +0.000 C 
ATOM      9  C   UNL     1       1.537   2.765  18.345  0.00  0.00    +0.000 C 
ATOM     10  C   UNL     1       2.696   3.009  17.407  0.00  0.00    +0.000 C 
ATOM     11  C   UNL     1       3.795   3.920  17.965  0.00  0.00    +0.000 C 
ATOM     12  H   UNL     1       3.627   7.034  20.330  0.00  0.00    +0.000 HD
ENDROOT
BRANCH   1  22
ATOM     13  O   UNL     1      -1.432  11.207  22.199  0.00  0.00    +0.000 OA
ATOM     14  C   UNL     1      -0.881  11.171  21.106  0.00  0.00    +0.000 C 
ATOM     15  N   UNL     1      -1.016  12.197  20.205  0.00  0.00    +0.000 N 
ATOM     16  C   UNL     1      -0.734  12.002  18.802  0.00  0.00    +0.000 C 
ATOM     17  C   UNL     1       0.584  11.265  18.575  0.00  0.00    +0.000 C 
ATOM     18  C   UNL     1       0.714  10.084  19.498  0.00  0.00    +0.000 A 
ATOM     19  C   UNL     1      -0.009  10.041  20.700  0.00  0.00    +0.000 A 
ATOM     20  C   UNL     1       0.132   8.973  21.580  0.00  0.00    +0.000 A 
ATOM     21  C   UNL     1       1.031   7.950  21.284  0.00  0.00    +0.000 A 
ATOM     22  C   UNL     1       1.787   7.976  20.112  0.00  0.00    +0.000 A 
ATOM     23  C   UNL     1       1.618   9.049  19.227  0.00  0.00    +0.000 A 
ATOM     24  F   UNL     1       2.349   9.094  18.098  0.00  0.00    +0.000 F 
ATOM     25  H   UNL     1      -1.684  12.901  20.495  0.00  0.00    +0.000 HD
ENDBRANCH   1  22
BRANCH  11  26
ATOM     26  C   UNL     1       4.656   4.446  16.694  0.00  0.00    +0.000 A 
ATOM     27  C   UNL     1       5.316   3.479  15.882  0.00  0.00    +0.000 A 
ATOM     28  C   UNL     1       6.118   3.796  14.794  0.00  0.00    +0.000 A 
ATOM     29  C   UNL     1       6.288   5.131  14.451  0.00  0.00    +0.000 A 
ATOM     30  C   UNL     1       5.637   6.115  15.200  0.00  0.00    +0.000 A 
ATOM     31  C   UNL     1       4.833   5.776  16.303  0.00  0.00    +0.000 A 
ENDBRANCH  11  26
TORSDOF 2
ENDMDL
MODEL 3
REMARK VINA RESULT:      -9.8      1.323      1.425
REMARK  Name = 
REMARK  2 active torsions:
REMARK  status: ('A' for Active; 'I' for Inactive)
REMARK    1  A    between atoms: C_10  and  N_11
REMARK    2  A    between atoms: C_21  and  C_22
REMARK                            x       y       z     vdW  Elec       q    Type
REMARK                         _______ _______ _______ _____ _____    ______ ____
ROOT
ATOM      1  N   UNL     1       1.786   7.785  20.637  0.00  0.00    +0.000 N 
ATOM      2  C   UNL     1       2.289   7.135  19.528  0.00  0.00    +0.000 C 
ATOM      3  O   UNL     1       2.249   7.583  18.385  0.00  0.00    +0.000 OA
ATOM      4  N   UNL     1       2.827   5.925  19.772  0.00  0.00    +0.000 N 
ATOM      5  C   UNL     1       3.060   5.113  20.956  0.00  0.00    +0.000 C 
ATOM      6  C   UNL     1       2.950   3.942  19.956  0.00  0.00    +0.000 C 
ATOM      7  C   UNL     1       1.435   3.557  19.855  0.00  0.00    +0.000 C 
ATOM      8  C   UNL     1       0.944   3.339  18.428  0.00  0.00    +0.000 C 
ATOM      9  C   UNL     1       1.439   4.413  17.474  0.00  0.00    +0.000 C 
ATOM     10  C   UNL     1       2.946   4.510  17.537  0.00  0.00    +0.000 C 
ATOM     11  C   UNL     1       3.507   4.965  18.889  0.00  0.00    +0.000 C 
ATOM     12  H   UNL     1       2.135   7.494  21.543  0.00  0.00    +0.000 HD
ENDROOT
BRANCH   1  22
ATOM     13  O   UNL     1      -2.226  12.617  19.427  0.00  0.00    +0.000 OA
ATOM     14  C   UNL     1      -1.836  12.165  20.495  0.00  0.00    +0.000 C 
ATOM     15  N   UNL     1      -2.351  12.605  21.688  0.00  0.00    +0.000 N 
ATOM     16  C   UNL     1      -1.642  12.401  22.929  0.00  0.00    +0.000 C 
ATOM     17  C   UNL     1      -1.123  10.972  23.070  0.00  0.00    +0.000 C 
ATOM     18  C   UNL     1      -0.477  10.498  21.796  0.00  0.00    +0.000 A 
ATOM     19  C   UNL     1      -0.813  11.091  20.569  0.00  0.00    +0.000 A 
ATOM     20  C   UNL     1      -0.252  10.637  19.380  0.00  0.00    +0.000 A 
ATOM     21  C   UNL     1       0.624   9.554  19.401  0.00  0.00    +0.000 A 
ATOM     22  C   UNL     1       0.956   8.923  20.600  0.00  0.00    +0.000 A 
ATOM     23  C   UNL     1       0.399   9.406  21.791  0.00  0.00    +0.000 A 
ATOM     24  F   UNL     1       0.700   8.799  22.954  0.00  0.00    +0.000 F 
ATOM     25  H   UNL     1      -2.981  13.391  21.587  0.00  0.00    +0.000 HD
ENDBRANCH   1  22
BRANCH  11  26
ATOM     26  C   UNL     1       5.024   5.472  18.620  0.00  0.00    +0.000 A 
ATOM     27  C   UNL     1       5.267   6.290  17.478  0.00  0.00    +0.000 A 
ATOM     28  C   UNL     1       6.522   6.755  17.110  0.00  0.00    +0.000 A 
ATOM     29  C   UNL     1       7.618   6.425  17.895  0.00  0.00    +0.000 A 
ATOM     30  C   UNL     1       7.426   5.648  19.041  0.00  0.00    +0.000 A 
ATOM     31  C   UNL     1       6.148   5.181  19.396  0.00  0.00    +0.000 A 
ENDBRANCH  11  26
TORSDOF 2
ENDMDL
MODEL 4
REMARK VINA RESULT:      -9.2      2.383      8.559
REMARK  Name = 
REMARK  2 active torsions:
REMARK  status: ('A' for Active; 'I' for Inactive)
REMARK    1  A    between atoms: C_10  and  N_11
REMARK    2  A    between atoms: C_21  and  C_22
REMARK                            x       y       z     vdW  Elec       q    Type
REMARK                         _______ _______ _______ _____ _____    ______ ____
ROOT
ATOM      1  N   UNL     1       1.469   8.412  19.624  0.00  0.00    +0.000 N 
ATOM      2  C   UNL     1       1.033   9.489  18.879  0.00  0.00    +0.000 C 
ATOM      3  O   UNL     1       1.191   9.601  17.666  0.00  0.00    +0.000 OA
ATOM      4  N   UNL     1       0.419  10.458  19.583  0.00  0.00    +0.000 N 
ATOM      5  C   UNL     1       0.048  10.652  20.976  0.00  0.00    +0.000 C 
ATOM      6  C   UNL     1       0.187  12.147  20.619  0.00  0.00    +0.000 C 
ATOM      7  C   UNL     1       1.686  12.543  20.849  0.00  0.00    +0.000 C 
ATOM      8  C   UNL     1       2.285  13.380  19.724  0.00  0.00    +0.000 C 
ATOM      9  C   UNL     1       1.924  12.847  18.348  0.00  0.00    +0.000 C 
ATOM     10  C   UNL     1       0.424  12.725  18.214  0.00  0.00    +0.000 C 
ATOM     11  C   UNL     1      -0.228  11.710  19.160  0.00  0.00    +0.000 C 
ATOM     12  H   UNL     1       1.031   8.265  20.526  0.00  0.00    +0.000 HD
ENDROOT
BRANCH   1  22
ATOM     13  O   UNL     1       6.091   4.745  17.153  0.00  0.00    +0.000 OA
ATOM     14  C   UNL     1       5.256   4.491  18.012  0.00  0.00    +0.000 C 
ATOM     15  N   UNL     1       5.283   3.308  18.705  0.00  0.00    +0.000 N 
ATOM     16  C   UNL     1       4.114   2.820  19.399  0.00  0.00    +0.000 C 
ATOM     17  C   UNL     1       3.442   3.909  20.233  0.00  0.00    +0.000 C 
ATOM     18  C   UNL     1       3.326   5.194  19.459  0.00  0.00    +0.000 A 
ATOM     19  C   UNL     1       4.189   5.454  18.383  0.00  0.00    +0.000 A 
ATOM     20  C   UNL     1       4.118   6.655  17.685  0.00  0.00    +0.000 A 
ATOM     21  C   UNL     1       3.205   7.630  18.081  0.00  0.00    +0.000 A 
ATOM     22  C   UNL     1       2.353   7.416  19.164  0.00  0.00    +0.000 A 
ATOM     23  C   UNL     1       2.423   6.193  19.845  0.00  0.00    +0.000 A 
ATOM     24  F   UNL     1       1.616   5.977  20.899  0.00  0.00    +0.000 F 
ATOM     25  H   UNL     1       5.975   2.655  18.359  0.00  0.00    +0.000 HD
ENDBRANCH   1  22
BRANCH  11  26
ATOM     26  C   UNL     1      -1.691  11.371  18.546  0.00  0.00    +0.000 A 
ATOM     27  C   UNL     1      -2.828  11.996  19.135  0.00  0.00    +0.000 A 
ATOM     28  C   UNL     1      -4.137  11.761  18.735  0.00  0.00    +0.000 A 
ATOM     29  C   UNL     1      -4.372  10.877  17.691  0.00  0.00    +0.000 A 
ATOM     30  C   UNL     1      -3.286  10.261  17.062  0.00  0.00    +0.000 A 
ATOM     31  C   UNL     1      -1.967  10.506  17.485  0.00  0.00    +0.000 A 
ENDBRANCH  11  26
TORSDOF 2
ENDMDL
MODEL 5
REMARK VINA RESULT:      -8.3      2.954      9.206
REMARK  Name = 
REMARK  2 active torsions:
REMARK  status: ('A' for Active; 'I' for Inactive)
REMARK    1  A    between atoms: C_10  and  N_11
REMARK    2  A    between atoms: C_21  and  C_22
REMARK                            x       y       z     vdW  Elec       q    Type
REMARK                         _______ _______ _______ _____ _____    ______ ____
ROOT
ATOM      1  N   UNL     1       0.331  10.549  19.466  0.00  0.00    +0.000 N 
ATOM      2  C   UNL     1       0.445  11.633  20.311  0.00  0.00    +0.000 C 
ATOM      3  O   UNL     1       1.320  11.755  21.166  0.00  0.00    +0.000 OA
ATOM      4  N   UNL     1      -0.502  12.577  20.160  0.00  0.00    +0.000 N 
ATOM      5  C   UNL     1      -1.636  12.775  19.272  0.00  0.00    +0.000 C 
ATOM      6  C   UNL     1      -2.200  13.580  20.463  0.00  0.00    +0.000 C 
ATOM      7  C   UNL     1      -2.960  12.570  21.389  0.00  0.00    +0.000 C 
ATOM      8  C   UNL     1      -2.659  12.742  22.874  0.00  0.00    +0.000 C 
ATOM      9  C   UNL     1      -1.176  12.934  23.145  0.00  0.00    +0.000 C 
ATOM     10  C   UNL     1      -0.642  14.089  22.331  0.00  0.00    +0.000 C 
ATOM     11  C   UNL     1      -0.691  13.882  20.812  0.00  0.00    +0.000 C 
ATOM     12  H   UNL     1      -0.208  10.678  18.616  0.00  0.00    +0.000 HD
ENDROOT
BRANCH   1  22
ATOM     13  O   UNL     1       2.665   4.740  20.776  0.00  0.00    +0.000 OA
ATOM     14  C   UNL     1       2.915   5.500  19.849  0.00  0.00    +0.000 C 
ATOM     15  N   UNL     1       3.720   5.115  18.807  0.00  0.00    +0.000 N 
ATOM     16  C   UNL     1       4.347   6.091  17.947  0.00  0.00    +0.000 C 
ATOM     17  C   UNL     1       3.369   7.172  17.491  0.00  0.00    +0.000 C 
ATOM     18  C   UNL     1       2.532   7.668  18.638  0.00  0.00    +0.000 A 
ATOM     19  C   UNL     1       2.337   6.865  19.772  0.00  0.00    +0.000 A 
ATOM     20  C   UNL     1       1.534   7.297  20.823  0.00  0.00    +0.000 A 
ATOM     21  C   UNL     1       0.883   8.525  20.733  0.00  0.00    +0.000 A 
ATOM     22  C   UNL     1       1.032   9.335  19.607  0.00  0.00    +0.000 A 
ATOM     23  C   UNL     1       1.860   8.895  18.566  0.00  0.00    +0.000 A 
ATOM     24  F   UNL     1       2.004   9.659  17.469  0.00  0.00    +0.000 F 
ATOM     25  H   UNL     1       4.153   4.210  18.947  0.00  0.00    +0.000 HD
ENDBRANCH   1  22
BRANCH  11  26
ATOM     26  C   UNL     1       0.338  14.955  20.162  0.00  0.00    +0.000 A 
ATOM     27  C   UNL     1       1.566  15.207  20.840  0.00  0.00    +0.000 A 
ATOM     28  C   UNL     1       2.512  16.130  20.416  0.00  0.00    +0.000 A 
ATOM     29  C   UNL     1       2.273  16.852  19.255  0.00  0.00    +0.000 A 
ATOM     30  C   UNL     1       1.096  16.619  18.538  0.00  0.00    +0.000 A 
ATOM     31  C   UNL     1       0.145  15.684  18.986  0.00  0.00    +0.000 A 
ENDBRANCH  11  26
TORSDOF 2
ENDMDL
