MODEL 1
REMARK VINA RESULT:      -9.3      0.000      0.000
REMARK  Name = 
REMARK  4 active torsions:
REMARK  status: ('A' for Active; 'I' for Inactive)
REMARK    1  A    between atoms: C_1  and  C_2
REMARK    2  A    between atoms: C_7  and  C_8
REMARK    3  A    between atoms: C_10  and  N_11
REMARK    4  A    between atoms: C_12  and  C_14
REMARK                            x       y       z     vdW  Elec       q    Type
REMARK                         _______ _______ _______ _____ _____    ______ ____
ROOT
ATOM      1  N   UNL     1       8.641   9.599  17.647  0.00  0.00    +0.000 N 
ATOM      2  C   UNL     1       9.196  10.426  18.684  0.00  0.00    +0.000 C 
ATOM      3  O   UNL     1       9.191  10.069  19.849  0.00  0.00    +0.000 OA
ATOM      4  H   UNL     1       8.699   9.901  16.683  0.00  0.00    +0.000 HD
ENDROOT
BRANCH   2   5
ATOM      5  C   UNL     1       9.808  11.721  18.320  0.00  0.00    +0.000 A 
ATOM      6  C   UNL     1      11.091  11.834  17.774  0.00  0.00    +0.000 A 
ATOM      7  C   UNL     1      11.556  13.093  17.365  0.00  0.00    +0.000 A 
ATOM      8  C   UNL     1      10.755  14.225  17.532  0.00  0.00    +0.000 A 
ATOM      9  C   UNL     1       9.480  14.120  18.092  0.00  0.00    +0.000 A 
ATOM     10  C   UNL     1       9.004  12.862  18.469  0.00  0.00    +0.000 A 
ATOM     11  C   UNL     1       8.598  15.336  18.163  0.00  0.00    +0.000 C 
ATOM     12  C   UNL     1       9.437  16.581  18.390  0.00  0.00    +0.000 C 
ATOM     13  C   UNL     1      10.575  16.661  17.399  0.00  0.00    +0.000 C 
ATOM     14  O   UNL     1      10.993  17.726  16.957  0.00  0.00    +0.000 OA
ATOM     15  N   UNL     1      11.207  15.477  17.107  0.00  0.00    +0.000 N 
ATOM     16  H   UNL     1      12.046  15.563  16.547  0.00  0.00    +0.000 HD
ENDBRANCH   2   5
BRANCH   1  19
ATOM     17  C   UNL     1       6.827   6.498  17.965  0.00  0.00    +0.000 A 
ATOM     18  C   UNL     1       6.999   7.754  17.329  0.00  0.00    +0.000 A 
ATOM     19  C   UNL     1       8.088   8.347  17.914  0.00  0.00    +0.000 A 
ATOM     20  N   UNL     1       8.518   7.433  18.844  0.00  0.00    +0.000 N 
ATOM     21  N   UNL     1       7.751   6.331  18.926  0.00  0.00    +0.000 NA
ATOM     22  H   UNL     1       9.317   7.491  19.461  0.00  0.00    +0.000 HD
BRANCH  17  29
ATOM     23  C   UNL     1       2.106   4.868  18.392  0.00  0.00    +0.000 C 
ATOM     24  C   UNL     1       3.492   4.719  17.834  0.00  0.00    +0.000 A 
ATOM     25  C   UNL     1       3.785   3.693  16.927  0.00  0.00    +0.000 A 
ATOM     26  C   UNL     1       5.064   3.571  16.392  0.00  0.00    +0.000 A 
ATOM     27  C   UNL     1       6.049   4.480  16.756  0.00  0.00    +0.000 A 
ATOM     28  F   UNL     1       7.266   4.336  16.207  0.00  0.00    +0.000 F 
ATOM     29  C   UNL     1       5.789   5.519  17.660  0.00  0.00    +0.000 A 
ATOM     30  C   UNL     1       4.503   5.625  18.207  0.00  0.00    +0.000 A 
ENDBRANCH  17  29
ENDBRANCH   1  19
TORSDOF 3
ENDMDL
MODEL 2
REMARK VINA RESULT:      -9.1      1.662      2.484
REMARK  Name = 
REMARK  4 active torsions:
REMARK  status: ('A' for Active; 'I' for Inactive)
REMARK    1  A    between atoms: C_1  and  C_2
REMARK    2  A    between atoms: C_7  and  C_8
REMARK    3  A    between atoms: C_10  and  N_11
REMARK    4  A    between atoms: C_12  and  C_14
REMARK                            x       y       z     vdW  Elec       q    Type
REMARK                         _______ _______ _______ _____ _____    ______ ____
ROOT
ATOM      1  N   UNL     1       7.292   8.425  17.278  0.00  0.00    +0.000 N 
ATOM      2  C   UNL     1       8.276   9.058  18.116  0.00  0.00    +0.000 C 
ATOM      3  O   UNL     1       8.809   8.455  19.031  0.00  0.00    +0.000 OA
ATOM      4  H   UNL     1       6.899   8.935  16.498  0.00  0.00    +0.000 HD
ENDROOT
BRANCH   2   5
ATOM      5  C   UNL     1       8.663  10.456  17.839  0.00  0.00    +0.000 A 
ATOM      6  C   UNL     1       7.739  11.462  17.541  0.00  0.00    +0.000 A 
ATOM      7  C   UNL     1       8.184  12.783  17.390  0.00  0.00    +0.000 A 
ATOM      8  C   UNL     1       9.544  13.083  17.505  0.00  0.00    +0.000 A 
ATOM      9  C   UNL     1      10.473  12.080  17.787  0.00  0.00    +0.000 A 
ATOM     10  C   UNL     1      10.026  10.770  17.970  0.00  0.00    +0.000 A 
ATOM     11  C   UNL     1      11.915  12.446  18.010  0.00  0.00    +0.000 C 
ATOM     12  C   UNL     1      12.300  13.626  17.137  0.00  0.00    +0.000 C 
ATOM     13  C   UNL     1      11.310  14.760  17.285  0.00  0.00    +0.000 C 
ATOM     14  O   UNL     1      11.643  15.939  17.221  0.00  0.00    +0.000 OA
ATOM     15  N   UNL     1       9.988  14.402  17.375  0.00  0.00    +0.000 N 
ATOM     16  H   UNL     1       9.330  15.170  17.341  0.00  0.00    +0.000 HD
ENDBRANCH   2   5
BRANCH   1  19
ATOM     17  C   UNL     1       5.806   5.187  17.836  0.00  0.00    +0.000 A 
ATOM     18  C   UNL     1       5.664   6.593  17.717  0.00  0.00    +0.000 A 
ATOM     19  C   UNL     1       6.912   7.095  17.455  0.00  0.00    +0.000 A 
ATOM     20  N   UNL     1       7.725   5.989  17.416  0.00  0.00    +0.000 N 
ATOM     21  N   UNL     1       7.093   4.834  17.685  0.00  0.00    +0.000 NA
ATOM     22  H   UNL     1       8.716   5.943  17.219  0.00  0.00    +0.000 HD
BRANCH  17  29
ATOM     23  C   UNL     1       2.813   2.797  21.071  0.00  0.00    +0.000 C 
ATOM     24  C   UNL     1       3.249   3.081  19.662  0.00  0.00    +0.000 A 
ATOM     25  C   UNL     1       2.561   2.519  18.579  0.00  0.00    +0.000 A 
ATOM     26  C   UNL     1       2.951   2.803  17.274  0.00  0.00    +0.000 A 
ATOM     27  C   UNL     1       4.022   3.657  17.049  0.00  0.00    +0.000 A 
ATOM     28  F   UNL     1       4.357   3.918  15.775  0.00  0.00    +0.000 F 
ATOM     29  C   UNL     1       4.730   4.239  18.109  0.00  0.00    +0.000 A 
ATOM     30  C   UNL     1       4.343   3.934  19.421  0.00  0.00    +0.000 A 
ENDBRANCH  17  29
ENDBRANCH   1  19
TORSDOF 3
ENDMDL
MODEL 3
REMARK VINA RESULT:      -8.9      1.891      2.647
REMARK  Name = 
REMARK  4 active torsions:
REMARK  status: ('A' for Active; 'I' for Inactive)
REMARK    1  A    between atoms: C_1  and  C_2
REMARK    2  A    between atoms: C_7  and  C_8
REMARK    3  A    between atoms: C_10  and  N_11
REMARK    4  A    between atoms: C_12  and  C_14
REMARK                            x       y       z     vdW  Elec       q    Type
REMARK                         _______ _______ _______ _____ _____    ______ ____
ROOT
ATOM      1  N   UNL     1       8.401   7.550  18.940  0.00  0.00    +0.000 N 
ATOM      2  C   UNL     1       8.241   8.798  18.243  0.00  0.00    +0.000 C 
ATOM      3  O   UNL     1       7.501   8.894  17.279  0.00  0.00    +0.000 OA
ATOM      4  H   UNL     1       8.987   7.510  19.763  0.00  0.00    +0.000 HD
ENDROOT
BRANCH   2   5
ATOM      5  C   UNL     1       8.968   9.990  18.726  0.00  0.00    +0.000 A 
ATOM      6  C   UNL     1       9.287  10.198  20.072  0.00  0.00    +0.000 A 
ATOM      7  C   UNL     1      10.067  11.308  20.430  0.00  0.00    +0.000 A 
ATOM      8  C   UNL     1      10.493  12.211  19.454  0.00  0.00    +0.000 A 
ATOM      9  C   UNL     1      10.164  12.016  18.111  0.00  0.00    +0.000 A 
ATOM     10  C   UNL     1       9.416  10.894  17.749  0.00  0.00    +0.000 A 
ATOM     11  C   UNL     1      10.724  12.945  17.068  0.00  0.00    +0.000 C 
ATOM     12  C   UNL     1      10.857  14.349  17.630  0.00  0.00    +0.000 C 
ATOM     13  C   UNL     1      11.590  14.339  18.953  0.00  0.00    +0.000 C 
ATOM     14  O   UNL     1      12.333  15.250  19.303  0.00  0.00    +0.000 OA
ATOM     15  N   UNL     1      11.286  13.307  19.805  0.00  0.00    +0.000 N 
ATOM     16  H   UNL     1      11.682  13.383  20.734  0.00  0.00    +0.000 HD
ENDBRANCH   2   5
BRANCH   1  19
ATOM     17  C   UNL     1       6.188   4.789  18.241  0.00  0.00    +0.000 A 
ATOM     18  C   UNL     1       6.398   6.078  18.795  0.00  0.00    +0.000 A 
ATOM     19  C   UNL     1       7.711   6.398  18.565  0.00  0.00    +0.000 A 
ATOM     20  N   UNL     1       8.214   5.315  17.887  0.00  0.00    +0.000 N 
ATOM     21  N   UNL     1       7.331   4.316  17.717  0.00  0.00    +0.000 NA
ATOM     22  H   UNL     1       9.145   5.183  17.514  0.00  0.00    +0.000 HD
BRANCH  17  29
ATOM     23  C   UNL     1       2.414   2.623  20.729  0.00  0.00    +0.000 C 
ATOM     24  C   UNL     1       3.073   3.009  19.436  0.00  0.00    +0.000 A 
ATOM     25  C   UNL     1       2.439   2.755  18.213  0.00  0.00    +0.000 A 
ATOM     26  C   UNL     1       3.040   3.135  17.017  0.00  0.00    +0.000 A 
ATOM     27  C   UNL     1       4.271   3.778  17.042  0.00  0.00    +0.000 A 
ATOM     28  F   UNL     1       4.809   4.141  15.867  0.00  0.00    +0.000 F 
ATOM     29  C   UNL     1       4.931   4.049  18.248  0.00  0.00    +0.000 A 
ATOM     30  C   UNL     1       4.327   3.648  19.447  0.00  0.00    +0.000 A 
ENDBRANCH  17  29
ENDBRANCH   1  19
TORSDOF 3
ENDMDL
MODEL 4
REMARK VINA RESULT:      -8.8      1.237      1.265
REMARK  Name = 
REMARK  4 active torsions:
REMARK  status: ('A' for Active; 'I' for Inactive)
REMARK    1  A    between atoms: C_1  and  C_2
REMARK    2  A    between atoms: C_7  and  C_8
REMARK    3  A    between atoms: C_10  and  N_11
REMARK    4  A    between atoms: C_12  and  C_14
REMARK                            x       y       z     vdW  Elec       q    Type
REMARK                         _______ _______ _______ _____ _____    ______ ____
ROOT
ATOM      1  N   UNL     1       8.765   9.814  17.913  0.00  0.00    +0.000 N 
ATOM      2  C   UNL     1       9.297  10.570  19.016  0.00  0.00    +0.000 C 
ATOM      3  O   UNL     1       9.284  10.127  20.151  0.00  0.00    +0.000 OA
ATOM      4  H   UNL     1       8.830  10.187  16.975  0.00  0.00    +0.000 HD
ENDROOT
BRANCH   2   5
ATOM      5  C   UNL     1       9.896  11.895  18.756  0.00  0.00    +0.000 A 
ATOM      6  C   UNL     1      10.297  12.318  17.484  0.00  0.00    +0.000 A 
ATOM      7  C   UNL     1      10.764  13.629  17.311  0.00  0.00    +0.000 A 
ATOM      8  C   UNL     1      10.857  14.492  18.405  0.00  0.00    +0.000 A 
ATOM      9  C   UNL     1      10.473  14.069  19.680  0.00  0.00    +0.000 A 
ATOM     10  C   UNL     1       9.977  12.775  19.847  0.00  0.00    +0.000 A 
ATOM     11  C   UNL     1      10.482  15.050  20.820  0.00  0.00    +0.000 C 
ATOM     12  C   UNL     1      11.617  16.045  20.649  0.00  0.00    +0.000 C 
ATOM     13  C   UNL     1      11.602  16.656  19.266  0.00  0.00    +0.000 C 
ATOM     14  O   UNL     1      11.944  17.815  19.053  0.00  0.00    +0.000 OA
ATOM     15  N   UNL     1      11.303  15.804  18.232  0.00  0.00    +0.000 N 
ATOM     16  H   UNL     1      11.425  16.192  17.305  0.00  0.00    +0.000 HD
ENDBRANCH   2   5
BRANCH   1  19
ATOM     17  C   UNL     1       6.993   6.673  17.973  0.00  0.00    +0.000 A 
ATOM     18  C   UNL     1       7.162   7.971  17.428  0.00  0.00    +0.000 A 
ATOM     19  C   UNL     1       8.226   8.539  18.080  0.00  0.00    +0.000 A 
ATOM     20  N   UNL     1       8.646   7.570  18.958  0.00  0.00    +0.000 N 
ATOM     21  N   UNL     1       7.895   6.455  18.944  0.00  0.00    +0.000 NA
ATOM     22  H   UNL     1       9.429   7.597  19.598  0.00  0.00    +0.000 HD
BRANCH  17  29
ATOM     23  C   UNL     1       2.237   5.091  17.957  0.00  0.00    +0.000 C 
ATOM     24  C   UNL     1       3.668   4.925  17.534  0.00  0.00    +0.000 A 
ATOM     25  C   UNL     1       4.036   3.892  16.663  0.00  0.00    +0.000 A 
ATOM     26  C   UNL     1       5.359   3.755  16.252  0.00  0.00    +0.000 A 
ATOM     27  C   UNL     1       6.314   4.656  16.705  0.00  0.00    +0.000 A 
ATOM     28  F   UNL     1       7.575   4.498  16.274  0.00  0.00    +0.000 F 
ATOM     29  C   UNL     1       5.979   5.703  17.575  0.00  0.00    +0.000 A 
ATOM     30  C   UNL     1       4.648   5.823  17.997  0.00  0.00    +0.000 A 
ENDBRANCH  17  29
ENDBRANCH   1  19
TORSDOF 3
ENDMDL
MODEL 5
REMARK VINA RESULT:      -8.8      1.337      1.883
REMARK  Name = 
REMARK  4 active torsions:
REMARK  status: ('A' for Active; 'I' for Inactive)
REMARK    1  A    between atoms: C_1  and  C_2
REMARK    2  A    between atoms: C_7  and  C_8
REMARK    3  A    between atoms: C_10  and  N_11
REMARK    4  A    between atoms: C_12  and  C_14
REMARK                            x       y       z     vdW  Elec       q    Type
REMARK                         _______ _______ _______ _____ _____    ______ ____
ROOT
ATOM      1  N   UNL     1       8.806  10.231  18.015  0.00  0.00    +0.000 N 
ATOM      2  C   UNL     1       9.293  10.957  19.157  0.00  0.00    +0.000 C 
ATOM      3  O   UNL     1       9.341  10.442  20.261  0.00  0.00    +0.000 OA
ATOM      4  H   UNL     1       8.819  10.668  17.104  0.00  0.00    +0.000 HD
ENDROOT
BRANCH   2   5
ATOM      5  C   UNL     1       9.769  12.343  18.977  0.00  0.00    +0.000 A 
ATOM      6  C   UNL     1      11.115  12.711  19.085  0.00  0.00    +0.000 A 
ATOM      7  C   UNL     1      11.493  14.031  18.801  0.00  0.00    +0.000 A 
ATOM      8  C   UNL     1      10.528  14.976  18.443  0.00  0.00    +0.000 A 
ATOM      9  C   UNL     1       9.181  14.618  18.349  0.00  0.00    +0.000 A 
ATOM     10  C   UNL     1       8.809  13.296  18.601  0.00  0.00    +0.000 A 
ATOM     11  C   UNL     1       8.179  15.627  17.860  0.00  0.00    +0.000 C 
ATOM     12  C   UNL     1       8.574  17.022  18.310  0.00  0.00    +0.000 C 
ATOM     13  C   UNL     1      10.016  17.319  17.964  0.00  0.00    +0.000 C 
ATOM     14  O   UNL     1      10.403  18.440  17.651  0.00  0.00    +0.000 OA
ATOM     15  N   UNL     1      10.904  16.287  18.140  0.00  0.00    +0.000 N 
ATOM     16  H   UNL     1      11.880  16.534  18.032  0.00  0.00    +0.000 HD
ENDBRANCH   2   5
BRANCH   1  19
ATOM     17  C   UNL     1       7.372   6.926  17.830  0.00  0.00    +0.000 A 
ATOM     18  C   UNL     1       7.478   8.243  17.316  0.00  0.00    +0.000 A 
ATOM     19  C   UNL     1       8.382   8.905  18.105  0.00  0.00    +0.000 A 
ATOM     20  N   UNL     1       8.779   7.969  19.029  0.00  0.00    +0.000 N 
ATOM     21  N   UNL     1       8.155   6.784  18.912  0.00  0.00    +0.000 NA
ATOM     22  H   UNL     1       9.464   8.065  19.768  0.00  0.00    +0.000 HD
BRANCH  17  29
ATOM     23  C   UNL     1       6.046   3.865  14.088  0.00  0.00    +0.000 C 
ATOM     24  C   UNL     1       5.877   4.350  15.499  0.00  0.00    +0.000 A 
ATOM     25  C   UNL     1       4.971   3.721  16.362  0.00  0.00    +0.000 A 
ATOM     26  C   UNL     1       4.832   4.156  17.677  0.00  0.00    +0.000 A 
ATOM     27  C   UNL     1       5.607   5.215  18.134  0.00  0.00    +0.000 A 
ATOM     28  F   UNL     1       5.454   5.594  19.412  0.00  0.00    +0.000 F 
ATOM     29  C   UNL     1       6.524   5.864  17.297  0.00  0.00    +0.000 A 
ATOM     30  C   UNL     1       6.645   5.432  15.970  0.00  0.00    +0.000 A 
ENDBRANCH  17  29
ENDBRANCH   1  19
TORSDOF 3
ENDMDL
MODEL 6
REMARK VINA RESULT:      -8.7      7.446      9.041
REMARK  Name = 
REMARK  4 active torsions:
REMARK  status: ('A' for Active; 'I' for Inactive)
REMARK    1  A    between atoms: C_1  and  C_2
REMARK    2  A    between atoms: C_7  and  C_8
REMARK    3  A    between atoms: C_10  and  N_11
REMARK    4  A    between atoms: C_12  and  C_14
REMARK                            x       y       z     vdW  Elec       q    Type
REMARK                         _______ _______ _______ _____ _____    ______ ____
ROOT
ATOM      1  N   UNL     1       1.686   6.897  20.791  0.00  0.00    +0.000 N 
ATOM      2  C   UNL     1       1.374   8.208  20.289  0.00  0.00    +0.000 C 
ATOM      3  O   UNL     1       1.767   8.577  19.196  0.00  0.00    +0.000 OA
ATOM      4  H   UNL     1       1.309   6.601  21.682  0.00  0.00    +0.000 HD
ENDROOT
BRANCH   2   5
ATOM      5  C   UNL     1       0.538   9.110  21.107  0.00  0.00    +0.000 A 
ATOM      6  C   UNL     1       0.395   8.977  22.492  0.00  0.00    +0.000 A 
ATOM      7  C   UNL     1      -0.338   9.937  23.204  0.00  0.00    +0.000 A 
ATOM      8  C   UNL     1      -0.946  10.998  22.529  0.00  0.00    +0.000 A 
ATOM      9  C   UNL     1      -0.821  11.127  21.145  0.00  0.00    +0.000 A 
ATOM     10  C   UNL     1      -0.063  10.190  20.440  0.00  0.00    +0.000 A 
ATOM     11  C   UNL     1      -1.396  12.336  20.458  0.00  0.00    +0.000 C 
ATOM     12  C   UNL     1      -2.664  12.786  21.159  0.00  0.00    +0.000 C 
ATOM     13  C   UNL     1      -2.442  12.929  22.648  0.00  0.00    +0.000 C 
ATOM     14  O   UNL     1      -3.008  13.785  23.321  0.00  0.00    +0.000 OA
ATOM     15  N   UNL     1      -1.661  11.967  23.239  0.00  0.00    +0.000 N 
ATOM     16  H   UNL     1      -1.628  11.998  24.250  0.00  0.00    +0.000 HD
ENDBRANCH   2   5
BRANCH   1  19
ATOM     17  C   UNL     1       3.906   4.960  18.711  0.00  0.00    +0.000 A 
ATOM     18  C   UNL     1       3.529   6.210  19.264  0.00  0.00    +0.000 A 
ATOM     19  C   UNL     1       2.432   5.978  20.053  0.00  0.00    +0.000 A 
ATOM     20  N   UNL     1       2.214   4.627  19.950  0.00  0.00    +0.000 N 
ATOM     21  N   UNL     1       3.060   3.997  19.114  0.00  0.00    +0.000 NA
ATOM     22  H   UNL     1       1.511   4.065  20.411  0.00  0.00    +0.000 HD
BRANCH  17  29
ATOM     23  C   UNL     1       5.696   4.020  14.124  0.00  0.00    +0.000 C 
ATOM     24  C   UNL     1       5.924   4.292  15.583  0.00  0.00    +0.000 A 
ATOM     25  C   UNL     1       7.225   4.430  16.084  0.00  0.00    +0.000 A 
ATOM     26  C   UNL     1       7.434   4.707  17.432  0.00  0.00    +0.000 A 
ATOM     27  C   UNL     1       6.343   4.856  18.278  0.00  0.00    +0.000 A 
ATOM     28  F   UNL     1       6.587   5.137  19.568  0.00  0.00    +0.000 F 
ATOM     29  C   UNL     1       5.029   4.727  17.809  0.00  0.00    +0.000 A 
ATOM     30  C   UNL     1       4.827   4.430  16.454  0.00  0.00    +0.000 A 
ENDBRANCH  17  29
ENDBRANCH   1  19
TORSDOF 3
ENDMDL
MODEL 7
REMARK VINA RESULT:      -8.7      2.018      2.862
REMARK  Name = 
REMARK  4 active torsions:
REMARK  status: ('A' for Active; 'I' for Inactive)
REMARK    1  A    between atoms: C_1  and  C_2
REMARK    2  A    between atoms: C_7  and  C_8
REMARK    3  A    between atoms: C_10  and  N_11
REMARK    4  A    between atoms: C_12  and  C_14
REMARK                            x       y       z     vdW  Elec       q    Type
REMARK                         _______ _______ _______ _____ _____    ______ ____
ROOT
ATOM      1  N   UNL     1       7.102   8.211  17.455  0.00  0.00    +0.000 N 
ATOM      2  C   UNL     1       8.225   8.583  18.273  0.00  0.00    +0.000 C 
ATOM      3  O   UNL     1       8.795   7.766  18.974  0.00  0.00    +0.000 OA
ATOM      4  H   UNL     1       6.676   8.899  16.849  0.00  0.00    +0.000 HD
ENDROOT
BRANCH   2   5
ATOM      5  C   UNL     1       8.710   9.978  18.235  0.00  0.00    +0.000 A 
ATOM      6  C   UNL     1       8.128  10.970  17.439  0.00  0.00    +0.000 A 
ATOM      7  C   UNL     1       8.588  12.291  17.539  0.00  0.00    +0.000 A 
ATOM      8  C   UNL     1       9.639  12.604  18.405  0.00  0.00    +0.000 A 
ATOM      9  C   UNL     1      10.234  11.614  19.190  0.00  0.00    +0.000 A 
ATOM     10  C   UNL     1       9.755  10.306  19.114  0.00  0.00    +0.000 A 
ATOM     11  C   UNL     1      11.291  11.998  20.189  0.00  0.00    +0.000 C 
ATOM     12  C   UNL     1      12.114  13.161  19.666  0.00  0.00    +0.000 C 
ATOM     13  C   UNL     1      11.224  14.290  19.196  0.00  0.00    +0.000 C 
ATOM     14  O   UNL     1      11.541  15.470  19.306  0.00  0.00    +0.000 OA
ATOM     15  N   UNL     1      10.086  13.923  18.521  0.00  0.00    +0.000 N 
ATOM     16  H   UNL     1       9.570  14.685  18.100  0.00  0.00    +0.000 HD
ENDBRANCH   2   5
BRANCH   1  19
ATOM     17  C   UNL     1       5.453   5.010  17.664  0.00  0.00    +0.000 A 
ATOM     18  C   UNL     1       5.483   6.392  17.978  0.00  0.00    +0.000 A 
ATOM     19  C   UNL     1       6.620   6.903  17.408  0.00  0.00    +0.000 A 
ATOM     20  N   UNL     1       7.201   5.828  16.781  0.00  0.00    +0.000 N 
ATOM     21  N   UNL     1       6.542   4.669  16.956  0.00  0.00    +0.000 NA
ATOM     22  H   UNL     1       8.043   5.805  16.222  0.00  0.00    +0.000 HD
BRANCH  17  29
ATOM     23  C   UNL     1       2.745   2.748  21.226  0.00  0.00    +0.000 C 
ATOM     24  C   UNL     1       3.071   2.968  19.777  0.00  0.00    +0.000 A 
ATOM     25  C   UNL     1       2.313   2.345  18.777  0.00  0.00    +0.000 A 
ATOM     26  C   UNL     1       2.601   2.568  17.433  0.00  0.00    +0.000 A 
ATOM     27  C   UNL     1       3.640   3.422  17.088  0.00  0.00    +0.000 A 
ATOM     28  F   UNL     1       3.876   3.623  15.781  0.00  0.00    +0.000 F 
ATOM     29  C   UNL     1       4.416   4.064  18.063  0.00  0.00    +0.000 A 
ATOM     30  C   UNL     1       4.131   3.820  19.413  0.00  0.00    +0.000 A 
ENDBRANCH  17  29
ENDBRANCH   1  19
TORSDOF 3
ENDMDL
MODEL 8
REMARK VINA RESULT:      -8.7      1.149      1.427
REMARK  Name = 
REMARK  4 active torsions:
REMARK  status: ('A' for Active; 'I' for Inactive)
REMARK    1  A    between atoms: C_1  and  C_2
REMARK    2  A    between atoms: C_7  and  C_8
REMARK    3  A    between atoms: C_10  and  N_11
REMARK    4  A    between atoms: C_12  and  C_14
REMARK                            x       y       z     vdW  Elec       q    Type
REMARK                         _______ _______ _______ _____ _____    ______ ____
ROOT
ATOM      1  N   UNL     1       7.707   8.986  17.354  0.00  0.00    +0.000 N 
ATOM      2  C   UNL     1       8.637   9.517  18.314  0.00  0.00    +0.000 C 
ATOM      3  O   UNL     1       8.970   8.874  19.295  0.00  0.00    +0.000 OA
ATOM      4  H   UNL     1       7.483   9.523  16.527  0.00  0.00    +0.000 HD
ENDROOT
BRANCH   2   5
ATOM      5  C   UNL     1       9.217  10.857  18.088  0.00  0.00    +0.000 A 
ATOM      6  C   UNL     1      10.569  11.067  17.800  0.00  0.00    +0.000 A 
ATOM      7  C   UNL     1      11.016  12.362  17.501  0.00  0.00    +0.000 A 
ATOM      8  C   UNL     1      10.122  13.435  17.521  0.00  0.00    +0.000 A 
ATOM      9  C   UNL     1       8.774  13.233  17.823  0.00  0.00    +0.000 A 
ATOM     10  C   UNL     1       8.322  11.939  18.089  0.00  0.00    +0.000 A 
ATOM     11  C   UNL     1       7.813  14.388  17.734  0.00  0.00    +0.000 C 
ATOM     12  C   UNL     1       8.504  15.679  18.131  0.00  0.00    +0.000 C 
ATOM     13  C   UNL     1       9.804  15.856  17.379  0.00  0.00    +0.000 C 
ATOM     14  O   UNL     1      10.224  16.956  17.036  0.00  0.00    +0.000 OA
ATOM     15  N   UNL     1      10.560  14.723  17.204  0.00  0.00    +0.000 N 
ATOM     16  H   UNL     1      11.483  14.877  16.817  0.00  0.00    +0.000 HD
ENDBRANCH   2   5
BRANCH   1  19
ATOM     17  C   UNL     1       5.800   5.950  17.748  0.00  0.00    +0.000 A 
ATOM     18  C   UNL     1       5.839   7.363  17.636  0.00  0.00    +0.000 A 
ATOM     19  C   UNL     1       7.156   7.711  17.482  0.00  0.00    +0.000 A 
ATOM     20  N   UNL     1       7.830   6.515  17.495  0.00  0.00    +0.000 N 
ATOM     21  N   UNL     1       7.043   5.444  17.696  0.00  0.00    +0.000 NA
ATOM     22  H   UNL     1       8.821   6.349  17.377  0.00  0.00    +0.000 HD
BRANCH  17  29
ATOM     23  C   UNL     1       1.658   4.778  20.318  0.00  0.00    +0.000 C 
ATOM     24  C   UNL     1       2.568   4.566  19.142  0.00  0.00    +0.000 A 
ATOM     25  C   UNL     1       2.225   3.655  18.135  0.00  0.00    +0.000 A 
ATOM     26  C   UNL     1       3.057   3.477  17.034  0.00  0.00    +0.000 A 
ATOM     27  C   UNL     1       4.228   4.217  16.933  0.00  0.00    +0.000 A 
ATOM     28  F   UNL     1       4.995   4.027  15.847  0.00  0.00    +0.000 F 
ATOM     29  C   UNL     1       4.599   5.138  17.921  0.00  0.00    +0.000 A 
ATOM     30  C   UNL     1       3.765   5.299  19.035  0.00  0.00    +0.000 A 
ENDBRANCH  17  29
ENDBRANCH   1  19
TORSDOF 3
ENDMDL
MODEL 9
REMARK VINA RESULT:      -8.6      7.218      9.105
REMARK  Name = 
REMARK  4 active torsions:
REMARK  status: ('A' for Active; 'I' for Inactive)
REMARK    1  A    between atoms: C_1  and  C_2
REMARK    2  A    between atoms: C_7  and  C_8
REMARK    3  A    between atoms: C_10  and  N_11
REMARK    4  A    between atoms: C_12  and  C_14
REMARK                            x       y       z     vdW  Elec       q    Type
REMARK                         _______ _______ _______ _____ _____    ______ ____
ROOT
ATOM      1  N   UNL     1       1.452   8.469  19.258  0.00  0.00    +0.000 N 
ATOM      2  C   UNL     1       1.060   9.032  20.523  0.00  0.00    +0.000 C 
ATOM      3  O   UNL     1       1.517   8.612  21.571  0.00  0.00    +0.000 OA
ATOM      4  H   UNL     1       1.091   8.866  18.402  0.00  0.00    +0.000 HD
ENDROOT
BRANCH   2   5
ATOM      5  C   UNL     1       0.106  10.160  20.542  0.00  0.00    +0.000 A 
ATOM      6  C   UNL     1      -0.367  10.782  19.382  0.00  0.00    +0.000 A 
ATOM      7  C   UNL     1      -1.347  11.780  19.487  0.00  0.00    +0.000 A 
ATOM      8  C   UNL     1      -1.821  12.168  20.742  0.00  0.00    +0.000 A 
ATOM      9  C   UNL     1      -1.341  11.561  21.904  0.00  0.00    +0.000 A 
ATOM     10  C   UNL     1      -0.389  10.545  21.798  0.00  0.00    +0.000 A 
ATOM     11  C   UNL     1      -1.944  11.923  23.234  0.00  0.00    +0.000 C 
ATOM     12  C   UNL     1      -2.357  13.384  23.244  0.00  0.00    +0.000 C 
ATOM     13  C   UNL     1      -3.199  13.721  22.035  0.00  0.00    +0.000 C 
ATOM     14  O   UNL     1      -4.110  14.542  22.072  0.00  0.00    +0.000 OA
ATOM     15  N   UNL     1      -2.812  13.148  20.849  0.00  0.00    +0.000 N 
ATOM     16  H   UNL     1      -3.301  13.483  20.028  0.00  0.00    +0.000 HD
ENDBRANCH   2   5
BRANCH   1  19
ATOM     17  C   UNL     1       4.000   6.020  18.536  0.00  0.00    +0.000 A 
ATOM     18  C   UNL     1       3.323   7.217  18.192  0.00  0.00    +0.000 A 
ATOM     19  C   UNL     1       2.381   7.433  19.165  0.00  0.00    +0.000 A 
ATOM     20  N   UNL     1       2.543   6.384  20.036  0.00  0.00    +0.000 N 
ATOM     21  N   UNL     1       3.480   5.497  19.658  0.00  0.00    +0.000 NA
ATOM     22  H   UNL     1       2.052   6.202  20.901  0.00  0.00    +0.000 HD
BRANCH  17  29
ATOM     23  C   UNL     1       5.836   4.134  14.270  0.00  0.00    +0.000 C 
ATOM     24  C   UNL     1       6.012   4.505  15.714  0.00  0.00    +0.000 A 
ATOM     25  C   UNL     1       7.259   4.366  16.336  0.00  0.00    +0.000 A 
ATOM     26  C   UNL     1       7.427   4.733  17.668  0.00  0.00    +0.000 A 
ATOM     27  C   UNL     1       6.350   5.251  18.376  0.00  0.00    +0.000 A 
ATOM     28  F   UNL     1       6.557   5.608  19.654  0.00  0.00    +0.000 F 
ATOM     29  C   UNL     1       5.090   5.407  17.783  0.00  0.00    +0.000 A 
ATOM     30  C   UNL     1       4.925   5.017  16.447  0.00  0.00    +0.000 A 
ENDBRANCH  17  29
ENDBRANCH   1  19
TORSDOF 3
ENDMDL
