MODEL 1
REMARK VINA RESULT:      -8.3      0.000      0.000
REMARK  Name = 
REMARK  4 active torsions:
REMARK  status: ('A' for Active; 'I' for Inactive)
REMARK    1  A    between atoms: N_3  and  C_4
REMARK    2  A    between atoms: C_10  and  C_11
REMARK    3  A    between atoms: N_16  and  C_17
REMARK    4  A    between atoms: C_22  and  C_23
REMARK                            x       y       z     vdW  Elec       q    Type
REMARK                         _______ _______ _______ _____ _____    ______ ____
ROOT
ATOM      1  O   UNL     1       1.870   6.504  17.924  0.00  0.00    +0.000 OA
ATOM      2  C   UNL     1       2.250   6.597  19.084  0.00  0.00    +0.000 C 
ATOM      3  N   UNL     1       2.674   5.514  19.857  0.00  0.00    +0.000 N 
ATOM      4  N   UNL     1       2.283   7.749  19.853  0.00  0.00    +0.000 N 
ATOM      5  H   UNL     1       2.233   5.563  20.766  0.00  0.00    +0.000 HD
ATOM      6  H   UNL     1       2.993   7.713  20.579  0.00  0.00    +0.000 HD
ENDROOT
BRANCH   3   7
ATOM      7  C   UNL     1       2.698   4.224  19.278  0.00  0.00    +0.000 A 
ATOM      8  C   UNL     1       1.483   3.531  19.199  0.00  0.00    +0.000 A 
ATOM      9  C   UNL     1       1.451   2.260  18.643  0.00  0.00    +0.000 A 
ATOM     10  F   UNL     1       0.282   1.617  18.538  0.00  0.00    +0.000 F 
ATOM     11  C   UNL     1       2.614   1.647  18.197  0.00  0.00    +0.000 A 
ATOM     12  C   UNL     1       3.832   2.325  18.293  0.00  0.00    +0.000 A 
ATOM     13  C   UNL     1       3.896   3.630  18.825  0.00  0.00    +0.000 A 
BRANCH  13  14
ATOM     14  C   UNL     1       5.193   4.290  18.973  0.00  0.00    +0.000 A 
ATOM     15  N   UNL     1       5.547   5.218  19.845  0.00  0.00    +0.000 NA
ATOM     16  N   UNL     1       6.876   5.493  19.611  0.00  0.00    +0.000 NA
ATOM     17  N   UNL     1       7.342   4.759  18.614  0.00  0.00    +0.000 NA
ATOM     18  N   UNL     1       6.300   4.023  18.206  0.00  0.00    +0.000 N 
ATOM     19  H   UNL     1       6.416   3.379  17.437  0.00  0.00    +0.000 HD
ENDBRANCH  13  14
ENDBRANCH   3   7
BRANCH   4  20
ATOM     20  C   UNL     1       1.707   9.008  19.559  0.00  0.00    +0.000 A 
ATOM     21  C   UNL     1       2.049   9.711  18.396  0.00  0.00    +0.000 A 
ATOM     22  C   UNL     1       1.447  10.934  18.086  0.00  0.00    +0.000 A 
ATOM     23  C   UNL     1       0.485  11.477  18.927  0.00  0.00    +0.000 A 
ATOM     24  C   UNL     1       0.128  10.790  20.084  0.00  0.00    +0.000 A 
ATOM     25  C   UNL     1       0.729   9.554  20.417  0.00  0.00    +0.000 A 
BRANCH  25  26
ATOM     26  C   UNL     1       0.281   8.904  21.701  0.00  0.00    +0.000 C 
ATOM     27  F   UNL     1      -0.582   9.658  22.441  0.00  0.00    +0.000 F 
ATOM     28  F   UNL     1      -0.348   7.715  21.493  0.00  0.00    +0.000 F 
ATOM     29  F   UNL     1       1.324   8.630  22.534  0.00  0.00    +0.000 F 
ENDBRANCH  25  26
ENDBRANCH   4  20
TORSDOF 4
ENDMDL
MODEL 2
REMARK VINA RESULT:      -8.2      4.058      6.005
REMARK  Name = 
REMARK  4 active torsions:
REMARK  status: ('A' for Active; 'I' for Inactive)
REMARK    1  A    between atoms: N_3  and  C_4
REMARK    2  A    between atoms: C_10  and  C_11
REMARK    3  A    between atoms: N_16  and  C_17
REMARK    4  A    between atoms: C_22  and  C_23
REMARK                            x       y       z     vdW  Elec       q    Type
REMARK                         _______ _______ _______ _____ _____    ______ ____
ROOT
ATOM      1  O   UNL     1       4.174   5.544  16.891  0.00  0.00    +0.000 OA
ATOM      2  C   UNL     1       4.591   4.493  17.360  0.00  0.00    +0.000 C 
ATOM      3  N   UNL     1       5.572   3.703  16.758  0.00  0.00    +0.000 N 
ATOM      4  N   UNL     1       4.148   3.871  18.517  0.00  0.00    +0.000 N 
ATOM      5  H   UNL     1       5.270   2.737  16.764  0.00  0.00    +0.000 HD
ATOM      6  H   UNL     1       4.864   3.292  18.946  0.00  0.00    +0.000 HD
ENDROOT
BRANCH   3   7
ATOM      7  C   UNL     1       6.153   4.136  15.543  0.00  0.00    +0.000 A 
ATOM      8  C   UNL     1       5.858   3.398  14.390  0.00  0.00    +0.000 A 
ATOM      9  C   UNL     1       6.405   3.777  13.172  0.00  0.00    +0.000 A 
ATOM     10  F   UNL     1       6.092   3.089  12.067  0.00  0.00    +0.000 F 
ATOM     11  C   UNL     1       7.272   4.856  13.085  0.00  0.00    +0.000 A 
ATOM     12  C   UNL     1       7.587   5.584  14.236  0.00  0.00    +0.000 A 
ATOM     13  C   UNL     1       7.026   5.244  15.485  0.00  0.00    +0.000 A 
BRANCH  13  14
ATOM     14  C   UNL     1       7.423   5.982  16.683  0.00  0.00    +0.000 A 
ATOM     15  N   UNL     1       7.803   5.502  17.855  0.00  0.00    +0.000 NA
ATOM     16  N   UNL     1       8.111   6.587  18.645  0.00  0.00    +0.000 NA
ATOM     17  N   UNL     1       7.925   7.719  17.987  0.00  0.00    +0.000 NA
ATOM     18  N   UNL     1       7.485   7.350  16.777  0.00  0.00    +0.000 N 
ATOM     19  H   UNL     1       7.265   8.058  16.090  0.00  0.00    +0.000 HD
ENDBRANCH  13  14
ENDBRANCH   3   7
BRANCH   4  20
ATOM     20  C   UNL     1       3.005   4.183  19.289  0.00  0.00    +0.000 A 
ATOM     21  C   UNL     1       2.942   5.355  20.056  0.00  0.00    +0.000 A 
ATOM     22  C   UNL     1       1.795   5.683  20.785  0.00  0.00    +0.000 A 
ATOM     23  C   UNL     1       0.683   4.852  20.756  0.00  0.00    +0.000 A 
ATOM     24  C   UNL     1       0.725   3.687  19.995  0.00  0.00    +0.000 A 
ATOM     25  C   UNL     1       1.877   3.336  19.255  0.00  0.00    +0.000 A 
BRANCH  25  26
ATOM     26  C   UNL     1       1.821   2.045  18.479  0.00  0.00    +0.000 C 
ATOM     27  F   UNL     1       2.152   2.168  17.161  0.00  0.00    +0.000 F 
ATOM     28  F   UNL     1       2.654   1.094  18.984  0.00  0.00    +0.000 F 
ATOM     29  F   UNL     1       0.576   1.490  18.487  0.00  0.00    +0.000 F 
ENDBRANCH  25  26
ENDBRANCH   4  20
TORSDOF 4
ENDMDL
MODEL 3
REMARK VINA RESULT:      -8.0      3.923      6.005
REMARK  Name = 
REMARK  4 active torsions:
REMARK  status: ('A' for Active; 'I' for Inactive)
REMARK    1  A    between atoms: N_3  and  C_4
REMARK    2  A    between atoms: C_10  and  C_11
REMARK    3  A    between atoms: N_16  and  C_17
REMARK    4  A    between atoms: C_22  and  C_23
REMARK                            x       y       z     vdW  Elec       q    Type
REMARK                         _______ _______ _______ _____ _____    ______ ____
ROOT
ATOM      1  O   UNL     1       3.929   4.813  16.261  0.00  0.00    +0.000 OA
ATOM      2  C   UNL     1       4.530   3.875  16.769  0.00  0.00    +0.000 C 
ATOM      3  N   UNL     1       5.726   3.352  16.273  0.00  0.00    +0.000 N 
ATOM      4  N   UNL     1       4.128   3.134  17.869  0.00  0.00    +0.000 N 
ATOM      5  H   UNL     1       5.660   2.343  16.243  0.00  0.00    +0.000 HD
ATOM      6  H   UNL     1       4.911   2.725  18.371  0.00  0.00    +0.000 HD
ENDROOT
BRANCH   3   7
ATOM      7  C   UNL     1       6.312   3.943  15.130  0.00  0.00    +0.000 A 
ATOM      8  C   UNL     1       6.109   3.305  13.900  0.00  0.00    +0.000 A 
ATOM      9  C   UNL     1       6.665   3.841  12.746  0.00  0.00    +0.000 A 
ATOM     10  F   UNL     1       6.438   3.247  11.569  0.00  0.00    +0.000 F 
ATOM     11  C   UNL     1       7.454   4.981  12.798  0.00  0.00    +0.000 A 
ATOM     12  C   UNL     1       7.678   5.610  14.027  0.00  0.00    +0.000 A 
ATOM     13  C   UNL     1       7.104   5.109  15.213  0.00  0.00    +0.000 A 
BRANCH  13  14
ATOM     14  C   UNL     1       7.408   5.750  16.492  0.00  0.00    +0.000 A 
ATOM     15  N   UNL     1       7.644   5.178  17.661  0.00  0.00    +0.000 NA
ATOM     16  N   UNL     1       7.917   6.194  18.550  0.00  0.00    +0.000 NA
ATOM     17  N   UNL     1       7.850   7.374  17.954  0.00  0.00    +0.000 NA
ATOM     18  N   UNL     1       7.521   7.104  16.684  0.00  0.00    +0.000 N 
ATOM     19  H   UNL     1       7.405   7.864  16.028  0.00  0.00    +0.000 HD
ENDBRANCH  13  14
ENDBRANCH   3   7
BRANCH   4  20
ATOM     20  C   UNL     1       2.869   3.149  18.515  0.00  0.00    +0.000 A 
ATOM     21  C   UNL     1       1.959   2.093  18.361  0.00  0.00    +0.000 A 
ATOM     22  C   UNL     1       0.734   2.089  19.035  0.00  0.00    +0.000 A 
ATOM     23  C   UNL     1       0.395   3.135  19.882  0.00  0.00    +0.000 A 
ATOM     24  C   UNL     1       1.289   4.189  20.052  0.00  0.00    +0.000 A 
ATOM     25  C   UNL     1       2.530   4.213  19.377  0.00  0.00    +0.000 A 
BRANCH  25  26
ATOM     26  C   UNL     1       3.414   5.409  19.620  0.00  0.00    +0.000 C 
ATOM     27  F   UNL     1       4.726   5.103  19.837  0.00  0.00    +0.000 F 
ATOM     28  F   UNL     1       3.405   6.287  18.579  0.00  0.00    +0.000 F 
ATOM     29  F   UNL     1       3.027   6.126  20.712  0.00  0.00    +0.000 F 
ENDBRANCH  25  26
ENDBRANCH   4  20
TORSDOF 4
ENDMDL
MODEL 4
REMARK VINA RESULT:      -7.8      1.770      2.373
REMARK  Name = 
REMARK  4 active torsions:
REMARK  status: ('A' for Active; 'I' for Inactive)
REMARK    1  A    between atoms: N_3  and  C_4
REMARK    2  A    between atoms: C_10  and  C_11
REMARK    3  A    between atoms: N_16  and  C_17
REMARK    4  A    between atoms: C_22  and  C_23
REMARK                            x       y       z     vdW  Elec       q    Type
REMARK                         _______ _______ _______ _____ _____    ______ ____
ROOT
ATOM      1  O   UNL     1       0.999   5.729  20.146  0.00  0.00    +0.000 OA
ATOM      2  C   UNL     1       1.926   6.368  19.666  0.00  0.00    +0.000 C 
ATOM      3  N   UNL     1       3.005   5.792  18.992  0.00  0.00    +0.000 N 
ATOM      4  N   UNL     1       2.111   7.739  19.739  0.00  0.00    +0.000 N 
ATOM      5  H   UNL     1       3.866   6.198  19.336  0.00  0.00    +0.000 HD
ATOM      6  H   UNL     1       2.654   8.102  18.960  0.00  0.00    +0.000 HD
ENDROOT
BRANCH   3   7
ATOM      7  C   UNL     1       3.038   4.388  18.820  0.00  0.00    +0.000 A 
ATOM      8  C   UNL     1       1.810   3.718  18.771  0.00  0.00    +0.000 A 
ATOM      9  C   UNL     1       1.785   2.339  18.608  0.00  0.00    +0.000 A 
ATOM     10  F   UNL     1       0.608   1.707  18.527  0.00  0.00    +0.000 F 
ATOM     11  C   UNL     1       2.962   1.609  18.530  0.00  0.00    +0.000 A 
ATOM     12  C   UNL     1       4.191   2.271  18.599  0.00  0.00    +0.000 A 
ATOM     13  C   UNL     1       4.253   3.674  18.735  0.00  0.00    +0.000 A 
BRANCH  13  14
ATOM     14  C   UNL     1       5.551   4.333  18.870  0.00  0.00    +0.000 A 
ATOM     15  N   UNL     1       5.948   5.182  19.802  0.00  0.00    +0.000 NA
ATOM     16  N   UNL     1       7.260   5.492  19.522  0.00  0.00    +0.000 NA
ATOM     17  N   UNL     1       7.674   4.857  18.437  0.00  0.00    +0.000 NA
ATOM     18  N   UNL     1       6.616   4.150  18.022  0.00  0.00    +0.000 N 
ATOM     19  H   UNL     1       6.692   3.579  17.192  0.00  0.00    +0.000 HD
ENDBRANCH  13  14
ENDBRANCH   3   7
BRANCH   4  20
ATOM     20  C   UNL     1       1.408   8.670  20.540  0.00  0.00    +0.000 A 
ATOM     21  C   UNL     1       1.282   8.490  21.924  0.00  0.00    +0.000 A 
ATOM     22  C   UNL     1       0.625   9.434  22.720  0.00  0.00    +0.000 A 
ATOM     23  C   UNL     1       0.087  10.580  22.151  0.00  0.00    +0.000 A 
ATOM     24  C   UNL     1       0.208  10.779  20.778  0.00  0.00    +0.000 A 
ATOM     25  C   UNL     1       0.865   9.835  19.957  0.00  0.00    +0.000 A 
BRANCH  25  26
ATOM     26  C   UNL     1       0.925  10.141  18.482  0.00  0.00    +0.000 C 
ATOM     27  F   UNL     1       0.476   9.131  17.681  0.00  0.00    +0.000 F 
ATOM     28  F   UNL     1       0.191  11.237  18.145  0.00  0.00    +0.000 F 
ATOM     29  F   UNL     1       2.194  10.399  18.057  0.00  0.00    +0.000 F 
ENDBRANCH  25  26
ENDBRANCH   4  20
TORSDOF 4
ENDMDL
MODEL 5
REMARK VINA RESULT:      -7.7      2.565      3.575
REMARK  Name = 
REMARK  4 active torsions:
REMARK  status: ('A' for Active; 'I' for Inactive)
REMARK    1  A    between atoms: N_3  and  C_4
REMARK    2  A    between atoms: C_10  and  C_11
REMARK    3  A    between atoms: N_16  and  C_17
REMARK    4  A    between atoms: C_22  and  C_23
REMARK                            x       y       z     vdW  Elec       q    Type
REMARK                         _______ _______ _______ _____ _____    ______ ____
ROOT
ATOM      1  O   UNL     1       2.360   8.509  17.609  0.00  0.00    +0.000 OA
ATOM      2  C   UNL     1       2.218   8.041  18.731  0.00  0.00    +0.000 C 
ATOM      3  N   UNL     1       2.671   6.777  19.115  0.00  0.00    +0.000 N 
ATOM      4  N   UNL     1       1.552   8.630  19.794  0.00  0.00    +0.000 N 
ATOM      5  H   UNL     1       1.934   6.298  19.616  0.00  0.00    +0.000 HD
ATOM      6  H   UNL     1       1.900   8.316  20.696  0.00  0.00    +0.000 HD
ENDROOT
BRANCH   3   7
ATOM      7  C   UNL     1       3.363   5.981  18.173  0.00  0.00    +0.000 A 
ATOM      8  C   UNL     1       4.291   6.624  17.345  0.00  0.00    +0.000 A 
ATOM      9  C   UNL     1       4.995   5.890  16.400  0.00  0.00    +0.000 A 
ATOM     10  F   UNL     1       5.906   6.503  15.635  0.00  0.00    +0.000 F 
ATOM     11  C   UNL     1       4.765   4.531  16.237  0.00  0.00    +0.000 A 
ATOM     12  C   UNL     1       3.825   3.888  17.047  0.00  0.00    +0.000 A 
ATOM     13  C   UNL     1       3.114   4.598  18.037  0.00  0.00    +0.000 A 
BRANCH  13  14
ATOM     14  C   UNL     1       2.090   3.913  18.825  0.00  0.00    +0.000 A 
ATOM     15  N   UNL     1       1.809   4.058  20.109  0.00  0.00    +0.000 NA
ATOM     16  N   UNL     1       0.743   3.227  20.376  0.00  0.00    +0.000 NA
ATOM     17  N   UNL     1       0.368   2.574  19.288  0.00  0.00    +0.000 NA
ATOM     18  N   UNL     1       1.208   2.984  18.329  0.00  0.00    +0.000 N 
ATOM     19  H   UNL     1       1.118   2.611  17.394  0.00  0.00    +0.000 HD
ENDBRANCH  13  14
ENDBRANCH   3   7
BRANCH   4  20
ATOM     20  C   UNL     1       0.726   9.779  19.774  0.00  0.00    +0.000 A 
ATOM     21  C   UNL     1       0.728  10.658  18.682  0.00  0.00    +0.000 A 
ATOM     22  C   UNL     1      -0.121  11.768  18.645  0.00  0.00    +0.000 A 
ATOM     23  C   UNL     1      -0.995  12.020  19.694  0.00  0.00    +0.000 A 
ATOM     24  C   UNL     1      -1.015  11.155  20.784  0.00  0.00    +0.000 A 
ATOM     25  C   UNL     1      -0.162  10.029  20.842  0.00  0.00    +0.000 A 
BRANCH  25  26
ATOM     26  C   UNL     1      -0.254   9.168  22.075  0.00  0.00    +0.000 C 
ATOM     27  F   UNL     1       0.941   8.948  22.697  0.00  0.00    +0.000 F 
ATOM     28  F   UNL     1      -1.073   9.699  23.024  0.00  0.00    +0.000 F 
ATOM     29  F   UNL     1      -0.753   7.929  21.806  0.00  0.00    +0.000 F 
ENDBRANCH  25  26
ENDBRANCH   4  20
TORSDOF 4
ENDMDL
MODEL 6
REMARK VINA RESULT:      -7.6      2.566      3.349
REMARK  Name = 
REMARK  4 active torsions:
REMARK  status: ('A' for Active; 'I' for Inactive)
REMARK    1  A    between atoms: N_3  and  C_4
REMARK    2  A    between atoms: C_10  and  C_11
REMARK    3  A    between atoms: N_16  and  C_17
REMARK    4  A    between atoms: C_22  and  C_23
REMARK                            x       y       z     vdW  Elec       q    Type
REMARK                         _______ _______ _______ _____ _____    ______ ____
ROOT
ATOM      1  O   UNL     1       2.292   8.363  18.044  0.00  0.00    +0.000 OA
ATOM      2  C   UNL     1       2.126   7.970  19.191  0.00  0.00    +0.000 C 
ATOM      3  N   UNL     1       2.567   6.733  19.665  0.00  0.00    +0.000 N 
ATOM      4  N   UNL     1       1.443   8.630  20.200  0.00  0.00    +0.000 N 
ATOM      5  H   UNL     1       1.818   6.291  20.182  0.00  0.00    +0.000 HD
ATOM      6  H   UNL     1       1.773   8.374  21.127  0.00  0.00    +0.000 HD
ENDROOT
BRANCH   3   7
ATOM      7  C   UNL     1       3.273   5.874  18.791  0.00  0.00    +0.000 A 
ATOM      8  C   UNL     1       3.917   6.461  17.695  0.00  0.00    +0.000 A 
ATOM      9  C   UNL     1       4.621   5.663  16.803  0.00  0.00    +0.000 A 
ATOM     10  F   UNL     1       5.264   6.233  15.777  0.00  0.00    +0.000 F 
ATOM     11  C   UNL     1       4.664   4.285  16.960  0.00  0.00    +0.000 A 
ATOM     12  C   UNL     1       4.005   3.692  18.041  0.00  0.00    +0.000 A 
ATOM     13  C   UNL     1       3.306   4.476  18.982  0.00  0.00    +0.000 A 
BRANCH  13  14
ATOM     14  C   UNL     1       2.572   3.823  20.066  0.00  0.00    +0.000 A 
ATOM     15  N   UNL     1       1.281   3.895  20.342  0.00  0.00    +0.000 NA
ATOM     16  N   UNL     1       1.064   3.078  21.430  0.00  0.00    +0.000 NA
ATOM     17  N   UNL     1       2.192   2.511  21.827  0.00  0.00    +0.000 NA
ATOM     18  N   UNL     1       3.130   2.981  20.995  0.00  0.00    +0.000 N 
ATOM     19  H   UNL     1       4.090   2.687  21.110  0.00  0.00    +0.000 HD
ENDBRANCH  13  14
ENDBRANCH   3   7
BRANCH   4  20
ATOM     20  C   UNL     1       0.622   9.778  20.089  0.00  0.00    +0.000 A 
ATOM     21  C   UNL     1       0.555  10.512  18.897  0.00  0.00    +0.000 A 
ATOM     22  C   UNL     1      -0.289  11.620  18.775  0.00  0.00    +0.000 A 
ATOM     23  C   UNL     1      -1.090  12.013  19.839  0.00  0.00    +0.000 A 
ATOM     24  C   UNL     1      -1.041  11.292  21.029  0.00  0.00    +0.000 A 
ATOM     25  C   UNL     1      -0.191  10.172  21.173  0.00  0.00    +0.000 A 
BRANCH  25  26
ATOM     26  C   UNL     1      -0.204   9.475  22.509  0.00  0.00    +0.000 C 
ATOM     27  F   UNL     1       1.034   9.255  23.040  0.00  0.00    +0.000 F 
ATOM     28  F   UNL     1      -0.896  10.168  23.454  0.00  0.00    +0.000 F 
ATOM     29  F   UNL     1      -0.791   8.246  22.447  0.00  0.00    +0.000 F 
ENDBRANCH  25  26
ENDBRANCH   4  20
TORSDOF 4
ENDMDL
MODEL 7
REMARK VINA RESULT:      -7.6      1.293      1.505
REMARK  Name = 
REMARK  4 active torsions:
REMARK  status: ('A' for Active; 'I' for Inactive)
REMARK    1  A    between atoms: N_3  and  C_4
REMARK    2  A    between atoms: C_10  and  C_11
REMARK    3  A    between atoms: N_16  and  C_17
REMARK    4  A    between atoms: C_22  and  C_23
REMARK                            x       y       z     vdW  Elec       q    Type
REMARK                         _______ _______ _______ _____ _____    ______ ____
ROOT
ATOM      1  O   UNL     1       1.410   7.265  17.794  0.00  0.00    +0.000 OA
ATOM      2  C   UNL     1       1.933   7.287  18.900  0.00  0.00    +0.000 C 
ATOM      3  N   UNL     1       2.539   6.181  19.501  0.00  0.00    +0.000 N 
ATOM      4  N   UNL     1       1.980   8.364  19.771  0.00  0.00    +0.000 N 
ATOM      5  H   UNL     1       2.220   6.109  20.458  0.00  0.00    +0.000 HD
ATOM      6  H   UNL     1       2.781   8.326  20.396  0.00  0.00    +0.000 HD
ENDROOT
BRANCH   3   7
ATOM      7  C   UNL     1       2.585   4.956  18.796  0.00  0.00    +0.000 A 
ATOM      8  C   UNL     1       1.557   4.037  19.037  0.00  0.00    +0.000 A 
ATOM      9  C   UNL     1       1.556   2.817  18.374  0.00  0.00    +0.000 A 
ATOM     10  F   UNL     1       0.552   1.956  18.581  0.00  0.00    +0.000 F 
ATOM     11  C   UNL     1       2.581   2.478  17.503  0.00  0.00    +0.000 A 
ATOM     12  C   UNL     1       3.622   3.383  17.275  0.00  0.00    +0.000 A 
ATOM     13  C   UNL     1       3.638   4.643  17.909  0.00  0.00    +0.000 A 
BRANCH  13  14
ATOM     14  C   UNL     1       4.772   5.544  17.703  0.00  0.00    +0.000 A 
ATOM     15  N   UNL     1       5.820   5.736  18.484  0.00  0.00    +0.000 NA
ATOM     16  N   UNL     1       6.629   6.648  17.844  0.00  0.00    +0.000 NA
ATOM     17  N   UNL     1       6.098   7.022  16.690  0.00  0.00    +0.000 NA
ATOM     18  N   UNL     1       4.941   6.352  16.606  0.00  0.00    +0.000 N 
ATOM     19  H   UNL     1       4.348   6.483  15.799  0.00  0.00    +0.000 HD
ENDBRANCH  13  14
ENDBRANCH   3   7
BRANCH   4  20
ATOM     20  C   UNL     1       1.275   9.587  19.681  0.00  0.00    +0.000 A 
ATOM     21  C   UNL     1       1.489  10.474  18.616  0.00  0.00    +0.000 A 
ATOM     22  C   UNL     1       0.760  11.662  18.505  0.00  0.00    +0.000 A 
ATOM     23  C   UNL     1      -0.203  11.986  19.451  0.00  0.00    +0.000 A 
ATOM     24  C   UNL     1      -0.435  11.114  20.512  0.00  0.00    +0.000 A 
ATOM     25  C   UNL     1       0.295   9.911  20.643  0.00  0.00    +0.000 A 
BRANCH  25  26
ATOM     26  C   UNL     1      -0.023   9.049  21.838  0.00  0.00    +0.000 C 
ATOM     27  F   UNL     1      -0.593   7.848  21.528  0.00  0.00    +0.000 F 
ATOM     28  F   UNL     1       1.080   8.756  22.580  0.00  0.00    +0.000 F 
ATOM     29  F   UNL     1      -0.896   9.651  22.694  0.00  0.00    +0.000 F 
ENDBRANCH  25  26
ENDBRANCH   4  20
TORSDOF 4
ENDMDL
MODEL 8
REMARK VINA RESULT:      -7.6      1.311      1.532
REMARK  Name = 
REMARK  4 active torsions:
REMARK  status: ('A' for Active; 'I' for Inactive)
REMARK    1  A    between atoms: N_3  and  C_4
REMARK    2  A    between atoms: C_10  and  C_11
REMARK    3  A    between atoms: N_16  and  C_17
REMARK    4  A    between atoms: C_22  and  C_23
REMARK                            x       y       z     vdW  Elec       q    Type
REMARK                         _______ _______ _______ _____ _____    ______ ____
ROOT
ATOM      1  O   UNL     1       1.399   7.280  17.765  0.00  0.00    +0.000 OA
ATOM      2  C   UNL     1       1.964   7.333  18.850  0.00  0.00    +0.000 C 
ATOM      3  N   UNL     1       2.637   6.258  19.434  0.00  0.00    +0.000 N 
ATOM      4  N   UNL     1       2.002   8.420  19.709  0.00  0.00    +0.000 N 
ATOM      5  H   UNL     1       2.360   6.182  20.404  0.00  0.00    +0.000 HD
ATOM      6  H   UNL     1       2.828   8.420  20.302  0.00  0.00    +0.000 HD
ENDROOT
BRANCH   3   7
ATOM      7  C   UNL     1       2.703   5.029  18.738  0.00  0.00    +0.000 A 
ATOM      8  C   UNL     1       1.681   4.101  18.971  0.00  0.00    +0.000 A 
ATOM      9  C   UNL     1       1.700   2.877  18.316  0.00  0.00    +0.000 A 
ATOM     10  F   UNL     1       0.701   2.009  18.515  0.00  0.00    +0.000 F 
ATOM     11  C   UNL     1       2.740   2.542  17.461  0.00  0.00    +0.000 A 
ATOM     12  C   UNL     1       3.775   3.456  17.242  0.00  0.00    +0.000 A 
ATOM     13  C   UNL     1       3.771   4.720  17.868  0.00  0.00    +0.000 A 
BRANCH  13  14
ATOM     14  C   UNL     1       4.899   5.630  17.670  0.00  0.00    +0.000 A 
ATOM     15  N   UNL     1       4.948   6.730  16.939  0.00  0.00    +0.000 NA
ATOM     16  N   UNL     1       6.210   7.257  17.102  0.00  0.00    +0.000 NA
ATOM     17  N   UNL     1       6.935   6.504  17.913  0.00  0.00    +0.000 NA
ATOM     18  N   UNL     1       6.133   5.488  18.255  0.00  0.00    +0.000 N 
ATOM     19  H   UNL     1       6.478   4.768  18.876  0.00  0.00    +0.000 HD
ENDBRANCH  13  14
ENDBRANCH   3   7
BRANCH   4  20
ATOM     20  C   UNL     1       1.246   9.613  19.637  0.00  0.00    +0.000 A 
ATOM     21  C   UNL     1       1.404  10.512  18.573  0.00  0.00    +0.000 A 
ATOM     22  C   UNL     1       0.625  11.669  18.481  0.00  0.00    +0.000 A 
ATOM     23  C   UNL     1      -0.334  11.949  19.445  0.00  0.00    +0.000 A 
ATOM     24  C   UNL     1      -0.509  11.065  20.506  0.00  0.00    +0.000 A 
ATOM     25  C   UNL     1       0.271   9.892  20.618  0.00  0.00    +0.000 A 
BRANCH  25  26
ATOM     26  C   UNL     1       0.010   9.013  21.815  0.00  0.00    +0.000 C 
ATOM     27  F   UNL     1       1.128   8.689  22.528  0.00  0.00    +0.000 F 
ATOM     28  F   UNL     1      -0.846   9.584  22.707  0.00  0.00    +0.000 F 
ATOM     29  F   UNL     1      -0.554   7.822  21.470  0.00  0.00    +0.000 F 
ENDBRANCH  25  26
ENDBRANCH   4  20
TORSDOF 4
ENDMDL
MODEL 9
REMARK VINA RESULT:      -7.6      2.627      3.658
REMARK  Name = 
REMARK  4 active torsions:
REMARK  status: ('A' for Active; 'I' for Inactive)
REMARK    1  A    between atoms: N_3  and  C_4
REMARK    2  A    between atoms: C_10  and  C_11
REMARK    3  A    between atoms: N_16  and  C_17
REMARK    4  A    between atoms: C_22  and  C_23
REMARK                            x       y       z     vdW  Elec       q    Type
REMARK                         _______ _______ _______ _____ _____    ______ ____
ROOT
ATOM      1  O   UNL     1       2.913   7.979  17.301  0.00  0.00    +0.000 OA
ATOM      2  C   UNL     1       2.829   7.533  18.438  0.00  0.00    +0.000 C 
ATOM      3  N   UNL     1       3.466   6.367  18.870  0.00  0.00    +0.000 N 
ATOM      4  N   UNL     1       2.068   8.049  19.475  0.00  0.00    +0.000 N 
ATOM      5  H   UNL     1       2.805   5.799  19.382  0.00  0.00    +0.000 HD
ATOM      6  H   UNL     1       2.449   7.823  20.389  0.00  0.00    +0.000 HD
ENDROOT
BRANCH   3   7
ATOM      7  C   UNL     1       4.283   5.655  17.962  0.00  0.00    +0.000 A 
ATOM      8  C   UNL     1       5.452   6.285  17.518  0.00  0.00    +0.000 A 
ATOM      9  C   UNL     1       6.289   5.631  16.623  0.00  0.00    +0.000 A 
ATOM     10  F   UNL     1       7.423   6.223  16.230  0.00  0.00    +0.000 F 
ATOM     11  C   UNL     1       5.964   4.376  16.131  0.00  0.00    +0.000 A 
ATOM     12  C   UNL     1       4.787   3.751  16.554  0.00  0.00    +0.000 A 
ATOM     13  C   UNL     1       3.930   4.374  17.485  0.00  0.00    +0.000 A 
BRANCH  13  14
ATOM     14  C   UNL     1       2.674   3.726  17.860  0.00  0.00    +0.000 A 
ATOM     15  N   UNL     1       1.439   4.108  17.584  0.00  0.00    +0.000 NA
ATOM     16  N   UNL     1       0.601   3.153  18.118  0.00  0.00    +0.000 NA
ATOM     17  N   UNL     1       1.295   2.198  18.717  0.00  0.00    +0.000 NA
ATOM     18  N   UNL     1       2.577   2.556  18.573  0.00  0.00    +0.000 N 
ATOM     19  H   UNL     1       3.304   1.972  18.962  0.00  0.00    +0.000 HD
ENDBRANCH  13  14
ENDBRANCH   3   7
BRANCH   4  20
ATOM     20  C   UNL     1       1.076   9.056  19.408  0.00  0.00    +0.000 A 
ATOM     21  C   UNL     1       0.699   9.626  18.184  0.00  0.00    +0.000 A 
ATOM     22  C   UNL     1      -0.312  10.590  18.115  0.00  0.00    +0.000 A 
ATOM     23  C   UNL     1      -0.972  10.999  19.265  0.00  0.00    +0.000 A 
ATOM     24  C   UNL     1      -0.615  10.439  20.489  0.00  0.00    +0.000 A 
ATOM     25  C   UNL     1       0.406   9.467  20.580  0.00  0.00    +0.000 A 
BRANCH  25  26
ATOM     26  C   UNL     1       0.724   8.940  21.955  0.00  0.00    +0.000 C 
ATOM     27  F   UNL     1       1.960   9.287  22.418  0.00  0.00    +0.000 F 
ATOM     28  F   UNL     1      -0.159   9.371  22.898  0.00  0.00    +0.000 F 
ATOM     29  F   UNL     1       0.689   7.579  22.010  0.00  0.00    +0.000 F 
ENDBRANCH  25  26
ENDBRANCH   4  20
TORSDOF 4
ENDMDL
