MODEL 1
REMARK VINA RESULT:      -9.0      0.000      0.000
REMARK  Name = 
REMARK  4 active torsions:
REMARK  status: ('A' for Active; 'I' for Inactive)
REMARK    1  A    between atoms: C_1  and  C_2
REMARK    2  A    between atoms: C_7  and  C_9
REMARK    3  A    between atoms: C_12  and  C_13
REMARK    4  A    between atoms: C_13  and  N_14
REMARK                            x       y       z     vdW  Elec       q    Type
REMARK                         _______ _______ _______ _____ _____    ______ ____
ROOT
ATOM      1  C   UNL     1       7.914   8.077  18.098  0.00  0.00    +0.000 A 
ATOM      2  C   UNL     1       8.299   7.037  18.952  0.00  0.00    +0.000 A 
ATOM      3  C   UNL     1       7.648   5.789  18.879  0.00  0.00    +0.000 A 
ATOM      4  C   UNL     1       6.610   5.569  17.960  0.00  0.00    +0.000 A 
ATOM      5  C   UNL     1       6.260   6.602  17.082  0.00  0.00    +0.000 A 
ATOM      6  C   UNL     1       6.904   7.834  17.153  0.00  0.00    +0.000 A 
ENDROOT
BRANCH   1  13
ATOM      7  C   UNL     1      11.361  15.088  19.713  0.00  0.00    +0.000 C 
ATOM      8  C   UNL     1      10.847  13.687  19.627  0.00  0.00    +0.000 A 
ATOM      9  C   UNL     1      11.211  12.688  20.531  0.00  0.00    +0.000 A 
ATOM     10  C   UNL     1      10.692  11.396  20.387  0.00  0.00    +0.000 A 
ATOM     11  C   UNL     1       9.817  11.128  19.342  0.00  0.00    +0.000 A 
ATOM     12  N   UNL     1       9.291   9.822  19.194  0.00  0.00    +0.000 N 
ATOM     13  C   UNL     1       8.416   9.479  18.178  0.00  0.00    +0.000 C 
ATOM     14  O   UNL     1       7.994  10.237  17.297  0.00  0.00    +0.000 OA
ATOM     15  N   UNL     1       9.465  12.089  18.473  0.00  0.00    +0.000 NA
ATOM     16  C   UNL     1       9.972  13.329  18.617  0.00  0.00    +0.000 A 
ATOM     17  H   UNL     1       9.610   9.119  19.838  0.00  0.00    +0.000 HD
ENDBRANCH   1  13
BRANCH   4  18
ATOM     18  C   UNL     1       5.891   4.250  17.842  0.00  0.00    +0.000 C 
BRANCH  18  19
ATOM     19  N   UNL     1       4.891   3.953  18.867  0.00  0.00    +0.000 N 
ATOM     20  N   UNL     1       5.288   3.090  19.837  0.00  0.00    +0.000 NA
ATOM     21  N   UNL     1       4.285   2.255  20.064  0.00  0.00    +0.000 NA
ATOM     22  C   UNL     1       3.204   2.690  19.351  0.00  0.00    +0.000 A 
ATOM     23  C   UNL     1       1.927   2.131  19.201  0.00  0.00    +0.000 A 
ATOM     24  C   UNL     1       0.974   2.835  18.457  0.00  0.00    +0.000 A 
ATOM     25  C   UNL     1       1.284   4.075  17.893  0.00  0.00    +0.000 A 
ATOM     26  C   UNL     1       2.575   4.615  17.977  0.00  0.00    +0.000 A 
ATOM     27  C   UNL     1       3.524   3.871  18.687  0.00  0.00    +0.000 A 
ENDBRANCH  18  19
ENDBRANCH   4  18
TORSDOF 3
ENDMDL
MODEL 2
REMARK VINA RESULT:      -9.0      1.004      1.023
REMARK  Name = 
REMARK  4 active torsions:
REMARK  status: ('A' for Active; 'I' for Inactive)
REMARK    1  A    between atoms: C_1  and  C_2
REMARK    2  A    between atoms: C_7  and  C_9
REMARK    3  A    between atoms: C_12  and  C_13
REMARK    4  A    between atoms: C_13  and  N_14
REMARK                            x       y       z     vdW  Elec       q    Type
REMARK                         _______ _______ _______ _____ _____    ______ ____
ROOT
ATOM      1  C   UNL     1       7.751   7.742  18.092  0.00  0.00    +0.000 A 
ATOM      2  C   UNL     1       8.189   6.687  18.901  0.00  0.00    +0.000 A 
ATOM      3  C   UNL     1       7.466   5.478  18.933  0.00  0.00    +0.000 A 
ATOM      4  C   UNL     1       6.303   5.311  18.166  0.00  0.00    +0.000 A 
ATOM      5  C   UNL     1       5.897   6.356  17.326  0.00  0.00    +0.000 A 
ATOM      6  C   UNL     1       6.612   7.550  17.294  0.00  0.00    +0.000 A 
ENDROOT
BRANCH   1  13
ATOM      7  C   UNL     1      11.435  14.699  19.382  0.00  0.00    +0.000 C 
ATOM      8  C   UNL     1      10.839  13.329  19.383  0.00  0.00    +0.000 A 
ATOM      9  C   UNL     1      11.001  12.430  20.439  0.00  0.00    +0.000 A 
ATOM     10  C   UNL     1      10.416  11.160  20.369  0.00  0.00    +0.000 A 
ATOM     11  C   UNL     1       9.678  10.814  19.244  0.00  0.00    +0.000 A 
ATOM     12  N   UNL     1       9.085   9.531  19.171  0.00  0.00    +0.000 N 
ATOM     13  C   UNL     1       8.337   9.114  18.084  0.00  0.00    +0.000 C 
ATOM     14  O   UNL     1       8.097   9.779  17.070  0.00  0.00    +0.000 OA
ATOM     15  N   UNL     1       9.520  11.678  18.229  0.00  0.00    +0.000 NA
ATOM     16  C   UNL     1      10.089  12.897  18.303  0.00  0.00    +0.000 A 
ATOM     17  H   UNL     1       9.260   8.896  19.930  0.00  0.00    +0.000 HD
ENDBRANCH   1  13
BRANCH   4  18
ATOM     18  C   UNL     1       5.504   4.034  18.163  0.00  0.00    +0.000 C 
BRANCH  18  19
ATOM     19  N   UNL     1       4.831   3.678  19.412  0.00  0.00    +0.000 N 
ATOM     20  N   UNL     1       5.037   2.408  19.844  0.00  0.00    +0.000 NA
ATOM     21  N   UNL     1       3.875   1.939  20.273  0.00  0.00    +0.000 NA
ATOM     22  C   UNL     1       2.973   2.965  20.258  0.00  0.00    +0.000 A 
ATOM     23  C   UNL     1       1.604   2.979  20.556  0.00  0.00    +0.000 A 
ATOM     24  C   UNL     1       0.927   4.202  20.527  0.00  0.00    +0.000 A 
ATOM     25  C   UNL     1       1.606   5.385  20.224  0.00  0.00    +0.000 A 
ATOM     26  C   UNL     1       2.959   5.379  19.856  0.00  0.00    +0.000 A 
ATOM     27  C   UNL     1       3.604   4.136  19.849  0.00  0.00    +0.000 A 
ENDBRANCH  18  19
ENDBRANCH   4  18
TORSDOF 3
ENDMDL
MODEL 3
REMARK VINA RESULT:      -8.9      5.633      7.633
REMARK  Name = 
REMARK  4 active torsions:
REMARK  status: ('A' for Active; 'I' for Inactive)
REMARK    1  A    between atoms: C_1  and  C_2
REMARK    2  A    between atoms: C_7  and  C_9
REMARK    3  A    between atoms: C_12  and  C_13
REMARK    4  A    between atoms: C_13  and  N_14
REMARK                            x       y       z     vdW  Elec       q    Type
REMARK                         _______ _______ _______ _____ _____    ______ ____
ROOT
ATOM      1  C   UNL     1       1.723   7.646  19.955  0.00  0.00    +0.000 A 
ATOM      2  C   UNL     1       1.616   6.516  20.775  0.00  0.00    +0.000 A 
ATOM      3  C   UNL     1       2.035   5.258  20.297  0.00  0.00    +0.000 A 
ATOM      4  C   UNL     1       2.557   5.114  19.003  0.00  0.00    +0.000 A 
ATOM      5  C   UNL     1       2.700   6.257  18.206  0.00  0.00    +0.000 A 
ATOM      6  C   UNL     1       2.287   7.500  18.678  0.00  0.00    +0.000 A 
ENDROOT
BRANCH   1  13
ATOM      7  C   UNL     1      -1.782  14.180  22.897  0.00  0.00    +0.000 C 
ATOM      8  C   UNL     1      -1.238  12.831  22.555  0.00  0.00    +0.000 A 
ATOM      9  C   UNL     1      -1.480  11.696  23.330  0.00  0.00    +0.000 A 
ATOM     10  C   UNL     1      -0.935  10.464  22.950  0.00  0.00    +0.000 A 
ATOM     11  C   UNL     1      -0.158  10.391  21.801  0.00  0.00    +0.000 A 
ATOM     12  N   UNL     1       0.395   9.146  21.414  0.00  0.00    +0.000 N 
ATOM     13  C   UNL     1       1.179   8.995  20.284  0.00  0.00    +0.000 C 
ATOM     14  O   UNL     1       1.492   9.892  19.492  0.00  0.00    +0.000 OA
ATOM     15  N   UNL     1       0.075  11.482  21.054  0.00  0.00    +0.000 NA
ATOM     16  C   UNL     1      -0.452  12.664  21.429  0.00  0.00    +0.000 A 
ATOM     17  H   UNL     1       0.235   8.360  22.020  0.00  0.00    +0.000 HD
ENDBRANCH   1  13
BRANCH   4  18
ATOM     18  C   UNL     1       3.024   3.791  18.454  0.00  0.00    +0.000 C 
BRANCH  18  19
ATOM     19  N   UNL     1       4.466   3.622  18.286  0.00  0.00    +0.000 N 
ATOM     20  N   UNL     1       5.198   3.682  19.428  0.00  0.00    +0.000 NA
ATOM     21  N   UNL     1       6.281   4.400  19.171  0.00  0.00    +0.000 NA
ATOM     22  C   UNL     1       6.309   4.658  17.830  0.00  0.00    +0.000 A 
ATOM     23  C   UNL     1       7.203   5.422  17.068  0.00  0.00    +0.000 A 
ATOM     24  C   UNL     1       7.034   5.460  15.680  0.00  0.00    +0.000 A 
ATOM     25  C   UNL     1       6.007   4.737  15.067  0.00  0.00    +0.000 A 
ATOM     26  C   UNL     1       5.064   4.024  15.821  0.00  0.00    +0.000 A 
ATOM     27  C   UNL     1       5.227   4.038  17.211  0.00  0.00    +0.000 A 
ENDBRANCH  18  19
ENDBRANCH   4  18
TORSDOF 3
ENDMDL
MODEL 4
REMARK VINA RESULT:      -8.9      5.949      8.032
REMARK  Name = 
REMARK  4 active torsions:
REMARK  status: ('A' for Active; 'I' for Inactive)
REMARK    1  A    between atoms: C_1  and  C_2
REMARK    2  A    between atoms: C_7  and  C_9
REMARK    3  A    between atoms: C_12  and  C_13
REMARK    4  A    between atoms: C_13  and  N_14
REMARK                            x       y       z     vdW  Elec       q    Type
REMARK                         _______ _______ _______ _____ _____    ______ ____
ROOT
ATOM      1  C   UNL     1       1.616   8.119  20.231  0.00  0.00    +0.000 A 
ATOM      2  C   UNL     1       1.795   6.811  20.698  0.00  0.00    +0.000 A 
ATOM      3  C   UNL     1       2.287   5.816  19.831  0.00  0.00    +0.000 A 
ATOM      4  C   UNL     1       2.599   6.111  18.495  0.00  0.00    +0.000 A 
ATOM      5  C   UNL     1       2.457   7.432  18.049  0.00  0.00    +0.000 A 
ATOM      6  C   UNL     1       1.972   8.416  18.906  0.00  0.00    +0.000 A 
ENDROOT
BRANCH   1  13
ATOM      7  C   UNL     1      -2.566  14.295  23.061  0.00  0.00    +0.000 C 
ATOM      8  C   UNL     1      -1.905  13.193  22.298  0.00  0.00    +0.000 A 
ATOM      9  C   UNL     1      -2.162  12.943  20.949  0.00  0.00    +0.000 A 
ATOM     10  C   UNL     1      -1.506  11.889  20.299  0.00  0.00    +0.000 A 
ATOM     11  C   UNL     1      -0.606  11.107  21.011  0.00  0.00    +0.000 A 
ATOM     12  N   UNL     1       0.057  10.042  20.357  0.00  0.00    +0.000 N 
ATOM     13  C   UNL     1       0.966   9.220  21.000  0.00  0.00    +0.000 C 
ATOM     14  O   UNL     1       1.305   9.300  22.186  0.00  0.00    +0.000 OA
ATOM     15  N   UNL     1      -0.358  11.348  22.308  0.00  0.00    +0.000 NA
ATOM     16  C   UNL     1      -0.995  12.362  22.926  0.00  0.00    +0.000 A 
ATOM     17  H   UNL     1      -0.186   9.865  19.397  0.00  0.00    +0.000 HD
ENDBRANCH   1  13
BRANCH   4  18
ATOM     18  C   UNL     1       3.134   5.081  17.535  0.00  0.00    +0.000 C 
BRANCH  18  19
ATOM     19  N   UNL     1       4.512   4.640  17.745  0.00  0.00    +0.000 N 
ATOM     20  N   UNL     1       4.673   3.637  18.645  0.00  0.00    +0.000 NA
ATOM     21  N   UNL     1       5.731   3.932  19.387  0.00  0.00    +0.000 NA
ATOM     22  C   UNL     1       6.327   5.038  18.852  0.00  0.00    +0.000 A 
ATOM     23  C   UNL     1       7.432   5.779  19.291  0.00  0.00    +0.000 A 
ATOM     24  C   UNL     1       7.880   6.842  18.499  0.00  0.00    +0.000 A 
ATOM     25  C   UNL     1       7.251   7.145  17.290  0.00  0.00    +0.000 A 
ATOM     26  C   UNL     1       6.103   6.456  16.870  0.00  0.00    +0.000 A 
ATOM     27  C   UNL     1       5.647   5.427  17.701  0.00  0.00    +0.000 A 
ENDBRANCH  18  19
ENDBRANCH   4  18
TORSDOF 3
ENDMDL
MODEL 5
REMARK VINA RESULT:      -8.8      1.664      2.130
REMARK  Name = 
REMARK  4 active torsions:
REMARK  status: ('A' for Active; 'I' for Inactive)
REMARK    1  A    between atoms: C_1  and  C_2
REMARK    2  A    between atoms: C_7  and  C_9
REMARK    3  A    between atoms: C_12  and  C_13
REMARK    4  A    between atoms: C_13  and  N_14
REMARK                            x       y       z     vdW  Elec       q    Type
REMARK                         _______ _______ _______ _____ _____    ______ ____
ROOT
ATOM      1  C   UNL     1       7.324   7.007  17.848  0.00  0.00    +0.000 A 
ATOM      2  C   UNL     1       7.594   5.658  18.103  0.00  0.00    +0.000 A 
ATOM      3  C   UNL     1       6.654   4.672  17.740  0.00  0.00    +0.000 A 
ATOM      4  C   UNL     1       5.441   5.021  17.126  0.00  0.00    +0.000 A 
ATOM      5  C   UNL     1       5.199   6.370  16.837  0.00  0.00    +0.000 A 
ATOM      6  C   UNL     1       6.128   7.344  17.194  0.00  0.00    +0.000 A 
ENDROOT
BRANCH   1  13
ATOM      7  C   UNL     1      11.005  13.917  19.381  0.00  0.00    +0.000 C 
ATOM      8  C   UNL     1      10.175  12.765  18.914  0.00  0.00    +0.000 A 
ATOM      9  C   UNL     1       9.187  12.888  17.936  0.00  0.00    +0.000 A 
ATOM     10  C   UNL     1       8.446  11.764  17.550  0.00  0.00    +0.000 A 
ATOM     11  C   UNL     1       8.708  10.539  18.151  0.00  0.00    +0.000 A 
ATOM     12  N   UNL     1       7.959   9.402  17.763  0.00  0.00    +0.000 N 
ATOM     13  C   UNL     1       8.162   8.150  18.316  0.00  0.00    +0.000 C 
ATOM     14  O   UNL     1       8.989   7.867  19.190  0.00  0.00    +0.000 OA
ATOM     15  N   UNL     1       9.658  10.420  19.091  0.00  0.00    +0.000 NA
ATOM     16  C   UNL     1      10.365  11.507  19.458  0.00  0.00    +0.000 A 
ATOM     17  H   UNL     1       7.227   9.537  17.087  0.00  0.00    +0.000 HD
ENDBRANCH   1  13
BRANCH   4  18
ATOM     18  C   UNL     1       4.412   4.001  16.715  0.00  0.00    +0.000 C 
BRANCH  18  19
ATOM     19  N   UNL     1       3.793   3.224  17.787  0.00  0.00    +0.000 N 
ATOM     20  N   UNL     1       3.273   2.026  17.414  0.00  0.00    +0.000 NA
ATOM     21  N   UNL     1       2.105   1.890  18.026  0.00  0.00    +0.000 NA
ATOM     22  C   UNL     1       1.965   2.927  18.904  0.00  0.00    +0.000 A 
ATOM     23  C   UNL     1       0.895   3.274  19.740  0.00  0.00    +0.000 A 
ATOM     24  C   UNL     1       1.049   4.364  20.603  0.00  0.00    +0.000 A 
ATOM     25  C   UNL     1       2.249   5.079  20.642  0.00  0.00    +0.000 A 
ATOM     26  C   UNL     1       3.303   4.787  19.765  0.00  0.00    +0.000 A 
ATOM     27  C   UNL     1       3.108   3.721  18.879  0.00  0.00    +0.000 A 
ENDBRANCH  18  19
ENDBRANCH   4  18
TORSDOF 3
ENDMDL
MODEL 6
REMARK VINA RESULT:      -8.7      5.581      7.608
REMARK  Name = 
REMARK  4 active torsions:
REMARK  status: ('A' for Active; 'I' for Inactive)
REMARK    1  A    between atoms: C_1  and  C_2
REMARK    2  A    between atoms: C_7  and  C_9
REMARK    3  A    between atoms: C_12  and  C_13
REMARK    4  A    between atoms: C_13  and  N_14
REMARK                            x       y       z     vdW  Elec       q    Type
REMARK                         _______ _______ _______ _____ _____    ______ ____
ROOT
ATOM      1  C   UNL     1       1.711   7.404  20.317  0.00  0.00    +0.000 A 
ATOM      2  C   UNL     1       1.500   6.148  20.900  0.00  0.00    +0.000 A 
ATOM      3  C   UNL     1       1.905   4.982  20.221  0.00  0.00    +0.000 A 
ATOM      4  C   UNL     1       2.517   5.054  18.960  0.00  0.00    +0.000 A 
ATOM      5  C   UNL     1       2.762   6.317  18.405  0.00  0.00    +0.000 A 
ATOM      6  C   UNL     1       2.363   7.470  19.076  0.00  0.00    +0.000 A 
ENDROOT
BRANCH   1  13
ATOM      7  C   UNL     1      -1.650  14.471  21.866  0.00  0.00    +0.000 C 
ATOM      8  C   UNL     1      -1.125  13.179  21.330  0.00  0.00    +0.000 A 
ATOM      9  C   UNL     1      -1.365  12.744  20.026  0.00  0.00    +0.000 A 
ATOM     10  C   UNL     1      -0.843  11.518  19.594  0.00  0.00    +0.000 A 
ATOM     11  C   UNL     1      -0.090  10.752  20.475  0.00  0.00    +0.000 A 
ATOM     12  N   UNL     1       0.438   9.513  20.040  0.00  0.00    +0.000 N 
ATOM     13  C   UNL     1       1.196   8.695  20.859  0.00  0.00    +0.000 C 
ATOM     14  O   UNL     1       1.500   8.926  22.035  0.00  0.00    +0.000 OA
ATOM     15  N   UNL     1       0.142  11.170  21.729  0.00  0.00    +0.000 NA
ATOM     16  C   UNL     1      -0.367  12.349  22.138  0.00  0.00    +0.000 A 
ATOM     17  H   UNL     1       0.209   9.213  19.109  0.00  0.00    +0.000 HD
ENDBRANCH   1  13
BRANCH   4  18
ATOM     18  C   UNL     1       2.973   3.835  18.203  0.00  0.00    +0.000 C 
BRANCH  18  19
ATOM     19  N   UNL     1       4.416   3.621  18.110  0.00  0.00    +0.000 N 
ATOM     20  N   UNL     1       5.086   3.635  19.290  0.00  0.00    +0.000 NA
ATOM     21  N   UNL     1       6.204   4.321  19.108  0.00  0.00    +0.000 NA
ATOM     22  C   UNL     1       6.313   4.603  17.775  0.00  0.00    +0.000 A 
ATOM     23  C   UNL     1       7.272   5.351  17.079  0.00  0.00    +0.000 A 
ATOM     24  C   UNL     1       7.180   5.420  15.685  0.00  0.00    +0.000 A 
ATOM     25  C   UNL     1       6.166   4.744  15.003  0.00  0.00    +0.000 A 
ATOM     26  C   UNL     1       5.160   4.048  15.689  0.00  0.00    +0.000 A 
ATOM     27  C   UNL     1       5.248   4.031  17.086  0.00  0.00    +0.000 A 
ENDBRANCH  18  19
ENDBRANCH   4  18
TORSDOF 3
ENDMDL
MODEL 7
REMARK VINA RESULT:      -8.7      5.893      7.786
REMARK  Name = 
REMARK  4 active torsions:
REMARK  status: ('A' for Active; 'I' for Inactive)
REMARK    1  A    between atoms: C_1  and  C_2
REMARK    2  A    between atoms: C_7  and  C_9
REMARK    3  A    between atoms: C_12  and  C_13
REMARK    4  A    between atoms: C_13  and  N_14
REMARK                            x       y       z     vdW  Elec       q    Type
REMARK                         _______ _______ _______ _____ _____    ______ ____
ROOT
ATOM      1  C   UNL     1       1.678   8.486  19.570  0.00  0.00    +0.000 A 
ATOM      2  C   UNL     1       1.811   7.308  20.314  0.00  0.00    +0.000 A 
ATOM      3  C   UNL     1       2.249   6.125  19.686  0.00  0.00    +0.000 A 
ATOM      4  C   UNL     1       2.554   6.105  18.316  0.00  0.00    +0.000 A 
ATOM      5  C   UNL     1       2.459   7.298  17.590  0.00  0.00    +0.000 A 
ATOM      6  C   UNL     1       2.027   8.467  18.210  0.00  0.00    +0.000 A 
ENDROOT
BRANCH   1  13
ATOM      7  C   UNL     1      -2.087  14.413  23.356  0.00  0.00    +0.000 C 
ATOM      8  C   UNL     1      -1.493  13.145  22.834  0.00  0.00    +0.000 A 
ATOM      9  C   UNL     1      -1.704  11.904  23.435  0.00  0.00    +0.000 A 
ATOM     10  C   UNL     1      -1.111  10.757  22.892  0.00  0.00    +0.000 A 
ATOM     11  C   UNL     1      -0.319  10.875  21.757  0.00  0.00    +0.000 A 
ATOM     12  N   UNL     1       0.281   9.718  21.207  0.00  0.00    +0.000 N 
ATOM     13  C   UNL     1       1.084   9.756  20.080  0.00  0.00    +0.000 C 
ATOM     14  O   UNL     1       1.374  10.766  19.429  0.00  0.00    +0.000 OA
ATOM     15  N   UNL     1      -0.116  12.069  21.178  0.00  0.00    +0.000 NA
ATOM     16  C   UNL     1      -0.688  13.167  21.709  0.00  0.00    +0.000 A 
ATOM     17  H   UNL     1       0.142   8.848  21.692  0.00  0.00    +0.000 HD
ENDBRANCH   1  13
BRANCH   4  18
ATOM     18  C   UNL     1       3.033   4.866  17.605  0.00  0.00    +0.000 C 
BRANCH  18  19
ATOM     19  N   UNL     1       4.424   4.476  17.829  0.00  0.00    +0.000 N 
ATOM     20  N   UNL     1       4.623   3.560  18.812  0.00  0.00    +0.000 NA
ATOM     21  N   UNL     1       5.684   3.943  19.506  0.00  0.00    +0.000 NA
ATOM     22  C   UNL     1       6.246   5.010  18.865  0.00  0.00    +0.000 A 
ATOM     23  C   UNL     1       7.340   5.812  19.218  0.00  0.00    +0.000 A 
ATOM     24  C   UNL     1       7.750   6.810  18.328  0.00  0.00    +0.000 A 
ATOM     25  C   UNL     1       7.095   6.991  17.108  0.00  0.00    +0.000 A 
ATOM     26  C   UNL     1       5.958   6.243  16.770  0.00  0.00    +0.000 A 
ATOM     27  C   UNL     1       5.539   5.281  17.697  0.00  0.00    +0.000 A 
ENDBRANCH  18  19
ENDBRANCH   4  18
TORSDOF 3
ENDMDL
MODEL 8
REMARK VINA RESULT:      -8.6      6.850      8.454
REMARK  Name = 
REMARK  4 active torsions:
REMARK  status: ('A' for Active; 'I' for Inactive)
REMARK    1  A    between atoms: C_1  and  C_2
REMARK    2  A    between atoms: C_7  and  C_9
REMARK    3  A    between atoms: C_12  and  C_13
REMARK    4  A    between atoms: C_13  and  N_14
REMARK                            x       y       z     vdW  Elec       q    Type
REMARK                         _______ _______ _______ _____ _____    ______ ____
ROOT
ATOM      1  C   UNL     1       0.699   9.671  19.613  0.00  0.00    +0.000 A 
ATOM      2  C   UNL     1       1.159   8.676  20.483  0.00  0.00    +0.000 A 
ATOM      3  C   UNL     1       2.046   7.686  20.013  0.00  0.00    +0.000 A 
ATOM      4  C   UNL     1       2.477   7.677  18.678  0.00  0.00    +0.000 A 
ATOM      5  C   UNL     1       2.044   8.701  17.826  0.00  0.00    +0.000 A 
ATOM      6  C   UNL     1       1.169   9.680  18.290  0.00  0.00    +0.000 A 
ENDROOT
BRANCH   1  13
ATOM      7  C   UNL     1      -4.640  14.668  22.802  0.00  0.00    +0.000 C 
ATOM      8  C   UNL     1      -3.594  13.657  22.459  0.00  0.00    +0.000 A 
ATOM      9  C   UNL     1      -2.924  12.900  23.421  0.00  0.00    +0.000 A 
ATOM     10  C   UNL     1      -1.953  11.973  23.025  0.00  0.00    +0.000 A 
ATOM     11  C   UNL     1      -1.670  11.820  21.674  0.00  0.00    +0.000 A 
ATOM     12  N   UNL     1      -0.688  10.884  21.272  0.00  0.00    +0.000 N 
ATOM     13  C   UNL     1      -0.351  10.677  19.945  0.00  0.00    +0.000 C 
ATOM     14  O   UNL     1      -0.842  11.261  18.972  0.00  0.00    +0.000 OA
ATOM     15  N   UNL     1      -2.314  12.547  20.748  0.00  0.00    +0.000 NA
ATOM     16  C   UNL     1      -3.246  13.439  21.138  0.00  0.00    +0.000 A 
ATOM     17  H   UNL     1      -0.196  10.389  21.995  0.00  0.00    +0.000 HD
ENDBRANCH   1  13
BRANCH   4  18
ATOM     18  C   UNL     1       3.429   6.644  18.134  0.00  0.00    +0.000 C 
BRANCH  18  19
ATOM     19  N   UNL     1       3.660   5.463  18.965  0.00  0.00    +0.000 N 
ATOM     20  N   UNL     1       4.960   5.198  19.253  0.00  0.00    +0.000 NA
ATOM     21  N   UNL     1       5.138   3.891  19.132  0.00  0.00    +0.000 NA
ATOM     22  C   UNL     1       3.916   3.316  18.923  0.00  0.00    +0.000 A 
ATOM     23  C   UNL     1       3.568   1.982  18.674  0.00  0.00    +0.000 A 
ATOM     24  C   UNL     1       2.212   1.655  18.567  0.00  0.00    +0.000 A 
ATOM     25  C   UNL     1       1.228   2.634  18.722  0.00  0.00    +0.000 A 
ATOM     26  C   UNL     1       1.562   3.984  18.903  0.00  0.00    +0.000 A 
ATOM     27  C   UNL     1       2.926   4.294  18.962  0.00  0.00    +0.000 A 
ENDBRANCH  18  19
ENDBRANCH   4  18
TORSDOF 3
ENDMDL
MODEL 9
REMARK VINA RESULT:      -8.6      6.548      8.067
REMARK  Name = 
REMARK  4 active torsions:
REMARK  status: ('A' for Active; 'I' for Inactive)
REMARK    1  A    between atoms: C_1  and  C_2
REMARK    2  A    between atoms: C_7  and  C_9
REMARK    3  A    between atoms: C_12  and  C_13
REMARK    4  A    between atoms: C_13  and  N_14
REMARK                            x       y       z     vdW  Elec       q    Type
REMARK                         _______ _______ _______ _____ _____    ______ ____
ROOT
ATOM      1  C   UNL     1       1.199   9.219  19.503  0.00  0.00    +0.000 A 
ATOM      2  C   UNL     1       1.521   8.159  20.358  0.00  0.00    +0.000 A 
ATOM      3  C   UNL     1       2.283   7.075  19.879  0.00  0.00    +0.000 A 
ATOM      4  C   UNL     1       2.727   7.036  18.548  0.00  0.00    +0.000 A 
ATOM      5  C   UNL     1       2.436   8.121  17.712  0.00  0.00    +0.000 A 
ATOM      6  C   UNL     1       1.683   9.193  18.185  0.00  0.00    +0.000 A 
ENDROOT
BRANCH   1  13
ATOM      7  C   UNL     1      -3.685  14.658  22.698  0.00  0.00    +0.000 C 
ATOM      8  C   UNL     1      -2.768  13.532  22.346  0.00  0.00    +0.000 A 
ATOM      9  C   UNL     1      -2.342  12.580  23.274  0.00  0.00    +0.000 A 
ATOM     10  C   UNL     1      -1.479  11.554  22.872  0.00  0.00    +0.000 A 
ATOM     11  C   UNL     1      -1.058  11.499  21.550  0.00  0.00    +0.000 A 
ATOM     12  N   UNL     1      -0.185  10.463  21.142  0.00  0.00    +0.000 N 
ATOM     13  C   UNL     1       0.278  10.343  19.843  0.00  0.00    +0.000 C 
ATOM     14  O   UNL     1       0.003  11.096  18.902  0.00  0.00    +0.000 OA
ATOM     15  N   UNL     1      -1.467  12.413  20.656  0.00  0.00    +0.000 NA
ATOM     16  C   UNL     1      -2.296  13.399  21.051  0.00  0.00    +0.000 A 
ATOM     17  H   UNL     1       0.135   9.821  21.847  0.00  0.00    +0.000 HD
ENDBRANCH   1  13
BRANCH   4  18
ATOM     18  C   UNL     1       3.549   5.902  17.995  0.00  0.00    +0.000 C 
BRANCH  18  19
ATOM     19  N   UNL     1       2.973   4.562  18.097  0.00  0.00    +0.000 N 
ATOM     20  N   UNL     1       2.075   4.238  17.131  0.00  0.00    +0.000 NA
ATOM     21  N   UNL     1       1.068   3.609  17.718  0.00  0.00    +0.000 NA
ATOM     22  C   UNL     1       1.405   3.398  19.025  0.00  0.00    +0.000 A 
ATOM     23  C   UNL     1       0.669   2.832  20.075  0.00  0.00    +0.000 A 
ATOM     24  C   UNL     1       1.294   2.670  21.316  0.00  0.00    +0.000 A 
ATOM     25  C   UNL     1       2.627   3.048  21.498  0.00  0.00    +0.000 A 
ATOM     26  C   UNL     1       3.354   3.677  20.477  0.00  0.00    +0.000 A 
ATOM     27  C   UNL     1       2.693   3.869  19.258  0.00  0.00    +0.000 A 
ENDBRANCH  18  19
ENDBRANCH   4  18
TORSDOF 3
ENDMDL
