MODEL 1
REMARK VINA RESULT:      -8.7      0.000      0.000
REMARK  Name = 
REMARK  3 active torsions:
REMARK  status: ('A' for Active; 'I' for Inactive)
REMARK    1  A    between atoms: C_1  and  C_2
REMARK    2  A    between atoms: C_11  and  C_13
REMARK    3  A    between atoms: C_13  and  C_14
REMARK                            x       y       z     vdW  Elec       q    Type
REMARK                         _______ _______ _______ _____ _____    ______ ____
ROOT
ATOM      1  C   UNL     1       2.050  12.842  17.943  0.00  0.00    +0.000 C 
ATOM      2  C   UNL     1       1.858  11.788  19.031  0.00  0.00    +0.000 C 
ATOM      3  C   UNL     1       0.699  12.152  19.944  0.00  0.00    +0.000 C 
ATOM      4  C   UNL     1       0.346  11.027  20.881  0.00  0.00    +0.000 A 
ATOM      5  C   UNL     1      -0.409  11.356  22.022  0.00  0.00    +0.000 A 
ATOM      6  C   UNL     1      -0.793  10.377  22.933  0.00  0.00    +0.000 A 
ATOM      7  C   UNL     1      -0.436   9.058  22.700  0.00  0.00    +0.000 A 
ATOM      8  C   UNL     1       0.304   8.720  21.558  0.00  0.00    +0.000 A 
ATOM      9  C   UNL     1       0.719   9.688  20.630  0.00  0.00    +0.000 A 
ATOM     10  N   UNL     1       1.487   9.366  19.452  0.00  0.00    +0.000 N 
ATOM     11  C   UNL     1       2.026   8.087  19.241  0.00  0.00    +0.000 C 
ATOM     12  O   UNL     1       2.033   7.176  20.074  0.00  0.00    +0.000 OA
ATOM     13  C   UNL     1       1.588  10.419  18.429  0.00  0.00    +0.000 C 
ENDROOT
BRANCH  11  14
ATOM     14  C   UNL     1       2.669   7.786  17.926  0.00  0.00    +0.000 C 
BRANCH  14  15
ATOM     15  C   UNL     1       3.368   6.460  17.723  0.00  0.00    +0.000 A 
ATOM     16  N   UNL     1       2.571   5.432  17.793  0.00  0.00    +0.000 NA
ATOM     17  N   UNL     1       3.118   4.259  18.237  0.00  0.00    +0.000 N 
ATOM     18  C   UNL     1       4.264   4.253  19.012  0.00  0.00    +0.000 A 
ATOM     19  O   UNL     1       4.471   3.437  19.900  0.00  0.00    +0.000 OA
ATOM     20  C   UNL     1       5.266   5.257  18.623  0.00  0.00    +0.000 A 
ATOM     21  C   UNL     1       6.615   5.076  18.939  0.00  0.00    +0.000 A 
ATOM     22  C   UNL     1       7.567   5.909  18.358  0.00  0.00    +0.000 A 
ATOM     23  C   UNL     1       7.166   6.901  17.460  0.00  0.00    +0.000 A 
ATOM     24  C   UNL     1       5.804   7.114  17.195  0.00  0.00    +0.000 A 
ATOM     25  C   UNL     1       4.846   6.317  17.825  0.00  0.00    +0.000 A 
ATOM     26  H   UNL     1       2.434   3.549  18.481  0.00  0.00    +0.000 HD
ENDBRANCH  14  15
ENDBRANCH  11  14
TORSDOF 2
ENDMDL
MODEL 2
REMARK VINA RESULT:      -8.4      1.834      2.921
REMARK  Name = 
REMARK  3 active torsions:
REMARK  status: ('A' for Active; 'I' for Inactive)
REMARK    1  A    between atoms: C_1  and  C_2
REMARK    2  A    between atoms: C_11  and  C_13
REMARK    3  A    between atoms: C_13  and  C_14
REMARK                            x       y       z     vdW  Elec       q    Type
REMARK                         _______ _______ _______ _____ _____    ______ ____
ROOT
ATOM      1  C   UNL     1       2.225  12.375  17.823  0.00  0.00    +0.000 C 
ATOM      2  C   UNL     1       1.893  11.558  19.070  0.00  0.00    +0.000 C 
ATOM      3  C   UNL     1       0.755  12.194  19.852  0.00  0.00    +0.000 C 
ATOM      4  C   UNL     1       0.260  11.296  20.954  0.00  0.00    +0.000 A 
ATOM      5  C   UNL     1      -0.486  11.899  21.985  0.00  0.00    +0.000 A 
ATOM      6  C   UNL     1      -0.996  11.143  23.035  0.00  0.00    +0.000 A 
ATOM      7  C   UNL     1      -0.776   9.774  23.053  0.00  0.00    +0.000 A 
ATOM      8  C   UNL     1      -0.047   9.164  22.023  0.00  0.00    +0.000 A 
ATOM      9  C   UNL     1       0.493   9.904  20.959  0.00  0.00    +0.000 A 
ATOM     10  N   UNL     1       1.253   9.300  19.891  0.00  0.00    +0.000 N 
ATOM     11  C   UNL     1       1.658   7.956  19.932  0.00  0.00    +0.000 C 
ATOM     12  O   UNL     1       1.545   7.213  20.912  0.00  0.00    +0.000 OA
ATOM     13  C   UNL     1       1.493  10.137  18.705  0.00  0.00    +0.000 C 
ENDROOT
BRANCH  11  14
ATOM     14  C   UNL     1       2.299   7.362  18.721  0.00  0.00    +0.000 C 
BRANCH  14  15
ATOM     15  C   UNL     1       3.121   6.099  18.855  0.00  0.00    +0.000 A 
ATOM     16  N   UNL     1       4.395   6.278  18.647  0.00  0.00    +0.000 NA
ATOM     17  N   UNL     1       5.091   5.214  18.141  0.00  0.00    +0.000 N 
ATOM     18  C   UNL     1       4.449   4.207  17.443  0.00  0.00    +0.000 A 
ATOM     19  O   UNL     1       4.958   3.611  16.504  0.00  0.00    +0.000 OA
ATOM     20  C   UNL     1       3.129   3.842  17.979  0.00  0.00    +0.000 A 
ATOM     21  C   UNL     1       2.587   2.578  17.734  0.00  0.00    +0.000 A 
ATOM     22  C   UNL     1       1.458   2.173  18.444  0.00  0.00    +0.000 A 
ATOM     23  C   UNL     1       0.894   3.027  19.395  0.00  0.00    +0.000 A 
ATOM     24  C   UNL     1       1.410   4.318  19.590  0.00  0.00    +0.000 A 
ATOM     25  C   UNL     1       2.505   4.744  18.836  0.00  0.00    +0.000 A 
ATOM     26  H   UNL     1       6.015   5.452  17.795  0.00  0.00    +0.000 HD
ENDBRANCH  14  15
ENDBRANCH  11  14
TORSDOF 2
ENDMDL
MODEL 3
REMARK VINA RESULT:      -8.3      1.922      7.453
REMARK  Name = 
REMARK  3 active torsions:
REMARK  status: ('A' for Active; 'I' for Inactive)
REMARK    1  A    between atoms: C_1  and  C_2
REMARK    2  A    between atoms: C_11  and  C_13
REMARK    3  A    between atoms: C_13  and  C_14
REMARK                            x       y       z     vdW  Elec       q    Type
REMARK                         _______ _______ _______ _____ _____    ______ ____
ROOT
ATOM      1  C   UNL     1       5.207   6.647  16.064  0.00  0.00    +0.000 C 
ATOM      2  C   UNL     1       4.173   5.859  16.866  0.00  0.00    +0.000 C 
ATOM      3  C   UNL     1       4.570   4.396  16.981  0.00  0.00    +0.000 C 
ATOM      4  C   UNL     1       3.692   3.650  17.950  0.00  0.00    +0.000 A 
ATOM      5  C   UNL     1       3.679   2.246  17.852  0.00  0.00    +0.000 A 
ATOM      6  C   UNL     1       2.910   1.475  18.717  0.00  0.00    +0.000 A 
ATOM      7  C   UNL     1       2.159   2.105  19.698  0.00  0.00    +0.000 A 
ATOM      8  C   UNL     1       2.178   3.502  19.811  0.00  0.00    +0.000 A 
ATOM      9  C   UNL     1       2.932   4.306  18.943  0.00  0.00    +0.000 A 
ATOM     10  N   UNL     1       2.962   5.746  19.035  0.00  0.00    +0.000 N 
ATOM     11  C   UNL     1       2.100   6.456  19.886  0.00  0.00    +0.000 C 
ATOM     12  O   UNL     1       1.158   5.961  20.512  0.00  0.00    +0.000 OA
ATOM     13  C   UNL     1       4.015   6.428  18.267  0.00  0.00    +0.000 C 
ENDROOT
BRANCH  11  14
ATOM     14  C   UNL     1       2.301   7.927  20.046  0.00  0.00    +0.000 C 
BRANCH  14  15
ATOM     15  C   UNL     1       1.160   8.874  19.744  0.00  0.00    +0.000 A 
ATOM     16  N   UNL     1       1.115   9.259  18.500  0.00  0.00    +0.000 NA
ATOM     17  N   UNL     1       0.587  10.498  18.259  0.00  0.00    +0.000 N 
ATOM     18  C   UNL     1       0.558  11.467  19.246  0.00  0.00    +0.000 A 
ATOM     19  O   UNL     1       0.693  12.662  19.019  0.00  0.00    +0.000 OA
ATOM     20  C   UNL     1       0.261  10.955  20.592  0.00  0.00    +0.000 A 
ATOM     21  C   UNL     1      -0.283  11.794  21.568  0.00  0.00    +0.000 A 
ATOM     22  C   UNL     1      -0.776  11.237  22.745  0.00  0.00    +0.000 A 
ATOM     23  C   UNL     1      -0.733   9.852  22.929  0.00  0.00    +0.000 A 
ATOM     24  C   UNL     1      -0.131   9.024  21.968  0.00  0.00    +0.000 A 
ATOM     25  C   UNL     1       0.416   9.590  20.816  0.00  0.00    +0.000 A 
ATOM     26  H   UNL     1       0.763  10.848  17.322  0.00  0.00    +0.000 HD
ENDBRANCH  14  15
ENDBRANCH  11  14
TORSDOF 2
ENDMDL
MODEL 4
REMARK VINA RESULT:      -8.1      5.757      9.902
REMARK  Name = 
REMARK  3 active torsions:
REMARK  status: ('A' for Active; 'I' for Inactive)
REMARK    1  A    between atoms: C_1  and  C_2
REMARK    2  A    between atoms: C_11  and  C_13
REMARK    3  A    between atoms: C_13  and  C_14
REMARK                            x       y       z     vdW  Elec       q    Type
REMARK                         _______ _______ _______ _____ _____    ______ ____
ROOT
ATOM      1  C   UNL     1      -1.931  11.844  17.457  0.00  0.00    +0.000 C 
ATOM      2  C   UNL     1      -1.855  11.319  18.889  0.00  0.00    +0.000 C 
ATOM      3  C   UNL     1      -0.553  10.573  19.128  0.00  0.00    +0.000 C 
ATOM      4  C   UNL     1      -0.354  10.243  20.584  0.00  0.00    +0.000 A 
ATOM      5  C   UNL     1       0.573   9.228  20.890  0.00  0.00    +0.000 A 
ATOM      6  C   UNL     1       0.832   8.870  22.209  0.00  0.00    +0.000 A 
ATOM      7  C   UNL     1       0.176   9.536  23.232  0.00  0.00    +0.000 A 
ATOM      8  C   UNL     1      -0.738  10.557  22.936  0.00  0.00    +0.000 A 
ATOM      9  C   UNL     1      -1.031  10.929  21.615  0.00  0.00    +0.000 A 
ATOM     10  N   UNL     1      -1.973  11.972  21.286  0.00  0.00    +0.000 N 
ATOM     11  C   UNL     1      -2.795  12.567  22.255  0.00  0.00    +0.000 C 
ATOM     12  O   UNL     1      -2.908  12.178  23.422  0.00  0.00    +0.000 OA
ATOM     13  C   UNL     1      -1.953  12.455  19.896  0.00  0.00    +0.000 C 
ENDROOT
BRANCH  11  14
ATOM     14  C   UNL     1      -3.624  13.747  21.867  0.00  0.00    +0.000 C 
BRANCH  14  15
ATOM     15  C   UNL     1      -5.126  13.601  21.761  0.00  0.00    +0.000 A 
ATOM     16  N   UNL     1      -5.773  14.088  22.782  0.00  0.00    +0.000 NA
ATOM     17  N   UNL     1      -6.968  13.498  23.092  0.00  0.00    +0.000 N 
ATOM     18  C   UNL     1      -7.248  12.202  22.697  0.00  0.00    +0.000 A 
ATOM     19  O   UNL     1      -7.916  11.425  23.366  0.00  0.00    +0.000 OA
ATOM     20  C   UNL     1      -6.752  11.854  21.357  0.00  0.00    +0.000 A 
ATOM     21  C   UNL     1      -7.346  10.823  20.625  0.00  0.00    +0.000 A 
ATOM     22  C   UNL     1      -7.022  10.672  19.279  0.00  0.00    +0.000 A 
ATOM     23  C   UNL     1      -6.124  11.557  18.677  0.00  0.00    +0.000 A 
ATOM     24  C   UNL     1      -5.488  12.553  19.436  0.00  0.00    +0.000 A 
ATOM     25  C   UNL     1      -5.768  12.665  20.799  0.00  0.00    +0.000 A 
ATOM     26  H   UNL     1      -7.332  13.755  24.004  0.00  0.00    +0.000 HD
ENDBRANCH  14  15
ENDBRANCH  11  14
TORSDOF 2
ENDMDL
MODEL 5
REMARK VINA RESULT:      -8.1      2.113      7.428
REMARK  Name = 
REMARK  3 active torsions:
REMARK  status: ('A' for Active; 'I' for Inactive)
REMARK    1  A    between atoms: C_1  and  C_2
REMARK    2  A    between atoms: C_11  and  C_13
REMARK    3  A    between atoms: C_13  and  C_14
REMARK                            x       y       z     vdW  Elec       q    Type
REMARK                         _______ _______ _______ _____ _____    ______ ____
ROOT
ATOM      1  C   UNL     1       4.934   6.246  16.351  0.00  0.00    +0.000 C 
ATOM      2  C   UNL     1       3.979   5.739  17.429  0.00  0.00    +0.000 C 
ATOM      3  C   UNL     1       4.511   4.471  18.076  0.00  0.00    +0.000 C 
ATOM      4  C   UNL     1       3.707   4.078  19.287  0.00  0.00    +0.000 A 
ATOM      5  C   UNL     1       3.825   2.747  19.731  0.00  0.00    +0.000 A 
ATOM      6  C   UNL     1       3.131   2.302  20.851  0.00  0.00    +0.000 A 
ATOM      7  C   UNL     1       2.325   3.191  21.545  0.00  0.00    +0.000 A 
ATOM      8  C   UNL     1       2.214   4.522  21.118  0.00  0.00    +0.000 A 
ATOM      9  C   UNL     1       2.889   4.995  19.983  0.00  0.00    +0.000 A 
ATOM     10  N   UNL     1       2.785   6.358  19.520  0.00  0.00    +0.000 N 
ATOM     11  C   UNL     1       1.862   7.262  20.068  0.00  0.00    +0.000 C 
ATOM     12  O   UNL     1       0.970   6.964  20.869  0.00  0.00    +0.000 OA
ATOM     13  C   UNL     1       3.770   6.784  18.513  0.00  0.00    +0.000 C 
ENDROOT
BRANCH  11  14
ATOM     14  C   UNL     1       1.924   8.695  19.650  0.00  0.00    +0.000 C 
BRANCH  14  15
ATOM     15  C   UNL     1       0.643   9.482  19.490  0.00  0.00    +0.000 A 
ATOM     16  N   UNL     1       0.326   9.721  18.249  0.00  0.00    +0.000 NA
ATOM     17  N   UNL     1      -0.381  10.866  18.003  0.00  0.00    +0.000 N 
ATOM     18  C   UNL     1      -0.345  11.931  18.886  0.00  0.00    +0.000 A 
ATOM     19  O   UNL     1      -0.398  13.101  18.531  0.00  0.00    +0.000 OA
ATOM     20  C   UNL     1      -0.330  11.544  20.305  0.00  0.00    +0.000 A 
ATOM     21  C   UNL     1      -0.783  12.427  21.288  0.00  0.00    +0.000 A 
ATOM     22  C   UNL     1      -0.984  11.957  22.584  0.00  0.00    +0.000 A 
ATOM     23  C   UNL     1      -0.744  10.612  22.879  0.00  0.00    +0.000 A 
ATOM     24  C   UNL     1      -0.231   9.748  21.899  0.00  0.00    +0.000 A 
ATOM     25  C   UNL     1       0.026  10.235  20.616  0.00  0.00    +0.000 A 
ATOM     26  H   UNL     1      -0.421  11.126  17.023  0.00  0.00    +0.000 HD
ENDBRANCH  14  15
ENDBRANCH  11  14
TORSDOF 2
ENDMDL
MODEL 6
REMARK VINA RESULT:      -8.0      2.012      7.720
REMARK  Name = 
REMARK  3 active torsions:
REMARK  status: ('A' for Active; 'I' for Inactive)
REMARK    1  A    between atoms: C_1  and  C_2
REMARK    2  A    between atoms: C_11  and  C_13
REMARK    3  A    between atoms: C_13  and  C_14
REMARK                            x       y       z     vdW  Elec       q    Type
REMARK                         _______ _______ _______ _____ _____    ______ ____
ROOT
ATOM      1  C   UNL     1       1.698   2.627  19.115  0.00  0.00    +0.000 C 
ATOM      2  C   UNL     1       2.766   3.607  18.633  0.00  0.00    +0.000 C 
ATOM      3  C   UNL     1       3.665   2.965  17.589  0.00  0.00    +0.000 C 
ATOM      4  C   UNL     1       4.576   3.970  16.936  0.00  0.00    +0.000 A 
ATOM      5  C   UNL     1       5.710   3.468  16.269  0.00  0.00    +0.000 A 
ATOM      6  C   UNL     1       6.598   4.323  15.625  0.00  0.00    +0.000 A 
ATOM      7  C   UNL     1       6.348   5.687  15.630  0.00  0.00    +0.000 A 
ATOM      8  C   UNL     1       5.213   6.193  16.280  0.00  0.00    +0.000 A 
ATOM      9  C   UNL     1       4.309   5.356  16.952  0.00  0.00    +0.000 A 
ATOM     10  N   UNL     1       3.139   5.854  17.634  0.00  0.00    +0.000 N 
ATOM     11  C   UNL     1       2.916   7.226  17.826  0.00  0.00    +0.000 C 
ATOM     12  O   UNL     1       3.734   8.118  17.577  0.00  0.00    +0.000 OA
ATOM     13  C   UNL     1       2.136   4.852  18.027  0.00  0.00    +0.000 C 
ENDROOT
BRANCH  11  14
ATOM     14  C   UNL     1       1.608   7.669  18.395  0.00  0.00    +0.000 C 
BRANCH  14  15
ATOM     15  C   UNL     1       1.588   8.550  19.624  0.00  0.00    +0.000 A 
ATOM     16  N   UNL     1       1.912   7.926  20.721  0.00  0.00    +0.000 NA
ATOM     17  N   UNL     1       1.357   8.392  21.881  0.00  0.00    +0.000 N 
ATOM     18  C   UNL     1       0.183   9.124  21.868  0.00  0.00    +0.000 A 
ATOM     19  O   UNL     1      -0.661   9.059  22.751  0.00  0.00    +0.000 OA
ATOM     20  C   UNL     1       0.066  10.064  20.743  0.00  0.00    +0.000 A 
ATOM     21  C   UNL     1      -0.762  11.186  20.835  0.00  0.00    +0.000 A 
ATOM     22  C   UNL     1      -0.673  12.179  19.864  0.00  0.00    +0.000 A 
ATOM     23  C   UNL     1       0.248  12.050  18.821  0.00  0.00    +0.000 A 
ATOM     24  C   UNL     1       1.033  10.892  18.703  0.00  0.00    +0.000 A 
ATOM     25  C   UNL     1       0.900   9.870  19.645  0.00  0.00    +0.000 A 
ATOM     26  H   UNL     1       1.457   7.762  22.671  0.00  0.00    +0.000 HD
ENDBRANCH  14  15
ENDBRANCH  11  14
TORSDOF 2
ENDMDL
MODEL 7
REMARK VINA RESULT:      -8.0      5.795      9.717
REMARK  Name = 
REMARK  3 active torsions:
REMARK  status: ('A' for Active; 'I' for Inactive)
REMARK    1  A    between atoms: C_1  and  C_2
REMARK    2  A    between atoms: C_11  and  C_13
REMARK    3  A    between atoms: C_13  and  C_14
REMARK                            x       y       z     vdW  Elec       q    Type
REMARK                         _______ _______ _______ _____ _____    ______ ____
ROOT
ATOM      1  C   UNL     1      -2.234  11.723  17.513  0.00  0.00    +0.000 C 
ATOM      2  C   UNL     1      -2.074  11.197  18.938  0.00  0.00    +0.000 C 
ATOM      3  C   UNL     1      -0.684  10.622  19.155  0.00  0.00    +0.000 C 
ATOM      4  C   UNL     1      -0.427  10.306  20.604  0.00  0.00    +0.000 A 
ATOM      5  C   UNL     1       0.627   9.417  20.889  0.00  0.00    +0.000 A 
ATOM      6  C   UNL     1       0.945   9.080  22.200  0.00  0.00    +0.000 A 
ATOM      7  C   UNL     1       0.220   9.645  23.239  0.00  0.00    +0.000 A 
ATOM      8  C   UNL     1      -0.821  10.542  22.964  0.00  0.00    +0.000 A 
ATOM      9  C   UNL     1      -1.175  10.888  21.651  0.00  0.00    +0.000 A 
ATOM     10  N   UNL     1      -2.247  11.803  21.343  0.00  0.00    +0.000 N 
ATOM     11  C   UNL     1      -3.128  12.277  22.328  0.00  0.00    +0.000 C 
ATOM     12  O   UNL     1      -3.177  11.864  23.491  0.00  0.00    +0.000 OA
ATOM     13  C   UNL     1      -2.307  12.299  19.959  0.00  0.00    +0.000 C 
ENDROOT
BRANCH  11  14
ATOM     14  C   UNL     1      -4.108  13.344  21.963  0.00  0.00    +0.000 C 
BRANCH  14  15
ATOM     15  C   UNL     1      -5.529  12.964  21.611  0.00  0.00    +0.000 A 
ATOM     16  N   UNL     1      -6.221  12.525  22.625  0.00  0.00    +0.000 NA
ATOM     17  N   UNL     1      -7.211  11.622  22.350  0.00  0.00    +0.000 N 
ATOM     18  C   UNL     1      -7.179  10.855  21.199  0.00  0.00    +0.000 A 
ATOM     19  O   UNL     1      -7.594   9.706  21.145  0.00  0.00    +0.000 OA
ATOM     20  C   UNL     1      -6.686  11.565  20.009  0.00  0.00    +0.000 A 
ATOM     21  C   UNL     1      -7.041  11.138  18.727  0.00  0.00    +0.000 A 
ATOM     22  C   UNL     1      -6.764  11.957  17.636  0.00  0.00    +0.000 A 
ATOM     23  C   UNL     1      -6.151  13.196  17.837  0.00  0.00    +0.000 A 
ATOM     24  C   UNL     1      -5.744  13.590  19.121  0.00  0.00    +0.000 A 
ATOM     25  C   UNL     1      -5.968  12.741  20.206  0.00  0.00    +0.000 A 
ATOM     26  H   UNL     1      -7.578  11.148  23.169  0.00  0.00    +0.000 HD
ENDBRANCH  14  15
ENDBRANCH  11  14
TORSDOF 2
ENDMDL
MODEL 8
REMARK VINA RESULT:      -8.0      2.696      7.963
REMARK  Name = 
REMARK  3 active torsions:
REMARK  status: ('A' for Active; 'I' for Inactive)
REMARK    1  A    between atoms: C_1  and  C_2
REMARK    2  A    between atoms: C_11  and  C_13
REMARK    3  A    between atoms: C_13  and  C_14
REMARK                            x       y       z     vdW  Elec       q    Type
REMARK                         _______ _______ _______ _____ _____    ______ ____
ROOT
ATOM      1  C   UNL     1       1.960   3.925  21.258  0.00  0.00    +0.000 C 
ATOM      2  C   UNL     1       2.742   4.805  20.285  0.00  0.00    +0.000 C 
ATOM      3  C   UNL     1       3.370   3.973  19.180  0.00  0.00    +0.000 C 
ATOM      4  C   UNL     1       3.953   4.834  18.090  0.00  0.00    +0.000 A 
ATOM      5  C   UNL     1       4.897   4.234  17.235  0.00  0.00    +0.000 A 
ATOM      6  C   UNL     1       5.475   4.949  16.192  0.00  0.00    +0.000 A 
ATOM      7  C   UNL     1       5.100   6.268  15.987  0.00  0.00    +0.000 A 
ATOM      8  C   UNL     1       4.149   6.869  16.825  0.00  0.00    +0.000 A 
ATOM      9  C   UNL     1       3.562   6.176  17.895  0.00  0.00    +0.000 A 
ATOM     10  N   UNL     1       2.587   6.775  18.775  0.00  0.00    +0.000 N 
ATOM     11  C   UNL     1       2.289   8.146  18.734  0.00  0.00    +0.000 C 
ATOM     12  O   UNL     1       2.909   8.985  18.073  0.00  0.00    +0.000 OA
ATOM     13  C   UNL     1       1.844   5.854  19.650  0.00  0.00    +0.000 C 
ENDROOT
BRANCH  11  14
ATOM     14  C   UNL     1       1.157   8.660  19.562  0.00  0.00    +0.000 C 
BRANCH  14  15
ATOM     15  C   UNL     1       0.634  10.059  19.325  0.00  0.00    +0.000 A 
ATOM     16  N   UNL     1       1.190  10.962  20.083  0.00  0.00    +0.000 NA
ATOM     17  N   UNL     1       0.428  12.051  20.404  0.00  0.00    +0.000 N 
ATOM     18  C   UNL     1      -0.954  11.994  20.362  0.00  0.00    +0.000 A 
ATOM     19  O   UNL     1      -1.676  12.602  21.139  0.00  0.00    +0.000 OA
ATOM     20  C   UNL     1      -1.495  11.207  19.243  0.00  0.00    +0.000 A 
ATOM     21  C   UNL     1      -2.788  11.443  18.767  0.00  0.00    +0.000 A 
ATOM     22  C   UNL     1      -3.188  10.862  17.567  0.00  0.00    +0.000 A 
ATOM     23  C   UNL     1      -2.292  10.065  16.850  0.00  0.00    +0.000 A 
ATOM     24  C   UNL     1      -1.016   9.785  17.365  0.00  0.00    +0.000 A 
ATOM     25  C   UNL     1      -0.638  10.321  18.598  0.00  0.00    +0.000 A 
ATOM     26  H   UNL     1       0.809  12.616  21.156  0.00  0.00    +0.000 HD
ENDBRANCH  14  15
ENDBRANCH  11  14
TORSDOF 2
ENDMDL
MODEL 9
REMARK VINA RESULT:      -7.9      2.646      3.640
REMARK  Name = 
REMARK  3 active torsions:
REMARK  status: ('A' for Active; 'I' for Inactive)
REMARK    1  A    between atoms: C_1  and  C_2
REMARK    2  A    between atoms: C_11  and  C_13
REMARK    3  A    between atoms: C_13  and  C_14
REMARK                            x       y       z     vdW  Elec       q    Type
REMARK                         _______ _______ _______ _____ _____    ______ ____
ROOT
ATOM      1  C   UNL     1      -2.945  10.336  15.682  0.00  0.00    +0.000 C 
ATOM      2  C   UNL     1      -2.116  10.829  16.866  0.00  0.00    +0.000 C 
ATOM      3  C   UNL     1      -3.005  11.435  17.940  0.00  0.00    +0.000 C 
ATOM      4  C   UNL     1      -2.242  11.721  19.206  0.00  0.00    +0.000 A 
ATOM      5  C   UNL     1      -2.820  12.631  20.111  0.00  0.00    +0.000 A 
ATOM      6  C   UNL     1      -2.192  12.941  21.313  0.00  0.00    +0.000 A 
ATOM      7  C   UNL     1      -0.987  12.330  21.624  0.00  0.00    +0.000 A 
ATOM      8  C   UNL     1      -0.412  11.412  20.735  0.00  0.00    +0.000 A 
ATOM      9  C   UNL     1      -1.014  11.092  19.508  0.00  0.00    +0.000 A 
ATOM     10  N   UNL     1      -0.438  10.156  18.573  0.00  0.00    +0.000 N 
ATOM     11  C   UNL     1       0.853   9.633  18.743  0.00  0.00    +0.000 C 
ATOM     12  O   UNL     1       1.665  10.014  19.592  0.00  0.00    +0.000 OA
ATOM     13  C   UNL     1      -1.315   9.694  17.486  0.00  0.00    +0.000 C 
ENDROOT
BRANCH  11  14
ATOM     14  C   UNL     1       1.316   8.550  17.824  0.00  0.00    +0.000 C 
BRANCH  14  15
ATOM     15  C   UNL     1       2.547   7.745  18.179  0.00  0.00    +0.000 A 
ATOM     16  N   UNL     1       3.587   8.027  17.446  0.00  0.00    +0.000 NA
ATOM     17  N   UNL     1       4.487   7.018  17.241  0.00  0.00    +0.000 N 
ATOM     18  C   UNL     1       4.114   5.691  17.364  0.00  0.00    +0.000 A 
ATOM     19  O   UNL     1       4.577   4.795  16.672  0.00  0.00    +0.000 OA
ATOM     20  C   UNL     1       3.174   5.424  18.463  0.00  0.00    +0.000 A 
ATOM     21  C   UNL     1       3.086   4.150  19.030  0.00  0.00    +0.000 A 
ATOM     22  C   UNL     1       2.373   3.981  20.215  0.00  0.00    +0.000 A 
ATOM     23  C   UNL     1       1.769   5.083  20.825  0.00  0.00    +0.000 A 
ATOM     24  C   UNL     1       1.812   6.347  20.215  0.00  0.00    +0.000 A 
ATOM     25  C   UNL     1       2.477   6.503  18.997  0.00  0.00    +0.000 A 
ATOM     26  H   UNL     1       5.158   7.206  16.503  0.00  0.00    +0.000 HD
ENDBRANCH  14  15
ENDBRANCH  11  14
TORSDOF 2
ENDMDL
