MODEL 1
REMARK VINA RESULT:      -9.4      0.000      0.000
REMARK  Name = 
REMARK  5 active torsions:
REMARK  status: ('A' for Active; 'I' for Inactive)
REMARK    1  A    between atoms: C_1  and  C_2
REMARK    2  A    between atoms: C_5  and  C_6
REMARK    3  A    between atoms: C_12  and  N_13
REMARK    4  A    between atoms: C_14  and  C_16
REMARK    5  A    between atoms: C_18  and  C_19
REMARK                            x       y       z     vdW  Elec       q    Type
REMARK                         _______ _______ _______ _____ _____    ______ ____
ROOT
ATOM      1  C   UNL     1       7.144   5.711  19.518  0.00  0.00    +0.000 C 
ATOM      2  C   UNL     1       7.128   5.702  18.035  0.00  0.00    +0.000 A 
ATOM      3  N   UNL     1       7.793   6.657  17.374  0.00  0.00    +0.000 NA
ATOM      4  N   UNL     1       7.644   6.323  16.090  0.00  0.00    +0.000 N 
ATOM      5  C   UNL     1       6.936   5.165  15.864  0.00  0.00    +0.000 A 
ATOM      6  C   UNL     1       6.530   4.771  17.129  0.00  0.00    +0.000 A 
ATOM      7  H   UNL     1       8.043   6.945  15.396  0.00  0.00    +0.000 HD
ENDROOT
BRANCH   5   8
ATOM      8  C   UNL     1       6.647   4.706  14.499  0.00  0.00    +0.000 A 
ATOM      9  C   UNL     1       5.446   4.034  14.212  0.00  0.00    +0.000 A 
ATOM     10  C   UNL     1       5.188   3.526  12.937  0.00  0.00    +0.000 A 
ATOM     11  C   UNL     1       6.119   3.696  11.918  0.00  0.00    +0.000 A 
ATOM     12  C   UNL     1       7.311   4.367  12.178  0.00  0.00    +0.000 A 
ATOM     13  C   UNL     1       7.574   4.861  13.460  0.00  0.00    +0.000 A 
ENDBRANCH   5   8
BRANCH   6  14
ATOM     14  N   UNL     1       5.751   3.666  17.431  0.00  0.00    +0.000 N 
ATOM     15  C   UNL     1       4.378   3.677  17.606  0.00  0.00    +0.000 C 
ATOM     16  O   UNL     1       3.781   2.662  17.946  0.00  0.00    +0.000 OA
ATOM     17  H   UNL     1       6.104   2.753  17.172  0.00  0.00    +0.000 HD
BRANCH  15  18
ATOM     18  C   UNL     1       3.639   4.909  17.198  0.00  0.00    +0.000 C 
ATOM     19  C   UNL     1       3.609   6.178  17.993  0.00  0.00    +0.000 C 
ATOM     20  C   UNL     1       2.357   5.335  17.900  0.00  0.00    +0.000 C 
BRANCH  20  21
ATOM     21  C   UNL     1       1.795   4.807  19.203  0.00  0.00    +0.000 C 
ATOM     22  C   UNL     1       2.871   4.781  20.302  0.00  0.00    +0.000 C 
ATOM     23  C   UNL     1       2.396   4.071  21.570  0.00  0.00    +0.000 C 
ATOM     24  C   UNL     1       1.892   2.663  21.270  0.00  0.00    +0.000 C 
ATOM     25  C   UNL     1       0.783   2.694  20.228  0.00  0.00    +0.000 C 
ATOM     26  C   UNL     1       1.240   3.389  18.953  0.00  0.00    +0.000 C 
ENDBRANCH  20  21
ENDBRANCH  15  18
ENDBRANCH   6  14
TORSDOF 4
ENDMDL
MODEL 2
REMARK VINA RESULT:      -9.0      3.763      6.048
REMARK  Name = 
REMARK  5 active torsions:
REMARK  status: ('A' for Active; 'I' for Inactive)
REMARK    1  A    between atoms: C_1  and  C_2
REMARK    2  A    between atoms: C_5  and  C_6
REMARK    3  A    between atoms: C_12  and  N_13
REMARK    4  A    between atoms: C_14  and  C_16
REMARK    5  A    between atoms: C_18  and  C_19
REMARK                            x       y       z     vdW  Elec       q    Type
REMARK                         _______ _______ _______ _____ _____    ______ ____
ROOT
ATOM      1  C   UNL     1       0.865   3.323  18.691  0.00  0.00    +0.000 C 
ATOM      2  C   UNL     1       2.272   3.710  18.423  0.00  0.00    +0.000 A 
ATOM      3  N   UNL     1       2.987   2.990  17.549  0.00  0.00    +0.000 NA
ATOM      4  N   UNL     1       4.154   3.633  17.483  0.00  0.00    +0.000 N 
ATOM      5  C   UNL     1       4.242   4.772  18.249  0.00  0.00    +0.000 A 
ATOM      6  C   UNL     1       3.034   4.810  18.928  0.00  0.00    +0.000 A 
ATOM      7  H   UNL     1       4.877   3.230  16.897  0.00  0.00    +0.000 HD
ENDROOT
BRANCH   5   8
ATOM      8  C   UNL     1       5.486   5.550  18.317  0.00  0.00    +0.000 A 
ATOM      9  C   UNL     1       5.753   6.553  17.369  0.00  0.00    +0.000 A 
ATOM     10  C   UNL     1       6.963   7.251  17.375  0.00  0.00    +0.000 A 
ATOM     11  C   UNL     1       7.923   6.971  18.341  0.00  0.00    +0.000 A 
ATOM     12  C   UNL     1       7.676   5.989  19.296  0.00  0.00    +0.000 A 
ATOM     13  C   UNL     1       6.469   5.280  19.278  0.00  0.00    +0.000 A 
ENDBRANCH   5   8
BRANCH   6  14
ATOM     14  N   UNL     1       2.648   5.759  19.860  0.00  0.00    +0.000 N 
ATOM     15  C   UNL     1       2.376   7.088  19.586  0.00  0.00    +0.000 C 
ATOM     16  O   UNL     1       2.114   7.874  20.489  0.00  0.00    +0.000 OA
ATOM     17  H   UNL     1       2.196   5.435  20.707  0.00  0.00    +0.000 HD
BRANCH  15  18
ATOM     18  C   UNL     1       2.241   7.484  18.152  0.00  0.00    +0.000 C 
ATOM     19  C   UNL     1       2.874   8.699  17.547  0.00  0.00    +0.000 C 
ATOM     20  C   UNL     1       1.373   8.662  17.732  0.00  0.00    +0.000 C 
BRANCH  20  21
ATOM     21  C   UNL     1       0.770   9.731  18.618  0.00  0.00    +0.000 C 
ATOM     22  C   UNL     1      -0.652  10.097  18.158  0.00  0.00    +0.000 C 
ATOM     23  C   UNL     1      -1.214  11.308  18.902  0.00  0.00    +0.000 C 
ATOM     24  C   UNL     1      -0.284  12.512  18.802  0.00  0.00    +0.000 C 
ATOM     25  C   UNL     1       1.107  12.168  19.316  0.00  0.00    +0.000 C 
ATOM     26  C   UNL     1       1.689  10.970  18.579  0.00  0.00    +0.000 C 
ENDBRANCH  20  21
ENDBRANCH  15  18
ENDBRANCH   6  14
TORSDOF 4
ENDMDL
MODEL 3
REMARK VINA RESULT:      -9.0      3.647      5.971
REMARK  Name = 
REMARK  5 active torsions:
REMARK  status: ('A' for Active; 'I' for Inactive)
REMARK    1  A    between atoms: C_1  and  C_2
REMARK    2  A    between atoms: C_5  and  C_6
REMARK    3  A    between atoms: C_12  and  N_13
REMARK    4  A    between atoms: C_14  and  C_16
REMARK    5  A    between atoms: C_18  and  C_19
REMARK                            x       y       z     vdW  Elec       q    Type
REMARK                         _______ _______ _______ _____ _____    ______ ____
ROOT
ATOM      1  C   UNL     1       0.846   3.166  18.683  0.00  0.00    +0.000 C 
ATOM      2  C   UNL     1       2.253   3.529  18.384  0.00  0.00    +0.000 A 
ATOM      3  N   UNL     1       2.934   2.800  17.491  0.00  0.00    +0.000 NA
ATOM      4  N   UNL     1       4.111   3.422  17.400  0.00  0.00    +0.000 N 
ATOM      5  C   UNL     1       4.237   4.556  18.168  0.00  0.00    +0.000 A 
ATOM      6  C   UNL     1       3.046   4.612  18.876  0.00  0.00    +0.000 A 
ATOM      7  H   UNL     1       4.813   3.009  16.795  0.00  0.00    +0.000 HD
ENDROOT
BRANCH   5   8
ATOM      8  C   UNL     1       5.497   5.311  18.210  0.00  0.00    +0.000 A 
ATOM      9  C   UNL     1       6.417   5.105  19.252  0.00  0.00    +0.000 A 
ATOM     10  C   UNL     1       7.585   5.866  19.347  0.00  0.00    +0.000 A 
ATOM     11  C   UNL     1       7.864   6.836  18.390  0.00  0.00    +0.000 A 
ATOM     12  C   UNL     1       6.970   7.049  17.344  0.00  0.00    +0.000 A 
ATOM     13  C   UNL     1       5.794   6.296  17.260  0.00  0.00    +0.000 A 
ENDBRANCH   5   8
BRANCH   6  14
ATOM     14  N   UNL     1       2.700   5.564  19.821  0.00  0.00    +0.000 N 
ATOM     15  C   UNL     1       2.424   6.894  19.556  0.00  0.00    +0.000 C 
ATOM     16  O   UNL     1       2.199   7.681  20.468  0.00  0.00    +0.000 OA
ATOM     17  H   UNL     1       2.278   5.241  20.684  0.00  0.00    +0.000 HD
BRANCH  15  18
ATOM     18  C   UNL     1       2.238   7.289  18.128  0.00  0.00    +0.000 C 
ATOM     19  C   UNL     1       2.977   8.406  17.457  0.00  0.00    +0.000 C 
ATOM     20  C   UNL     1       1.502   8.566  17.747  0.00  0.00    +0.000 C 
BRANCH  20  21
ATOM     21  C   UNL     1       1.107   9.713  18.653  0.00  0.00    +0.000 C 
ATOM     22  C   UNL     1      -0.381  10.068  18.483  0.00  0.00    +0.000 C 
ATOM     23  C   UNL     1      -0.767  11.344  19.231  0.00  0.00    +0.000 C 
ATOM     24  C   UNL     1       0.121  12.519  18.833  0.00  0.00    +0.000 C 
ATOM     25  C   UNL     1       1.590  12.191  19.060  0.00  0.00    +0.000 C 
ATOM     26  C   UNL     1       1.997  10.928  18.314  0.00  0.00    +0.000 C 
ENDBRANCH  20  21
ENDBRANCH  15  18
ENDBRANCH   6  14
TORSDOF 4
ENDMDL
MODEL 4
REMARK VINA RESULT:      -8.5      1.309      2.055
REMARK  Name = 
REMARK  5 active torsions:
REMARK  status: ('A' for Active; 'I' for Inactive)
REMARK    1  A    between atoms: C_1  and  C_2
REMARK    2  A    between atoms: C_5  and  C_6
REMARK    3  A    between atoms: C_12  and  N_13
REMARK    4  A    between atoms: C_14  and  C_16
REMARK    5  A    between atoms: C_18  and  C_19
REMARK                            x       y       z     vdW  Elec       q    Type
REMARK                         _______ _______ _______ _____ _____    ______ ____
ROOT
ATOM      1  C   UNL     1       6.033   5.603  19.223  0.00  0.00    +0.000 C 
ATOM      2  C   UNL     1       6.387   5.327  17.809  0.00  0.00    +0.000 A 
ATOM      3  N   UNL     1       7.671   5.397  17.437  0.00  0.00    +0.000 NA
ATOM      4  N   UNL     1       7.654   5.027  16.154  0.00  0.00    +0.000 N 
ATOM      5  C   UNL     1       6.418   4.681  15.660  0.00  0.00    +0.000 A 
ATOM      6  C   UNL     1       5.555   4.931  16.715  0.00  0.00    +0.000 A 
ATOM      7  H   UNL     1       8.534   5.047  15.651  0.00  0.00    +0.000 HD
ENDROOT
BRANCH   5   8
ATOM      8  C   UNL     1       6.241   4.307  14.250  0.00  0.00    +0.000 A 
ATOM      9  C   UNL     1       5.020   3.773  13.802  0.00  0.00    +0.000 A 
ATOM     10  C   UNL     1       4.859   3.345  12.482  0.00  0.00    +0.000 A 
ATOM     11  C   UNL     1       5.910   3.460  11.579  0.00  0.00    +0.000 A 
ATOM     12  C   UNL     1       7.124   3.996  11.999  0.00  0.00    +0.000 A 
ATOM     13  C   UNL     1       7.289   4.410  13.326  0.00  0.00    +0.000 A 
ENDBRANCH   5   8
BRANCH   6  14
ATOM     14  N   UNL     1       4.179   4.771  16.703  0.00  0.00    +0.000 N 
ATOM     15  C   UNL     1       3.503   3.611  17.039  0.00  0.00    +0.000 C 
ATOM     16  O   UNL     1       2.285   3.540  16.926  0.00  0.00    +0.000 OA
ATOM     17  H   UNL     1       3.606   5.600  16.804  0.00  0.00    +0.000 HD
BRANCH  15  18
ATOM     18  C   UNL     1       4.284   2.525  17.704  0.00  0.00    +0.000 C 
ATOM     19  C   UNL     1       3.686   1.262  18.244  0.00  0.00    +0.000 C 
ATOM     20  C   UNL     1       4.213   2.302  19.208  0.00  0.00    +0.000 C 
BRANCH  20  21
ATOM     21  C   UNL     1       3.216   2.889  20.185  0.00  0.00    +0.000 C 
ATOM     22  C   UNL     1       1.802   2.337  19.935  0.00  0.00    +0.000 C 
ATOM     23  C   UNL     1       0.738   3.053  20.768  0.00  0.00    +0.000 C 
ATOM     24  C   UNL     1       0.778   4.562  20.552  0.00  0.00    +0.000 C 
ATOM     25  C   UNL     1       2.161   5.119  20.860  0.00  0.00    +0.000 C 
ATOM     26  C   UNL     1       3.234   4.425  20.032  0.00  0.00    +0.000 C 
ENDBRANCH  20  21
ENDBRANCH  15  18
ENDBRANCH   6  14
TORSDOF 4
ENDMDL
MODEL 5
REMARK VINA RESULT:      -8.4      0.836      1.159
REMARK  Name = 
REMARK  5 active torsions:
REMARK  status: ('A' for Active; 'I' for Inactive)
REMARK    1  A    between atoms: C_1  and  C_2
REMARK    2  A    between atoms: C_5  and  C_6
REMARK    3  A    between atoms: C_12  and  N_13
REMARK    4  A    between atoms: C_14  and  C_16
REMARK    5  A    between atoms: C_18  and  C_19
REMARK                            x       y       z     vdW  Elec       q    Type
REMARK                         _______ _______ _______ _____ _____    ______ ____
ROOT
ATOM      1  C   UNL     1       7.416   5.497  18.195  0.00  0.00    +0.000 C 
ATOM      2  C   UNL     1       7.189   5.275  16.746  0.00  0.00    +0.000 A 
ATOM      3  N   UNL     1       7.856   6.029  15.863  0.00  0.00    +0.000 NA
ATOM      4  N   UNL     1       7.491   5.534  14.678  0.00  0.00    +0.000 N 
ATOM      5  C   UNL     1       6.635   4.459  14.730  0.00  0.00    +0.000 A 
ATOM      6  C   UNL     1       6.371   4.309  16.083  0.00  0.00    +0.000 A 
ATOM      7  H   UNL     1       7.854   5.991  13.849  0.00  0.00    +0.000 HD
ENDROOT
BRANCH   5   8
ATOM      8  C   UNL     1       6.107   3.848  13.503  0.00  0.00    +0.000 A 
ATOM      9  C   UNL     1       4.764   4.036  13.133  0.00  0.00    +0.000 A 
ATOM     10  C   UNL     1       4.227   3.403  12.010  0.00  0.00    +0.000 A 
ATOM     11  C   UNL     1       5.028   2.583  11.223  0.00  0.00    +0.000 A 
ATOM     12  C   UNL     1       6.364   2.391  11.565  0.00  0.00    +0.000 A 
ATOM     13  C   UNL     1       6.896   3.014  12.700  0.00  0.00    +0.000 A 
ENDBRANCH   5   8
BRANCH   6  14
ATOM     14  N   UNL     1       5.524   3.371  16.652  0.00  0.00    +0.000 N 
ATOM     15  C   UNL     1       4.304   3.648  17.244  0.00  0.00    +0.000 C 
ATOM     16  O   UNL     1       3.657   2.761  17.789  0.00  0.00    +0.000 OA
ATOM     17  H   UNL     1       5.593   2.414  16.329  0.00  0.00    +0.000 HD
BRANCH  15  18
ATOM     18  C   UNL     1       3.731   5.012  17.042  0.00  0.00    +0.000 C 
ATOM     19  C   UNL     1       3.862   6.137  18.023  0.00  0.00    +0.000 C 
ATOM     20  C   UNL     1       2.512   5.485  17.821  0.00  0.00    +0.000 C 
BRANCH  20  21
ATOM     21  C   UNL     1       1.882   4.838  19.037  0.00  0.00    +0.000 C 
ATOM     22  C   UNL     1       2.928   4.587  20.137  0.00  0.00    +0.000 C 
ATOM     23  C   UNL     1       2.371   3.758  21.295  0.00  0.00    +0.000 C 
ATOM     24  C   UNL     1       1.769   2.444  20.808  0.00  0.00    +0.000 C 
ATOM     25  C   UNL     1       0.690   2.696  19.764  0.00  0.00    +0.000 C 
ATOM     26  C   UNL     1       1.228   3.511  18.597  0.00  0.00    +0.000 C 
ENDBRANCH  20  21
ENDBRANCH  15  18
ENDBRANCH   6  14
TORSDOF 4
ENDMDL
MODEL 6
REMARK VINA RESULT:      -8.2      1.215      3.669
REMARK  Name = 
REMARK  5 active torsions:
REMARK  status: ('A' for Active; 'I' for Inactive)
REMARK    1  A    between atoms: C_1  and  C_2
REMARK    2  A    between atoms: C_5  and  C_6
REMARK    3  A    between atoms: C_12  and  N_13
REMARK    4  A    between atoms: C_14  and  C_16
REMARK    5  A    between atoms: C_18  and  C_19
REMARK                            x       y       z     vdW  Elec       q    Type
REMARK                         _______ _______ _______ _____ _____    ______ ____
ROOT
ATOM      1  C   UNL     1       5.349   3.157  12.889  0.00  0.00    +0.000 C 
ATOM      2  C   UNL     1       6.141   3.983  13.833  0.00  0.00    +0.000 A 
ATOM      3  N   UNL     1       6.995   4.890  13.341  0.00  0.00    +0.000 NA
ATOM      4  N   UNL     1       7.478   5.498  14.426  0.00  0.00    +0.000 N 
ATOM      5  C   UNL     1       6.959   5.062  15.623  0.00  0.00    +0.000 A 
ATOM      6  C   UNL     1       6.121   4.018  15.262  0.00  0.00    +0.000 A 
ATOM      7  H   UNL     1       8.187   6.209  14.286  0.00  0.00    +0.000 HD
ENDROOT
BRANCH   5   8
ATOM      8  C   UNL     1       7.438   5.603  16.902  0.00  0.00    +0.000 A 
ATOM      9  C   UNL     1       7.705   4.746  17.983  0.00  0.00    +0.000 A 
ATOM     10  C   UNL     1       8.091   5.251  19.228  0.00  0.00    +0.000 A 
ATOM     11  C   UNL     1       8.235   6.622  19.409  0.00  0.00    +0.000 A 
ATOM     12  C   UNL     1       7.986   7.488  18.348  0.00  0.00    +0.000 A 
ATOM     13  C   UNL     1       7.584   6.981  17.107  0.00  0.00    +0.000 A 
ENDBRANCH   5   8
BRANCH   6  14
ATOM     14  N   UNL     1       5.386   3.223  16.125  0.00  0.00    +0.000 N 
ATOM     15  C   UNL     1       4.476   3.683  17.061  0.00  0.00    +0.000 C 
ATOM     16  O   UNL     1       3.926   2.908  17.835  0.00  0.00    +0.000 OA
ATOM     17  H   UNL     1       5.214   2.262  15.853  0.00  0.00    +0.000 HD
BRANCH  15  18
ATOM     18  C   UNL     1       4.062   5.115  16.975  0.00  0.00    +0.000 C 
ATOM     19  C   UNL     1       4.220   6.109  18.085  0.00  0.00    +0.000 C 
ATOM     20  C   UNL     1       2.834   5.633  17.711  0.00  0.00    +0.000 C 
BRANCH  20  21
ATOM     21  C   UNL     1       2.041   4.933  18.795  0.00  0.00    +0.000 C 
ATOM     22  C   UNL     1       2.932   4.593  20.003  0.00  0.00    +0.000 C 
ATOM     23  C   UNL     1       2.217   3.713  21.029  0.00  0.00    +0.000 C 
ATOM     24  C   UNL     1       1.660   2.445  20.391  0.00  0.00    +0.000 C 
ATOM     25  C   UNL     1       0.729   2.782  19.234  0.00  0.00    +0.000 C 
ATOM     26  C   UNL     1       1.427   3.650  18.196  0.00  0.00    +0.000 C 
ENDBRANCH  20  21
ENDBRANCH  15  18
ENDBRANCH   6  14
TORSDOF 4
ENDMDL
MODEL 7
REMARK VINA RESULT:      -8.2     10.374     13.012
REMARK  Name = 
REMARK  5 active torsions:
REMARK  status: ('A' for Active; 'I' for Inactive)
REMARK    1  A    between atoms: C_1  and  C_2
REMARK    2  A    between atoms: C_5  and  C_6
REMARK    3  A    between atoms: C_12  and  N_13
REMARK    4  A    between atoms: C_14  and  C_16
REMARK    5  A    between atoms: C_18  and  C_19
REMARK                            x       y       z     vdW  Elec       q    Type
REMARK                         _______ _______ _______ _____ _____    ______ ____
ROOT
ATOM      1  C   UNL     1      -1.530  13.225  23.512  0.00  0.00    +0.000 C 
ATOM      2  C   UNL     1      -2.808  12.951  22.810  0.00  0.00    +0.000 A 
ATOM      3  N   UNL     1      -3.793  12.333  23.474  0.00  0.00    +0.000 NA
ATOM      4  N   UNL     1      -4.803  12.310  22.602  0.00  0.00    +0.000 N 
ATOM      5  C   UNL     1      -4.550  12.917  21.394  0.00  0.00    +0.000 A 
ATOM      6  C   UNL     1      -3.218  13.292  21.483  0.00  0.00    +0.000 A 
ATOM      7  H   UNL     1      -5.656  11.842  22.888  0.00  0.00    +0.000 HD
ENDROOT
BRANCH   5   8
ATOM      8  C   UNL     1      -5.551  12.919  20.319  0.00  0.00    +0.000 A 
ATOM      9  C   UNL     1      -5.807  14.090  19.586  0.00  0.00    +0.000 A 
ATOM     10  C   UNL     1      -6.807  14.129  18.610  0.00  0.00    +0.000 A 
ATOM     11  C   UNL     1      -7.557  12.991  18.337  0.00  0.00    +0.000 A 
ATOM     12  C   UNL     1      -7.313  11.817  19.045  0.00  0.00    +0.000 A 
ATOM     13  C   UNL     1      -6.322  11.785  20.033  0.00  0.00    +0.000 A 
ENDBRANCH   5   8
BRANCH   6  14
ATOM     14  N   UNL     1      -2.476  13.916  20.494  0.00  0.00    +0.000 N 
ATOM     15  C   UNL     1      -1.388  13.365  19.838  0.00  0.00    +0.000 C 
ATOM     16  O   UNL     1      -0.746  14.022  19.028  0.00  0.00    +0.000 OA
ATOM     17  H   UNL     1      -2.924  14.650  19.958  0.00  0.00    +0.000 HD
BRANCH  15  18
ATOM     18  C   UNL     1      -1.140  11.904  20.021  0.00  0.00    +0.000 C 
ATOM     19  C   UNL     1      -0.174  11.102  19.204  0.00  0.00    +0.000 C 
ATOM     20  C   UNL     1      -1.659  10.879  19.023  0.00  0.00    +0.000 C 
BRANCH  20  21
ATOM     21  C   UNL     1      -2.222  11.135  17.641  0.00  0.00    +0.000 C 
ATOM     22  C   UNL     1      -3.734  11.412  17.700  0.00  0.00    +0.000 C 
ATOM     23  C   UNL     1      -4.372  11.478  16.312  0.00  0.00    +0.000 C 
ATOM     24  C   UNL     1      -4.081  10.220  15.499  0.00  0.00    +0.000 C 
ATOM     25  C   UNL     1      -2.582   9.981  15.388  0.00  0.00    +0.000 C 
ATOM     26  C   UNL     1      -1.930   9.901  16.761  0.00  0.00    +0.000 C 
ENDBRANCH  20  21
ENDBRANCH  15  18
ENDBRANCH   6  14
TORSDOF 4
ENDMDL
MODEL 8
REMARK VINA RESULT:      -8.2      2.065      4.529
REMARK  Name = 
REMARK  5 active torsions:
REMARK  status: ('A' for Active; 'I' for Inactive)
REMARK    1  A    between atoms: C_1  and  C_2
REMARK    2  A    between atoms: C_5  and  C_6
REMARK    3  A    between atoms: C_12  and  N_13
REMARK    4  A    between atoms: C_14  and  C_16
REMARK    5  A    between atoms: C_18  and  C_19
REMARK                            x       y       z     vdW  Elec       q    Type
REMARK                         _______ _______ _______ _____ _____    ______ ____
ROOT
ATOM      1  C   UNL     1       7.100   4.496  15.557  0.00  0.00    +0.000 C 
ATOM      2  C   UNL     1       6.075   5.483  15.980  0.00  0.00    +0.000 A 
ATOM      3  N   UNL     1       5.644   6.389  15.094  0.00  0.00    +0.000 NA
ATOM      4  N   UNL     1       4.695   7.057  15.754  0.00  0.00    +0.000 N 
ATOM      5  C   UNL     1       4.448   6.615  17.033  0.00  0.00    +0.000 A 
ATOM      6  C   UNL     1       5.391   5.617  17.228  0.00  0.00    +0.000 A 
ATOM      7  H   UNL     1       4.252   7.833  15.275  0.00  0.00    +0.000 HD
ENDROOT
BRANCH   5   8
ATOM      8  C   UNL     1       3.470   7.292  17.895  0.00  0.00    +0.000 A 
ATOM      9  C   UNL     1       3.165   6.777  19.167  0.00  0.00    +0.000 A 
ATOM     10  C   UNL     1       2.184   7.366  19.969  0.00  0.00    +0.000 A 
ATOM     11  C   UNL     1       1.502   8.492  19.522  0.00  0.00    +0.000 A 
ATOM     12  C   UNL     1       1.796   9.024  18.269  0.00  0.00    +0.000 A 
ATOM     13  C   UNL     1       2.768   8.423  17.461  0.00  0.00    +0.000 A 
ENDBRANCH   5   8
BRANCH   6  14
ATOM     14  N   UNL     1       5.574   4.881  18.387  0.00  0.00    +0.000 N 
ATOM     15  C   UNL     1       4.984   3.660  18.664  0.00  0.00    +0.000 C 
ATOM     16  O   UNL     1       5.147   3.117  19.750  0.00  0.00    +0.000 OA
ATOM     17  H   UNL     1       6.429   5.029  18.911  0.00  0.00    +0.000 HD
BRANCH  15  18
ATOM     18  C   UNL     1       4.295   2.956  17.541  0.00  0.00    +0.000 C 
ATOM     19  C   UNL     1       3.083   3.479  16.832  0.00  0.00    +0.000 C 
ATOM     20  C   UNL     1       2.947   2.276  17.738  0.00  0.00    +0.000 C 
BRANCH  20  21
ATOM     21  C   UNL     1       2.003   2.414  18.914  0.00  0.00    +0.000 C 
ATOM     22  C   UNL     1       1.503   3.862  19.057  0.00  0.00    +0.000 C 
ATOM     23  C   UNL     1       0.709   4.083  20.345  0.00  0.00    +0.000 C 
ATOM     24  C   UNL     1       1.505   3.659  21.575  0.00  0.00    +0.000 C 
ATOM     25  C   UNL     1       1.947   2.207  21.462  0.00  0.00    +0.000 C 
ATOM     26  C   UNL     1       2.749   1.969  20.190  0.00  0.00    +0.000 C 
ENDBRANCH  20  21
ENDBRANCH  15  18
ENDBRANCH   6  14
TORSDOF 4
ENDMDL
MODEL 9
REMARK VINA RESULT:      -8.0      1.337      3.888
REMARK  Name = 
REMARK  5 active torsions:
REMARK  status: ('A' for Active; 'I' for Inactive)
REMARK    1  A    between atoms: C_1  and  C_2
REMARK    2  A    between atoms: C_5  and  C_6
REMARK    3  A    between atoms: C_12  and  N_13
REMARK    4  A    between atoms: C_14  and  C_16
REMARK    5  A    between atoms: C_18  and  C_19
REMARK                            x       y       z     vdW  Elec       q    Type
REMARK                         _______ _______ _______ _____ _____    ______ ____
ROOT
ATOM      1  C   UNL     1       5.967   3.255  12.425  0.00  0.00    +0.000 C 
ATOM      2  C   UNL     1       6.559   4.118  13.477  0.00  0.00    +0.000 A 
ATOM      3  N   UNL     1       7.224   5.221  13.112  0.00  0.00    +0.000 NA
ATOM      4  N   UNL     1       7.553   5.796  14.270  0.00  0.00    +0.000 N 
ATOM      5  C   UNL     1       7.108   5.144  15.396  0.00  0.00    +0.000 A 
ATOM      6  C   UNL     1       6.504   3.999  14.901  0.00  0.00    +0.000 A 
ATOM      7  H   UNL     1       8.109   6.644  14.230  0.00  0.00    +0.000 HD
ENDROOT
BRANCH   5   8
ATOM      8  C   UNL     1       7.444   5.633  16.740  0.00  0.00    +0.000 A 
ATOM      9  C   UNL     1       7.459   7.011  17.015  0.00  0.00    +0.000 A 
ATOM     10  C   UNL     1       7.847   7.496  18.267  0.00  0.00    +0.000 A 
ATOM     11  C   UNL     1       8.209   6.609  19.275  0.00  0.00    +0.000 A 
ATOM     12  C   UNL     1       8.191   5.239  19.028  0.00  0.00    +0.000 A 
ATOM     13  C   UNL     1       7.817   4.757  17.768  0.00  0.00    +0.000 A 
ENDBRANCH   5   8
BRANCH   6  14
ATOM     14  N   UNL     1       5.925   2.989  15.651  0.00  0.00    +0.000 N 
ATOM     15  C   UNL     1       4.856   3.145  16.517  0.00  0.00    +0.000 C 
ATOM     16  O   UNL     1       4.458   2.206  17.197  0.00  0.00    +0.000 OA
ATOM     17  H   UNL     1       6.023   2.037  15.319  0.00  0.00    +0.000 HD
BRANCH  15  18
ATOM     18  C   UNL     1       4.103   4.433  16.460  0.00  0.00    +0.000 C 
ATOM     19  C   UNL     1       4.280   5.559  17.432  0.00  0.00    +0.000 C 
ATOM     20  C   UNL     1       3.000   4.754  17.458  0.00  0.00    +0.000 C 
BRANCH  20  21
ATOM     21  C   UNL     1       2.680   4.028  18.748  0.00  0.00    +0.000 C 
ATOM     22  C   UNL     1       1.457   3.109  18.580  0.00  0.00    +0.000 C 
ATOM     23  C   UNL     1       0.984   2.515  19.907  0.00  0.00    +0.000 C 
ATOM     24  C   UNL     1       0.709   3.600  20.942  0.00  0.00    +0.000 C 
ATOM     25  C   UNL     1       1.939   4.472  21.155  0.00  0.00    +0.000 C 
ATOM     26  C   UNL     1       2.419   5.082  19.846  0.00  0.00    +0.000 C 
ENDBRANCH  20  21
ENDBRANCH  15  18
ENDBRANCH   6  14
TORSDOF 4
ENDMDL
