MODEL 1
REMARK VINA RESULT:      -8.7      0.000      0.000
REMARK  Name = 
REMARK  4 active torsions:
REMARK  status: ('A' for Active; 'I' for Inactive)
REMARK    1  A    between atoms: C_2  and  C_3
REMARK    2  A    between atoms: C_3  and  N_4
REMARK    3  A    between atoms: C_7  and  C_8
REMARK    4  A    between atoms: N_15  and  C_16
REMARK                            x       y       z     vdW  Elec       q    Type
REMARK                         _______ _______ _______ _____ _____    ______ ____
ROOT
ATOM      1  O   UNL     1       6.504   5.296  19.412  0.00  0.00    +0.000 OA
ATOM      2  C   UNL     1       6.484   4.615  18.389  0.00  0.00    +0.000 C 
ATOM      3  N   UNL     1       5.451   3.778  17.989  0.00  0.00    +0.000 N 
ATOM      4  H   UNL     1       5.583   3.271  17.116  0.00  0.00    +0.000 HD
ENDROOT
BRANCH   3   5
ATOM      5  C   UNL     1       4.187   3.622  18.598  0.00  0.00    +0.000 A 
ATOM      6  C   UNL     1       2.963   3.836  17.933  0.00  0.00    +0.000 A 
ATOM      7  C   UNL     1       1.740   3.629  18.586  0.00  0.00    +0.000 A 
ATOM      8  C   UNL     1       1.772   3.209  19.895  0.00  0.00    +0.000 A 
ATOM      9  C   UNL     1       2.960   3.007  20.554  0.00  0.00    +0.000 A 
ATOM     10  C   UNL     1       4.178   3.207  19.938  0.00  0.00    +0.000 A 
ATOM     11  O   UNL     1       2.776   2.591  21.836  0.00  0.00    +0.000 OA
ATOM     12  C   UNL     1       1.336   2.512  21.891  0.00  0.00    +0.000 C 
ATOM     13  O   UNL     1       0.692   2.945  20.675  0.00  0.00    +0.000 OA
ENDBRANCH   3   5
BRANCH   2  14
ATOM     14  C   UNL     1       7.690   4.577  17.483  0.00  0.00    +0.000 C 
BRANCH  14  15
ATOM     15  N   UNL     1       7.300   4.684  16.101  0.00  0.00    +0.000 N 
ATOM     16  N   UNL     1       7.564   5.774  15.371  0.00  0.00    +0.000 NA
ATOM     17  N   UNL     1       7.085   5.495  14.168  0.00  0.00    +0.000 NA
ATOM     18  C   UNL     1       6.552   4.227  14.227  0.00  0.00    +0.000 A 
ATOM     19  N   UNL     1       6.661   3.682  15.457  0.00  0.00    +0.000 NA
BRANCH  18  20
ATOM     20  C   UNL     1       5.957   3.578  13.065  0.00  0.00    +0.000 A 
ATOM     21  C   UNL     1       4.665   3.934  12.648  0.00  0.00    +0.000 A 
ATOM     22  C   UNL     1       4.084   3.330  11.529  0.00  0.00    +0.000 A 
ATOM     23  C   UNL     1       4.787   2.366  10.813  0.00  0.00    +0.000 A 
ATOM     24  C   UNL     1       6.070   1.999  11.218  0.00  0.00    +0.000 A 
ATOM     25  C   UNL     1       6.654   2.601  12.338  0.00  0.00    +0.000 A 
ENDBRANCH  18  20
ENDBRANCH  14  15
ENDBRANCH   2  14
TORSDOF 4
ENDMDL
MODEL 2
REMARK VINA RESULT:      -8.7      0.629      1.165
REMARK  Name = 
REMARK  4 active torsions:
REMARK  status: ('A' for Active; 'I' for Inactive)
REMARK    1  A    between atoms: C_2  and  C_3
REMARK    2  A    between atoms: C_3  and  N_4
REMARK    3  A    between atoms: C_7  and  C_8
REMARK    4  A    between atoms: N_15  and  C_16
REMARK                            x       y       z     vdW  Elec       q    Type
REMARK                         _______ _______ _______ _____ _____    ______ ____
ROOT
ATOM      1  O   UNL     1       5.806   6.123  18.134  0.00  0.00    +0.000 OA
ATOM      2  C   UNL     1       6.113   5.042  17.638  0.00  0.00    +0.000 C 
ATOM      3  N   UNL     1       5.393   3.860  17.753  0.00  0.00    +0.000 N 
ATOM      4  H   UNL     1       5.779   3.040  17.289  0.00  0.00    +0.000 HD
ENDROOT
BRANCH   3   5
ATOM      5  C   UNL     1       4.129   3.680  18.354  0.00  0.00    +0.000 A 
ATOM      6  C   UNL     1       2.907   3.798  17.664  0.00  0.00    +0.000 A 
ATOM      7  C   UNL     1       1.685   3.570  18.312  0.00  0.00    +0.000 A 
ATOM      8  C   UNL     1       1.716   3.227  19.643  0.00  0.00    +0.000 A 
ATOM      9  C   UNL     1       2.902   3.118  20.327  0.00  0.00    +0.000 A 
ATOM     10  C   UNL     1       4.119   3.340  19.716  0.00  0.00    +0.000 A 
ATOM     11  O   UNL     1       2.719   2.766  21.628  0.00  0.00    +0.000 OA
ATOM     12  C   UNL     1       1.283   2.623  21.670  0.00  0.00    +0.000 C 
ATOM     13  O   UNL     1       0.638   2.956  20.424  0.00  0.00    +0.000 OA
ENDBRANCH   3   5
BRANCH   2  14
ATOM     14  C   UNL     1       7.415   4.896  16.891  0.00  0.00    +0.000 C 
BRANCH  14  15
ATOM     15  N   UNL     1       7.187   4.773  15.474  0.00  0.00    +0.000 N 
ATOM     16  N   UNL     1       7.820   5.543  14.582  0.00  0.00    +0.000 NA
ATOM     17  N   UNL     1       7.377   5.126  13.406  0.00  0.00    +0.000 NA
ATOM     18  C   UNL     1       6.487   4.103  13.646  0.00  0.00    +0.000 A 
ATOM     19  N   UNL     1       6.331   3.859  14.964  0.00  0.00    +0.000 NA
BRANCH  18  20
ATOM     20  C   UNL     1       5.820   3.383  12.568  0.00  0.00    +0.000 A 
ATOM     21  C   UNL     1       6.430   2.255  11.996  0.00  0.00    +0.000 A 
ATOM     22  C   UNL     1       5.800   1.545  10.971  0.00  0.00    +0.000 A 
ATOM     23  C   UNL     1       4.553   1.952  10.505  0.00  0.00    +0.000 A 
ATOM     24  C   UNL     1       3.937   3.072  11.060  0.00  0.00    +0.000 A 
ATOM     25  C   UNL     1       4.565   3.785  12.087  0.00  0.00    +0.000 A 
ENDBRANCH  18  20
ENDBRANCH  14  15
ENDBRANCH   2  14
TORSDOF 4
ENDMDL
MODEL 3
REMARK VINA RESULT:      -8.4      3.746      4.557
REMARK  Name = 
REMARK  4 active torsions:
REMARK  status: ('A' for Active; 'I' for Inactive)
REMARK    1  A    between atoms: C_2  and  C_3
REMARK    2  A    between atoms: C_3  and  N_4
REMARK    3  A    between atoms: C_7  and  C_8
REMARK    4  A    between atoms: N_15  and  C_16
REMARK                            x       y       z     vdW  Elec       q    Type
REMARK                         _______ _______ _______ _____ _____    ______ ____
ROOT
ATOM      1  O   UNL     1       1.648   4.424  18.868  0.00  0.00    +0.000 OA
ATOM      2  C   UNL     1       2.834   4.743  18.907  0.00  0.00    +0.000 C 
ATOM      3  N   UNL     1       3.330   6.040  18.881  0.00  0.00    +0.000 N 
ATOM      4  H   UNL     1       4.343   6.145  18.914  0.00  0.00    +0.000 HD
ENDROOT
BRANCH   3   5
ATOM      5  C   UNL     1       2.591   7.242  18.920  0.00  0.00    +0.000 A 
ATOM      6  C   UNL     1       2.391   8.078  17.805  0.00  0.00    +0.000 A 
ATOM      7  C   UNL     1       1.616   9.242  17.903  0.00  0.00    +0.000 A 
ATOM      8  C   UNL     1       1.057   9.542  19.123  0.00  0.00    +0.000 A 
ATOM      9  C   UNL     1       1.254   8.738  20.219  0.00  0.00    +0.000 A 
ATOM     10  C   UNL     1       2.015   7.589  20.152  0.00  0.00    +0.000 A 
ATOM     11  O   UNL     1       0.616   9.205  21.325  0.00  0.00    +0.000 OA
ATOM     12  C   UNL     1      -0.042  10.372  20.786  0.00  0.00    +0.000 C 
ATOM     13  O   UNL     1       0.270  10.614  19.398  0.00  0.00    +0.000 OA
ENDBRANCH   3   5
BRANCH   2  14
ATOM     14  C   UNL     1       3.903   3.678  18.902  0.00  0.00    +0.000 C 
BRANCH  14  15
ATOM     15  N   UNL     1       4.940   3.993  17.953  0.00  0.00    +0.000 N 
ATOM     16  N   UNL     1       6.161   4.383  18.338  0.00  0.00    +0.000 NA
ATOM     17  N   UNL     1       6.829   4.553  17.207  0.00  0.00    +0.000 NA
ATOM     18  C   UNL     1       5.970   4.246  16.176  0.00  0.00    +0.000 A 
ATOM     19  N   UNL     1       4.744   3.895  16.619  0.00  0.00    +0.000 NA
BRANCH  18  20
ATOM     20  C   UNL     1       6.382   4.294  14.778  0.00  0.00    +0.000 A 
ATOM     21  C   UNL     1       5.726   3.498  13.826  0.00  0.00    +0.000 A 
ATOM     22  C   UNL     1       6.099   3.541  12.480  0.00  0.00    +0.000 A 
ATOM     23  C   UNL     1       7.130   4.380  12.069  0.00  0.00    +0.000 A 
ATOM     24  C   UNL     1       7.794   5.173  13.004  0.00  0.00    +0.000 A 
ATOM     25  C   UNL     1       7.423   5.133  14.352  0.00  0.00    +0.000 A 
ENDBRANCH  18  20
ENDBRANCH  14  15
ENDBRANCH   2  14
TORSDOF 4
ENDMDL
MODEL 4
REMARK VINA RESULT:      -8.1      3.642      5.919
REMARK  Name = 
REMARK  4 active torsions:
REMARK  status: ('A' for Active; 'I' for Inactive)
REMARK    1  A    between atoms: C_2  and  C_3
REMARK    2  A    between atoms: C_3  and  N_4
REMARK    3  A    between atoms: C_7  and  C_8
REMARK    4  A    between atoms: N_15  and  C_16
REMARK                            x       y       z     vdW  Elec       q    Type
REMARK                         _______ _______ _______ _____ _____    ______ ____
ROOT
ATOM      1  O   UNL     1       5.110   3.609  16.085  0.00  0.00    +0.000 OA
ATOM      2  C   UNL     1       5.451   4.672  16.600  0.00  0.00    +0.000 C 
ATOM      3  N   UNL     1       4.822   5.296  17.669  0.00  0.00    +0.000 N 
ATOM      4  H   UNL     1       5.219   6.180  17.982  0.00  0.00    +0.000 HD
ENDROOT
BRANCH   3   5
ATOM      5  C   UNL     1       3.754   4.799  18.447  0.00  0.00    +0.000 A 
ATOM      6  C   UNL     1       2.396   5.024  18.152  0.00  0.00    +0.000 A 
ATOM      7  C   UNL     1       1.382   4.472  18.947  0.00  0.00    +0.000 A 
ATOM      8  C   UNL     1       1.755   3.702  20.023  0.00  0.00    +0.000 A 
ATOM      9  C   UNL     1       3.077   3.484  20.324  0.00  0.00    +0.000 A 
ATOM     10  C   UNL     1       4.096   4.018  19.562  0.00  0.00    +0.000 A 
ATOM     11  O   UNL     1       3.235   2.695  21.420  0.00  0.00    +0.000 OA
ATOM     12  C   UNL     1       1.859   2.407  21.747  0.00  0.00    +0.000 C 
ATOM     13  O   UNL     1       0.914   3.078  20.889  0.00  0.00    +0.000 OA
ENDBRANCH   3   5
BRANCH   2  14
ATOM     14  C   UNL     1       6.597   5.460  16.017  0.00  0.00    +0.000 C 
BRANCH  14  15
ATOM     15  N   UNL     1       7.203   6.304  17.015  0.00  0.00    +0.000 N 
ATOM     16  N   UNL     1       7.647   5.819  18.181  0.00  0.00    +0.000 NA
ATOM     17  N   UNL     1       8.150   6.870  18.809  0.00  0.00    +0.000 NA
ATOM     18  C   UNL     1       7.991   7.956  17.978  0.00  0.00    +0.000 A 
ATOM     19  N   UNL     1       7.375   7.631  16.823  0.00  0.00    +0.000 NA
BRANCH  18  20
ATOM     20  C   UNL     1       8.463   9.288  18.339  0.00  0.00    +0.000 A 
ATOM     21  C   UNL     1       8.248  10.368  17.467  0.00  0.00    +0.000 A 
ATOM     22  C   UNL     1       8.682  11.653  17.801  0.00  0.00    +0.000 A 
ATOM     23  C   UNL     1       9.334  11.876  19.010  0.00  0.00    +0.000 A 
ATOM     24  C   UNL     1       9.558  10.814  19.884  0.00  0.00    +0.000 A 
ATOM     25  C   UNL     1       9.125   9.525  19.552  0.00  0.00    +0.000 A 
ENDBRANCH  18  20
ENDBRANCH  14  15
ENDBRANCH   2  14
TORSDOF 4
ENDMDL
MODEL 5
REMARK VINA RESULT:      -8.0      4.485      6.781
REMARK  Name = 
REMARK  4 active torsions:
REMARK  status: ('A' for Active; 'I' for Inactive)
REMARK    1  A    between atoms: C_2  and  C_3
REMARK    2  A    between atoms: C_3  and  N_4
REMARK    3  A    between atoms: C_7  and  C_8
REMARK    4  A    between atoms: N_15  and  C_16
REMARK                            x       y       z     vdW  Elec       q    Type
REMARK                         _______ _______ _______ _____ _____    ______ ____
ROOT
ATOM      1  O   UNL     1       6.670   4.751  16.981  0.00  0.00    +0.000 OA
ATOM      2  C   UNL     1       6.690   5.260  18.099  0.00  0.00    +0.000 C 
ATOM      3  N   UNL     1       5.595   5.437  18.933  0.00  0.00    +0.000 N 
ATOM      4  H   UNL     1       5.770   5.884  19.832  0.00  0.00    +0.000 HD
ENDROOT
BRANCH   3   5
ATOM      5  C   UNL     1       4.276   4.977  18.729  0.00  0.00    +0.000 A 
ATOM      6  C   UNL     1       3.284   5.710  18.049  0.00  0.00    +0.000 A 
ATOM      7  C   UNL     1       2.003   5.179  17.849  0.00  0.00    +0.000 A 
ATOM      8  C   UNL     1       1.744   3.919  18.337  0.00  0.00    +0.000 A 
ATOM      9  C   UNL     1       2.702   3.201  19.008  0.00  0.00    +0.000 A 
ATOM     10  C   UNL     1       3.970   3.700  19.223  0.00  0.00    +0.000 A 
ATOM     11  O   UNL     1       2.250   1.980  19.404  0.00  0.00    +0.000 OA
ATOM     12  C   UNL     1       0.912   1.999  18.864  0.00  0.00    +0.000 C 
ATOM     13  O   UNL     1       0.570   3.245  18.223  0.00  0.00    +0.000 OA
ENDBRANCH   3   5
BRANCH   2  14
ATOM     14  C   UNL     1       7.974   5.839  18.641  0.00  0.00    +0.000 C 
BRANCH  14  15
ATOM     15  N   UNL     1       8.072   7.245  18.342  0.00  0.00    +0.000 N 
ATOM     16  N   UNL     1       7.410   7.803  17.322  0.00  0.00    +0.000 NA
ATOM     17  N   UNL     1       7.725   9.087  17.380  0.00  0.00    +0.000 NA
ATOM     18  C   UNL     1       8.572   9.249  18.455  0.00  0.00    +0.000 A 
ATOM     19  N   UNL     1       8.826   8.085  19.086  0.00  0.00    +0.000 NA
BRANCH  18  20
ATOM     20  C   UNL     1       9.100  10.553  18.840  0.00  0.00    +0.000 A 
ATOM     21  C   UNL     1       9.225  11.570  17.880  0.00  0.00    +0.000 A 
ATOM     22  C   UNL     1       9.718  12.829  18.234  0.00  0.00    +0.000 A 
ATOM     23  C   UNL     1      10.091  13.087  19.550  0.00  0.00    +0.000 A 
ATOM     24  C   UNL     1       9.977  12.086  20.512  0.00  0.00    +0.000 A 
ATOM     25  C   UNL     1       9.483  10.824  20.162  0.00  0.00    +0.000 A 
ENDBRANCH  18  20
ENDBRANCH  14  15
ENDBRANCH   2  14
TORSDOF 4
ENDMDL
MODEL 6
REMARK VINA RESULT:      -8.0      4.186      6.538
REMARK  Name = 
REMARK  4 active torsions:
REMARK  status: ('A' for Active; 'I' for Inactive)
REMARK    1  A    between atoms: C_2  and  C_3
REMARK    2  A    between atoms: C_3  and  N_4
REMARK    3  A    between atoms: C_7  and  C_8
REMARK    4  A    between atoms: N_15  and  C_16
REMARK                            x       y       z     vdW  Elec       q    Type
REMARK                         _______ _______ _______ _____ _____    ______ ____
ROOT
ATOM      1  O   UNL     1       4.133   7.165  17.541  0.00  0.00    +0.000 OA
ATOM      2  C   UNL     1       4.999   6.359  17.209  0.00  0.00    +0.000 C 
ATOM      3  N   UNL     1       5.002   5.001  17.498  0.00  0.00    +0.000 N 
ATOM      4  H   UNL     1       5.797   4.461  17.159  0.00  0.00    +0.000 HD
ENDROOT
BRANCH   3   5
ATOM      5  C   UNL     1       3.979   4.253  18.119  0.00  0.00    +0.000 A 
ATOM      6  C   UNL     1       3.203   3.282  17.458  0.00  0.00    +0.000 A 
ATOM      7  C   UNL     1       2.225   2.547  18.143  0.00  0.00    +0.000 A 
ATOM      8  C   UNL     1       2.048   2.804  19.482  0.00  0.00    +0.000 A 
ATOM      9  C   UNL     1       2.793   3.756  20.134  0.00  0.00    +0.000 A 
ATOM     10  C   UNL     1       3.759   4.496  19.484  0.00  0.00    +0.000 A 
ATOM     11  O   UNL     1       2.469   3.854  21.451  0.00  0.00    +0.000 OA
ATOM     12  C   UNL     1       1.465   2.823  21.561  0.00  0.00    +0.000 C 
ATOM     13  O   UNL     1       1.163   2.183  20.304  0.00  0.00    +0.000 OA
ENDBRANCH   3   5
BRANCH   2  14
ATOM     14  C   UNL     1       6.238   6.836  16.491  0.00  0.00    +0.000 C 
BRANCH  14  15
ATOM     15  N   UNL     1       7.168   7.437  17.411  0.00  0.00    +0.000 N 
ATOM     16  N   UNL     1       7.770   6.732  18.376  0.00  0.00    +0.000 NA
ATOM     17  N   UNL     1       8.555   7.605  18.988  0.00  0.00    +0.000 NA
ATOM     18  C   UNL     1       8.393   8.815  18.350  0.00  0.00    +0.000 A 
ATOM     19  N   UNL     1       7.500   8.746  17.341  0.00  0.00    +0.000 NA
BRANCH  18  20
ATOM     20  C   UNL     1       9.133  10.008  18.744  0.00  0.00    +0.000 A 
ATOM     21  C   UNL     1       9.706  10.833  17.764  0.00  0.00    +0.000 A 
ATOM     22  C   UNL     1      10.408  11.987  18.122  0.00  0.00    +0.000 A 
ATOM     23  C   UNL     1      10.545  12.331  19.464  0.00  0.00    +0.000 A 
ATOM     24  C   UNL     1       9.985  11.519  20.449  0.00  0.00    +0.000 A 
ATOM     25  C   UNL     1       9.282  10.363  20.093  0.00  0.00    +0.000 A 
ENDBRANCH  18  20
ENDBRANCH  14  15
ENDBRANCH   2  14
TORSDOF 4
ENDMDL
MODEL 7
REMARK VINA RESULT:      -8.0      4.206      6.552
REMARK  Name = 
REMARK  4 active torsions:
REMARK  status: ('A' for Active; 'I' for Inactive)
REMARK    1  A    between atoms: C_2  and  C_3
REMARK    2  A    between atoms: C_3  and  N_4
REMARK    3  A    between atoms: C_7  and  C_8
REMARK    4  A    between atoms: N_15  and  C_16
REMARK                            x       y       z     vdW  Elec       q    Type
REMARK                         _______ _______ _______ _____ _____    ______ ____
ROOT
ATOM      1  O   UNL     1       4.091   7.060  17.330  0.00  0.00    +0.000 OA
ATOM      2  C   UNL     1       5.044   6.315  17.113  0.00  0.00    +0.000 C 
ATOM      3  N   UNL     1       5.153   4.993  17.522  0.00  0.00    +0.000 N 
ATOM      4  H   UNL     1       6.011   4.503  17.270  0.00  0.00    +0.000 HD
ENDROOT
BRANCH   3   5
ATOM      5  C   UNL     1       4.169   4.206  18.159  0.00  0.00    +0.000 A 
ATOM      6  C   UNL     1       3.586   3.060  17.584  0.00  0.00    +0.000 A 
ATOM      7  C   UNL     1       2.638   2.302  18.285  0.00  0.00    +0.000 A 
ATOM      8  C   UNL     1       2.296   2.711  19.553  0.00  0.00    +0.000 A 
ATOM      9  C   UNL     1       2.852   3.833  20.118  0.00  0.00    +0.000 A 
ATOM     10  C   UNL     1       3.784   4.600  19.450  0.00  0.00    +0.000 A 
ATOM     11  O   UNL     1       2.387   4.064  21.374  0.00  0.00    +0.000 OA
ATOM     12  C   UNL     1       1.506   2.933  21.550  0.00  0.00    +0.000 C 
ATOM     13  O   UNL     1       1.412   2.095  20.380  0.00  0.00    +0.000 OA
ENDBRANCH   3   5
BRANCH   2  14
ATOM     14  C   UNL     1       6.272   6.844  16.415  0.00  0.00    +0.000 C 
BRANCH  14  15
ATOM     15  N   UNL     1       7.179   7.450  17.355  0.00  0.00    +0.000 N 
ATOM     16  N   UNL     1       7.784   6.742  18.316  0.00  0.00    +0.000 NA
ATOM     17  N   UNL     1       8.544   7.621  18.951  0.00  0.00    +0.000 NA
ATOM     18  C   UNL     1       8.365   8.837  18.330  0.00  0.00    +0.000 A 
ATOM     19  N   UNL     1       7.486   8.766  17.309  0.00  0.00    +0.000 NA
BRANCH  18  20
ATOM     20  C   UNL     1       9.076  10.039  18.750  0.00  0.00    +0.000 A 
ATOM     21  C   UNL     1       9.241  10.313  20.117  0.00  0.00    +0.000 A 
ATOM     22  C   UNL     1       9.930  11.454  20.539  0.00  0.00    +0.000 A 
ATOM     23  C   UNL     1      10.464  12.332  19.600  0.00  0.00    +0.000 A 
ATOM     24  C   UNL     1      10.305  12.074  18.239  0.00  0.00    +0.000 A 
ATOM     25  C   UNL     1       9.616  10.934  17.814  0.00  0.00    +0.000 A 
ENDBRANCH  18  20
ENDBRANCH  14  15
ENDBRANCH   2  14
TORSDOF 4
ENDMDL
MODEL 8
REMARK VINA RESULT:      -8.0      3.765      4.698
REMARK  Name = 
REMARK  4 active torsions:
REMARK  status: ('A' for Active; 'I' for Inactive)
REMARK    1  A    between atoms: C_2  and  C_3
REMARK    2  A    between atoms: C_3  and  N_4
REMARK    3  A    between atoms: C_7  and  C_8
REMARK    4  A    between atoms: N_15  and  C_16
REMARK                            x       y       z     vdW  Elec       q    Type
REMARK                         _______ _______ _______ _____ _____    ______ ____
ROOT
ATOM      1  O   UNL     1       1.747   4.177  18.876  0.00  0.00    +0.000 OA
ATOM      2  C   UNL     1       2.903   4.576  19.000  0.00  0.00    +0.000 C 
ATOM      3  N   UNL     1       3.288   5.883  19.262  0.00  0.00    +0.000 N 
ATOM      4  H   UNL     1       4.289   6.062  19.331  0.00  0.00    +0.000 HD
ENDROOT
BRANCH   3   5
ATOM      5  C   UNL     1       2.453   6.984  19.551  0.00  0.00    +0.000 A 
ATOM      6  C   UNL     1       1.782   7.161  20.776  0.00  0.00    +0.000 A 
ATOM      7  C   UNL     1       0.995   8.296  21.013  0.00  0.00    +0.000 A 
ATOM      8  C   UNL     1       0.899   9.233  20.011  0.00  0.00    +0.000 A 
ATOM      9  C   UNL     1       1.543   9.066  18.810  0.00  0.00    +0.000 A 
ATOM     10  C   UNL     1       2.321   7.956  18.548  0.00  0.00    +0.000 A 
ATOM     11  O   UNL     1       1.326  10.103  17.957  0.00  0.00    +0.000 OA
ATOM     12  C   UNL     1       0.507  10.962  18.779  0.00  0.00    +0.000 C 
ATOM     13  O   UNL     1       0.197  10.395  20.069  0.00  0.00    +0.000 OA
ENDBRANCH   3   5
BRANCH   2  14
ATOM     14  C   UNL     1       4.056   3.629  18.778  0.00  0.00    +0.000 C 
BRANCH  14  15
ATOM     15  N   UNL     1       4.942   4.125  17.756  0.00  0.00    +0.000 N 
ATOM     16  N   UNL     1       5.923   4.994  18.026  0.00  0.00    +0.000 NA
ATOM     17  N   UNL     1       6.524   5.191  16.863  0.00  0.00    +0.000 NA
ATOM     18  C   UNL     1       5.873   4.414  15.931  0.00  0.00    +0.000 A 
ATOM     19  N   UNL     1       4.843   3.726  16.468  0.00  0.00    +0.000 NA
BRANCH  18  20
ATOM     20  C   UNL     1       6.289   4.359  14.535  0.00  0.00    +0.000 A 
ATOM     21  C   UNL     1       7.374   5.134  14.096  0.00  0.00    +0.000 A 
ATOM     22  C   UNL     1       7.794   5.085  12.764  0.00  0.00    +0.000 A 
ATOM     23  C   UNL     1       7.138   4.260  11.856  0.00  0.00    +0.000 A 
ATOM     24  C   UNL     1       6.057   3.487  12.276  0.00  0.00    +0.000 A 
ATOM     25  C   UNL     1       5.633   3.534  13.609  0.00  0.00    +0.000 A 
ENDBRANCH  18  20
ENDBRANCH  14  15
ENDBRANCH   2  14
TORSDOF 4
ENDMDL
MODEL 9
REMARK VINA RESULT:      -8.0      4.147      5.386
REMARK  Name = 
REMARK  4 active torsions:
REMARK  status: ('A' for Active; 'I' for Inactive)
REMARK    1  A    between atoms: C_2  and  C_3
REMARK    2  A    between atoms: C_3  and  N_4
REMARK    3  A    between atoms: C_7  and  C_8
REMARK    4  A    between atoms: N_15  and  C_16
REMARK                            x       y       z     vdW  Elec       q    Type
REMARK                         _______ _______ _______ _____ _____    ______ ____
ROOT
ATOM      1  O   UNL     1       0.949   4.868  20.389  0.00  0.00    +0.000 OA
ATOM      2  C   UNL     1       2.147   5.079  20.218  0.00  0.00    +0.000 C 
ATOM      3  N   UNL     1       2.716   6.295  19.865  0.00  0.00    +0.000 N 
ATOM      4  H   UNL     1       3.729   6.313  19.752  0.00  0.00    +0.000 HD
ENDROOT
BRANCH   3   5
ATOM      5  C   UNL     1       2.069   7.544  19.744  0.00  0.00    +0.000 A 
ATOM      6  C   UNL     1       1.997   8.279  18.544  0.00  0.00    +0.000 A 
ATOM      7  C   UNL     1       1.307   9.497  18.483  0.00  0.00    +0.000 A 
ATOM      8  C   UNL     1       0.702   9.953  19.631  0.00  0.00    +0.000 A 
ATOM      9  C   UNL     1       0.775   9.248  20.807  0.00  0.00    +0.000 A 
ATOM     10  C   UNL     1       1.450   8.048  20.898  0.00  0.00    +0.000 A 
ATOM     11  O   UNL     1       0.110   9.864  21.821  0.00  0.00    +0.000 OA
ATOM     12  C   UNL     1      -0.426  11.015  21.134  0.00  0.00    +0.000 C 
ATOM     13  O   UNL     1      -0.018  11.099  19.753  0.00  0.00    +0.000 OA
ENDBRANCH   3   5
BRANCH   2  14
ATOM     14  C   UNL     1       3.135   3.942  20.303  0.00  0.00    +0.000 C 
BRANCH  14  15
ATOM     15  N   UNL     1       4.242   4.152  19.407  0.00  0.00    +0.000 N 
ATOM     16  N   UNL     1       5.491   4.335  19.851  0.00  0.00    +0.000 NA
ATOM     17  N   UNL     1       6.220   4.466  18.754  0.00  0.00    +0.000 NA
ATOM     18  C   UNL     1       5.366   4.348  17.681  0.00  0.00    +0.000 A 
ATOM     19  N   UNL     1       4.086   4.159  18.064  0.00  0.00    +0.000 NA
BRANCH  18  20
ATOM     20  C   UNL     1       5.834   4.413  16.301  0.00  0.00    +0.000 A 
ATOM     21  C   UNL     1       7.091   4.968  16.013  0.00  0.00    +0.000 A 
ATOM     22  C   UNL     1       7.561   5.027  14.698  0.00  0.00    +0.000 A 
ATOM     23  C   UNL     1       6.782   4.532  13.657  0.00  0.00    +0.000 A 
ATOM     24  C   UNL     1       5.530   3.982  13.927  0.00  0.00    +0.000 A 
ATOM     25  C   UNL     1       5.057   3.921  15.242  0.00  0.00    +0.000 A 
ENDBRANCH  18  20
ENDBRANCH  14  15
ENDBRANCH   2  14
TORSDOF 4
ENDMDL
