MODEL 1
REMARK VINA RESULT:      -9.0      0.000      0.000
REMARK  Name = 
REMARK  3 active torsions:
REMARK  status: ('A' for Active; 'I' for Inactive)
REMARK    1  A    between atoms: C_2  and  C_14
REMARK    2  A    between atoms: N_3  and  C_4
REMARK    3  A    between atoms: C_24  and  C_26
REMARK                            x       y       z     vdW  Elec       q    Type
REMARK                         _______ _______ _______ _____ _____    ______ ____
ROOT
ATOM      1  C   UNL     1       4.400   5.438  19.377  0.00  0.00    +0.000 C 
ATOM      2  C   UNL     1       3.629   4.738  20.512  0.00  0.00    +0.000 C 
ATOM      3  C   UNL     1       2.594   3.833  19.902  0.00  0.00    +0.000 A 
ATOM      4  C   UNL     1       1.288   3.781  20.390  0.00  0.00    +0.000 A 
ATOM      5  C   UNL     1       0.315   3.096  19.667  0.00  0.00    +0.000 A 
ATOM      6  C   UNL     1       0.653   2.449  18.478  0.00  0.00    +0.000 A 
ATOM      7  C   UNL     1       1.976   2.434  18.031  0.00  0.00    +0.000 A 
ATOM      8  C   UNL     1       2.960   3.122  18.745  0.00  0.00    +0.000 A 
ATOM      9  C   UNL     1       4.404   3.146  18.310  0.00  0.00    +0.000 C 
ATOM     10  N   UNL     1       4.990   4.487  18.394  0.00  0.00    +0.000 N 
ATOM     11  C   UNL     1       6.187   4.725  17.696  0.00  0.00    +0.000 C 
ATOM     12  O   UNL     1       6.702   3.816  17.040  0.00  0.00    +0.000 OA
ENDROOT
BRANCH  11  13
ATOM     13  C   UNL     1       6.803   6.044  17.762  0.00  0.00    +0.000 A 
ATOM     14  C   UNL     1       7.823   6.530  18.561  0.00  0.00    +0.000 A 
ATOM     15  C   UNL     1       8.015   7.887  18.208  0.00  0.00    +0.000 A 
ATOM     16  C   UNL     1       7.134   8.145  17.185  0.00  0.00    +0.000 A 
ATOM     17  O   UNL     1       6.419   7.035  16.904  0.00  0.00    +0.000 OA
ENDBRANCH  11  13
BRANCH   1  19
ATOM     18  O   UNL     1       3.300   6.449  17.458  0.00  0.00    +0.000 OA
ATOM     19  C   UNL     1       3.480   6.488  18.678  0.00  0.00    +0.000 C 
ATOM     20  N   UNL     1       2.943   7.426  19.546  0.00  0.00    +0.000 N 
ATOM     21  H   UNL     1       3.319   7.388  20.482  0.00  0.00    +0.000 HD
BRANCH  20  22
ATOM     22  C   UNL     1       1.912   8.369  19.315  0.00  0.00    +0.000 A 
ATOM     23  C   UNL     1       1.561   8.740  18.012  0.00  0.00    +0.000 A 
ATOM     24  C   UNL     1       0.506   9.619  17.780  0.00  0.00    +0.000 A 
ATOM     25  C   UNL     1      -0.217  10.139  18.848  0.00  0.00    +0.000 A 
ATOM     26  C   UNL     1       0.102   9.789  20.166  0.00  0.00    +0.000 A 
ATOM     27  C   UNL     1      -0.649  10.326  21.226  0.00  0.00    +0.000 A 
ATOM     28  C   UNL     1      -0.354  10.011  22.550  0.00  0.00    +0.000 A 
ATOM     29  C   UNL     1       0.705   9.161  22.832  0.00  0.00    +0.000 A 
ATOM     30  C   UNL     1       1.461   8.618  21.788  0.00  0.00    +0.000 A 
ATOM     31  C   UNL     1       1.180   8.899  20.426  0.00  0.00    +0.000 A 
ENDBRANCH  20  22
ENDBRANCH   1  19
TORSDOF 3
ENDMDL
MODEL 2
REMARK VINA RESULT:      -8.9      1.557      4.723
REMARK  Name = 
REMARK  3 active torsions:
REMARK  status: ('A' for Active; 'I' for Inactive)
REMARK    1  A    between atoms: C_2  and  C_14
REMARK    2  A    between atoms: N_3  and  C_4
REMARK    3  A    between atoms: C_24  and  C_26
REMARK                            x       y       z     vdW  Elec       q    Type
REMARK                         _______ _______ _______ _____ _____    ______ ____
ROOT
ATOM      1  C   UNL     1       3.959   5.089  17.975  0.00  0.00    +0.000 C 
ATOM      2  C   UNL     1       4.764   5.615  16.772  0.00  0.00    +0.000 C 
ATOM      3  C   UNL     1       6.062   6.183  17.274  0.00  0.00    +0.000 A 
ATOM      4  C   UNL     1       6.557   7.402  16.810  0.00  0.00    +0.000 A 
ATOM      5  C   UNL     1       7.643   7.989  17.453  0.00  0.00    +0.000 A 
ATOM      6  C   UNL     1       8.245   7.347  18.537  0.00  0.00    +0.000 A 
ATOM      7  C   UNL     1       7.801   6.089  18.950  0.00  0.00    +0.000 A 
ATOM      8  C   UNL     1       6.709   5.494  18.317  0.00  0.00    +0.000 A 
ATOM      9  C   UNL     1       6.180   4.140  18.722  0.00  0.00    +0.000 C 
ATOM     10  N   UNL     1       4.718   4.114  18.808  0.00  0.00    +0.000 N 
ATOM     11  C   UNL     1       4.120   3.051  19.508  0.00  0.00    +0.000 C 
ATOM     12  O   UNL     1       4.831   2.184  20.024  0.00  0.00    +0.000 OA
ENDROOT
BRANCH  11  13
ATOM     13  C   UNL     1       2.668   2.987  19.609  0.00  0.00    +0.000 A 
ATOM     14  C   UNL     1       1.802   3.476  20.573  0.00  0.00    +0.000 A 
ATOM     15  C   UNL     1       0.493   3.123  20.170  0.00  0.00    +0.000 A 
ATOM     16  C   UNL     1       0.623   2.477  18.964  0.00  0.00    +0.000 A 
ATOM     17  O   UNL     1       1.927   2.411  18.617  0.00  0.00    +0.000 OA
ENDBRANCH  11  13
BRANCH   1  19
ATOM     18  O   UNL     1       3.762   6.403  20.012  0.00  0.00    +0.000 OA
ATOM     19  C   UNL     1       3.435   6.287  18.829  0.00  0.00    +0.000 C 
ATOM     20  N   UNL     1       2.588   7.138  18.136  0.00  0.00    +0.000 N 
ATOM     21  H   UNL     1       2.320   6.802  17.223  0.00  0.00    +0.000 HD
BRANCH  20  22
ATOM     22  C   UNL     1       2.112   8.419  18.506  0.00  0.00    +0.000 A 
ATOM     23  C   UNL     1       2.334   9.530  17.685  0.00  0.00    +0.000 A 
ATOM     24  C   UNL     1       1.813  10.778  18.016  0.00  0.00    +0.000 A 
ATOM     25  C   UNL     1       1.057  10.934  19.172  0.00  0.00    +0.000 A 
ATOM     26  C   UNL     1       0.809   9.846  20.017  0.00  0.00    +0.000 A 
ATOM     27  C   UNL     1       0.037  10.032  21.178  0.00  0.00    +0.000 A 
ATOM     28  C   UNL     1      -0.221   8.975  22.048  0.00  0.00    +0.000 A 
ATOM     29  C   UNL     1       0.300   7.720  21.775  0.00  0.00    +0.000 A 
ATOM     30  C   UNL     1       1.069   7.519  20.624  0.00  0.00    +0.000 A 
ATOM     31  C   UNL     1       1.339   8.564  19.702  0.00  0.00    +0.000 A 
ENDBRANCH  20  22
ENDBRANCH   1  19
TORSDOF 3
ENDMDL
MODEL 3
REMARK VINA RESULT:      -8.7      7.740     11.935
REMARK  Name = 
REMARK  3 active torsions:
REMARK  status: ('A' for Active; 'I' for Inactive)
REMARK    1  A    between atoms: C_2  and  C_14
REMARK    2  A    between atoms: N_3  and  C_4
REMARK    3  A    between atoms: C_24  and  C_26
REMARK                            x       y       z     vdW  Elec       q    Type
REMARK                         _______ _______ _______ _____ _____    ______ ____
ROOT
ATOM      1  C   UNL     1      -5.915  13.801  21.217  0.00  0.00    +0.000 C 
ATOM      2  C   UNL     1      -6.544  13.428  19.862  0.00  0.00    +0.000 C 
ATOM      3  C   UNL     1      -7.014  12.001  19.928  0.00  0.00    +0.000 A 
ATOM      4  C   UNL     1      -6.778  11.103  18.887  0.00  0.00    +0.000 A 
ATOM      5  C   UNL     1      -7.038   9.749  19.079  0.00  0.00    +0.000 A 
ATOM      6  C   UNL     1      -7.555   9.302  20.296  0.00  0.00    +0.000 A 
ATOM      7  C   UNL     1      -7.867  10.211  21.309  0.00  0.00    +0.000 A 
ATOM      8  C   UNL     1      -7.605  11.570  21.130  0.00  0.00    +0.000 A 
ATOM      9  C   UNL     1      -7.915  12.598  22.190  0.00  0.00    +0.000 C 
ATOM     10  N   UNL     1      -6.823  13.558  22.373  0.00  0.00    +0.000 N 
ATOM     11  C   UNL     1      -6.820  14.332  23.548  0.00  0.00    +0.000 C 
ATOM     12  O   UNL     1      -7.719  14.183  24.378  0.00  0.00    +0.000 OA
ENDROOT
BRANCH  11  13
ATOM     13  C   UNL     1      -5.754  15.302  23.762  0.00  0.00    +0.000 A 
ATOM     14  C   UNL     1      -5.712  16.668  23.542  0.00  0.00    +0.000 A 
ATOM     15  C   UNL     1      -4.422  17.109  23.919  0.00  0.00    +0.000 A 
ATOM     16  C   UNL     1      -3.759  15.999  24.388  0.00  0.00    +0.000 A 
ATOM     17  O   UNL     1      -4.563  14.917  24.311  0.00  0.00    +0.000 OA
ENDBRANCH  11  13
BRANCH   1  19
ATOM     18  O   UNL     1      -4.357  12.331  22.369  0.00  0.00    +0.000 OA
ATOM     19  C   UNL     1      -4.552  13.060  21.393  0.00  0.00    +0.000 C 
ATOM     20  N   UNL     1      -3.637  13.327  20.386  0.00  0.00    +0.000 N 
ATOM     21  H   UNL     1      -3.921  14.060  19.753  0.00  0.00    +0.000 HD
BRANCH  20  22
ATOM     22  C   UNL     1      -2.412  12.678  20.098  0.00  0.00    +0.000 A 
ATOM     23  C   UNL     1      -1.279  12.905  20.887  0.00  0.00    +0.000 A 
ATOM     24  C   UNL     1      -0.091  12.221  20.644  0.00  0.00    +0.000 A 
ATOM     25  C   UNL     1      -0.018  11.295  19.609  0.00  0.00    +0.000 A 
ATOM     26  C   UNL     1      -1.132  11.038  18.799  0.00  0.00    +0.000 A 
ATOM     27  C   UNL     1      -1.031  10.093  17.763  0.00  0.00    +0.000 A 
ATOM     28  C   UNL     1      -2.113   9.820  16.930  0.00  0.00    +0.000 A 
ATOM     29  C   UNL     1      -3.309  10.497  17.116  0.00  0.00    +0.000 A 
ATOM     30  C   UNL     1      -3.425  11.438  18.144  0.00  0.00    +0.000 A 
ATOM     31  C   UNL     1      -2.352  11.732  19.025  0.00  0.00    +0.000 A 
ENDBRANCH  20  22
ENDBRANCH   1  19
TORSDOF 3
ENDMDL
MODEL 4
REMARK VINA RESULT:      -8.0      7.544     11.252
REMARK  Name = 
REMARK  3 active torsions:
REMARK  status: ('A' for Active; 'I' for Inactive)
REMARK    1  A    between atoms: C_2  and  C_14
REMARK    2  A    between atoms: N_3  and  C_4
REMARK    3  A    between atoms: C_24  and  C_26
REMARK                            x       y       z     vdW  Elec       q    Type
REMARK                         _______ _______ _______ _____ _____    ______ ____
ROOT
ATOM      1  C   UNL     1      -4.737  14.424  21.746  0.00  0.00    +0.000 C 
ATOM      2  C   UNL     1      -5.926  14.917  20.900  0.00  0.00    +0.000 C 
ATOM      3  C   UNL     1      -6.511  13.742  20.165  0.00  0.00    +0.000 A 
ATOM      4  C   UNL     1      -6.862  13.823  18.817  0.00  0.00    +0.000 A 
ATOM      5  C   UNL     1      -7.195  12.661  18.127  0.00  0.00    +0.000 A 
ATOM      6  C   UNL     1      -7.202  11.432  18.788  0.00  0.00    +0.000 A 
ATOM      7  C   UNL     1      -6.929  11.362  20.156  0.00  0.00    +0.000 A 
ATOM      8  C   UNL     1      -6.588  12.520  20.857  0.00  0.00    +0.000 A 
ATOM      9  C   UNL     1      -6.277  12.507  22.334  0.00  0.00    +0.000 C 
ATOM     10  N   UNL     1      -5.093  13.304  22.663  0.00  0.00    +0.000 N 
ATOM     11  C   UNL     1      -4.487  13.094  23.914  0.00  0.00    +0.000 C 
ATOM     12  O   UNL     1      -4.960  12.258  24.688  0.00  0.00    +0.000 OA
ENDROOT
BRANCH  11  13
ATOM     13  C   UNL     1      -3.311  13.873  24.280  0.00  0.00    +0.000 A 
ATOM     14  C   UNL     1      -3.142  14.876  25.219  0.00  0.00    +0.000 A 
ATOM     15  C   UNL     1      -1.791  15.288  25.146  0.00  0.00    +0.000 A 
ATOM     16  C   UNL     1      -1.196  14.488  24.199  0.00  0.00    +0.000 A 
ATOM     17  O   UNL     1      -2.103  13.626  23.691  0.00  0.00    +0.000 OA
ENDBRANCH  11  13
BRANCH   1  19
ATOM     18  O   UNL     1      -2.769  14.917  20.406  0.00  0.00    +0.000 OA
ATOM     19  C   UNL     1      -3.542  14.047  20.816  0.00  0.00    +0.000 C 
ATOM     20  N   UNL     1      -3.477  12.696  20.508  0.00  0.00    +0.000 N 
ATOM     21  H   UNL     1      -4.277  12.164  20.814  0.00  0.00    +0.000 HD
BRANCH  20  22
ATOM     22  C   UNL     1      -2.429  11.971  19.892  0.00  0.00    +0.000 A 
ATOM     23  C   UNL     1      -1.203  11.793  20.543  0.00  0.00    +0.000 A 
ATOM     24  C   UNL     1      -0.193  11.028  19.967  0.00  0.00    +0.000 A 
ATOM     25  C   UNL     1      -0.395  10.423  18.731  0.00  0.00    +0.000 A 
ATOM     26  C   UNL     1      -1.609  10.574  18.050  0.00  0.00    +0.000 A 
ATOM     27  C   UNL     1      -1.787   9.947  16.804  0.00  0.00    +0.000 A 
ATOM     28  C   UNL     1      -2.977  10.085  16.092  0.00  0.00    +0.000 A 
ATOM     29  C   UNL     1      -4.001  10.860  16.614  0.00  0.00    +0.000 A 
ATOM     30  C   UNL     1      -3.839  11.489  17.853  0.00  0.00    +0.000 A 
ATOM     31  C   UNL     1      -2.650  11.358  18.617  0.00  0.00    +0.000 A 
ENDBRANCH  20  22
ENDBRANCH   1  19
TORSDOF 3
ENDMDL
MODEL 5
REMARK VINA RESULT:      -8.0      4.828      8.499
REMARK  Name = 
REMARK  3 active torsions:
REMARK  status: ('A' for Active; 'I' for Inactive)
REMARK    1  A    between atoms: C_2  and  C_14
REMARK    2  A    between atoms: N_3  and  C_4
REMARK    3  A    between atoms: C_24  and  C_26
REMARK                            x       y       z     vdW  Elec       q    Type
REMARK                         _______ _______ _______ _____ _____    ______ ____
ROOT
ATOM      1  C   UNL     1       0.072  11.988  20.978  0.00  0.00    +0.000 C 
ATOM      2  C   UNL     1       0.213  13.184  21.938  0.00  0.00    +0.000 C 
ATOM      3  C   UNL     1      -1.111  13.414  22.614  0.00  0.00    +0.000 A 
ATOM      4  C   UNL     1      -1.645  14.695  22.761  0.00  0.00    +0.000 A 
ATOM      5  C   UNL     1      -2.960  14.842  23.195  0.00  0.00    +0.000 A 
ATOM      6  C   UNL     1      -3.724  13.716  23.504  0.00  0.00    +0.000 A 
ATOM      7  C   UNL     1      -3.164  12.438  23.433  0.00  0.00    +0.000 A 
ATOM      8  C   UNL     1      -1.849  12.278  22.994  0.00  0.00    +0.000 A 
ATOM      9  C   UNL     1      -1.191  10.924  22.892  0.00  0.00    +0.000 C 
ATOM     10  N   UNL     1      -0.444  10.758  21.642  0.00  0.00    +0.000 N 
ATOM     11  C   UNL     1      -0.092   9.453  21.256  0.00  0.00    +0.000 C 
ATOM     12  O   UNL     1      -0.417   8.498  21.967  0.00  0.00    +0.000 OA
ENDROOT
BRANCH  11  13
ATOM     13  C   UNL     1       0.657   9.249  20.023  0.00  0.00    +0.000 A 
ATOM     14  C   UNL     1       1.775   8.478  19.757  0.00  0.00    +0.000 A 
ATOM     15  C   UNL     1       2.086   8.657  18.388  0.00  0.00    +0.000 A 
ATOM     16  C   UNL     1       1.118   9.493  17.882  0.00  0.00    +0.000 A 
ATOM     17  O   UNL     1       0.250   9.834  18.858  0.00  0.00    +0.000 OA
ENDBRANCH  11  13
BRANCH   1  19
ATOM     18  O   UNL     1      -0.477  13.334  19.029  0.00  0.00    +0.000 OA
ATOM     19  C   UNL     1      -0.806  12.390  19.752  0.00  0.00    +0.000 C 
ATOM     20  N   UNL     1      -1.945  11.615  19.602  0.00  0.00    +0.000 N 
ATOM     21  H   UNL     1      -2.123  10.987  20.371  0.00  0.00    +0.000 HD
BRANCH  20  22
ATOM     22  C   UNL     1      -2.838  11.542  18.505  0.00  0.00    +0.000 A 
ATOM     23  C   UNL     1      -2.407  11.065  17.262  0.00  0.00    +0.000 A 
ATOM     24  C   UNL     1      -3.297  10.934  16.200  0.00  0.00    +0.000 A 
ATOM     25  C   UNL     1      -4.635  11.275  16.364  0.00  0.00    +0.000 A 
ATOM     26  C   UNL     1      -5.105  11.753  17.594  0.00  0.00    +0.000 A 
ATOM     27  C   UNL     1      -6.464  12.085  17.733  0.00  0.00    +0.000 A 
ATOM     28  C   UNL     1      -6.966  12.575  18.937  0.00  0.00    +0.000 A 
ATOM     29  C   UNL     1      -6.112  12.748  20.015  0.00  0.00    +0.000 A 
ATOM     30  C   UNL     1      -4.757  12.420  19.892  0.00  0.00    +0.000 A 
ATOM     31  C   UNL     1      -4.211  11.902  18.689  0.00  0.00    +0.000 A 
ENDBRANCH  20  22
ENDBRANCH   1  19
TORSDOF 3
ENDMDL
MODEL 6
REMARK VINA RESULT:      -7.9      5.221      8.709
REMARK  Name = 
REMARK  3 active torsions:
REMARK  status: ('A' for Active; 'I' for Inactive)
REMARK    1  A    between atoms: C_2  and  C_14
REMARK    2  A    between atoms: N_3  and  C_4
REMARK    3  A    between atoms: C_24  and  C_26
REMARK                            x       y       z     vdW  Elec       q    Type
REMARK                         _______ _______ _______ _____ _____    ______ ____
ROOT
ATOM      1  C   UNL     1      -0.598  11.619  20.339  0.00  0.00    +0.000 C 
ATOM      2  C   UNL     1      -0.811  10.840  19.027  0.00  0.00    +0.000 C 
ATOM      3  C   UNL     1       0.252   9.781  18.920  0.00  0.00    +0.000 A 
ATOM      4  C   UNL     1       0.938   9.551  17.727  0.00  0.00    +0.000 A 
ATOM      5  C   UNL     1       2.053   8.717  17.730  0.00  0.00    +0.000 A 
ATOM      6  C   UNL     1       2.461   8.099  18.913  0.00  0.00    +0.000 A 
ATOM      7  C   UNL     1       1.727   8.266  20.089  0.00  0.00    +0.000 A 
ATOM      8  C   UNL     1       0.611   9.105  20.099  0.00  0.00    +0.000 A 
ATOM      9  C   UNL     1      -0.218   9.328  21.340  0.00  0.00    +0.000 C 
ATOM     10  N   UNL     1      -0.551  10.741  21.542  0.00  0.00    +0.000 N 
ATOM     11  C   UNL     1      -0.998  11.135  22.816  0.00  0.00    +0.000 C 
ATOM     12  O   UNL     1      -1.094  10.295  23.715  0.00  0.00    +0.000 OA
ENDROOT
BRANCH  11  13
ATOM     13  C   UNL     1      -1.345  12.530  23.053  0.00  0.00    +0.000 A 
ATOM     14  C   UNL     1      -2.571  13.173  23.055  0.00  0.00    +0.000 A 
ATOM     15  C   UNL     1      -2.323  14.536  23.337  0.00  0.00    +0.000 A 
ATOM     16  C   UNL     1      -0.967  14.647  23.535  0.00  0.00    +0.000 A 
ATOM     17  O   UNL     1      -0.381  13.440  23.382  0.00  0.00    +0.000 OA
ENDBRANCH  11  13
BRANCH   1  19
ATOM     18  O   UNL     1       1.650  12.306  20.963  0.00  0.00    +0.000 OA
ATOM     19  C   UNL     1       0.680  12.509  20.228  0.00  0.00    +0.000 C 
ATOM     20  N   UNL     1       0.583  13.508  19.272  0.00  0.00    +0.000 N 
ATOM     21  H   UNL     1      -0.338  13.612  18.873  0.00  0.00    +0.000 HD
BRANCH  20  22
ATOM     22  C   UNL     1       1.600  14.342  18.747  0.00  0.00    +0.000 A 
ATOM     23  C   UNL     1       2.904  13.863  18.580  0.00  0.00    +0.000 A 
ATOM     24  C   UNL     1       3.890  14.661  18.006  0.00  0.00    +0.000 A 
ATOM     25  C   UNL     1       3.587  15.951  17.586  0.00  0.00    +0.000 A 
ATOM     26  C   UNL     1       2.292  16.466  17.732  0.00  0.00    +0.000 A 
ATOM     27  C   UNL     1       2.013  17.772  17.294  0.00  0.00    +0.000 A 
ATOM     28  C   UNL     1       0.740  18.322  17.434  0.00  0.00    +0.000 A 
ATOM     29  C   UNL     1      -0.267  17.574  18.025  0.00  0.00    +0.000 A 
ATOM     30  C   UNL     1      -0.004  16.273  18.465  0.00  0.00    +0.000 A 
ATOM     31  C   UNL     1       1.273  15.670  18.323  0.00  0.00    +0.000 A 
ENDBRANCH  20  22
ENDBRANCH   1  19
TORSDOF 3
ENDMDL
MODEL 7
REMARK VINA RESULT:      -7.8      6.604     11.345
REMARK  Name = 
REMARK  3 active torsions:
REMARK  status: ('A' for Active; 'I' for Inactive)
REMARK    1  A    between atoms: C_2  and  C_14
REMARK    2  A    between atoms: N_3  and  C_4
REMARK    3  A    between atoms: C_24  and  C_26
REMARK                            x       y       z     vdW  Elec       q    Type
REMARK                         _______ _______ _______ _____ _____    ______ ____
ROOT
ATOM      1  C   UNL     1      -3.924  14.073  21.843  0.00  0.00    +0.000 C 
ATOM      2  C   UNL     1      -4.219  13.920  20.338  0.00  0.00    +0.000 C 
ATOM      3  C   UNL     1      -5.335  12.927  20.167  0.00  0.00    +0.000 A 
ATOM      4  C   UNL     1      -5.282  11.926  19.197  0.00  0.00    +0.000 A 
ATOM      5  C   UNL     1      -6.229  10.905  19.215  0.00  0.00    +0.000 A 
ATOM      6  C   UNL     1      -7.235  10.901  20.182  0.00  0.00    +0.000 A 
ATOM      7  C   UNL     1      -7.335  11.946  21.104  0.00  0.00    +0.000 A 
ATOM      8  C   UNL     1      -6.388  12.971  21.099  0.00  0.00    +0.000 A 
ATOM      9  C   UNL     1      -6.441  14.123  22.073  0.00  0.00    +0.000 C 
ATOM     10  N   UNL     1      -5.128  14.432  22.644  0.00  0.00    +0.000 N 
ATOM     11  C   UNL     1      -5.087  15.221  23.807  0.00  0.00    +0.000 C 
ATOM     12  O   UNL     1      -6.140  15.623  24.309  0.00  0.00    +0.000 OA
ENDROOT
BRANCH  11  13
ATOM     13  C   UNL     1      -3.798  15.555  24.400  0.00  0.00    +0.000 A 
ATOM     14  C   UNL     1      -3.029  14.886  25.337  0.00  0.00    +0.000 A 
ATOM     15  C   UNL     1      -1.871  15.668  25.556  0.00  0.00    +0.000 A 
ATOM     16  C   UNL     1      -1.973  16.749  24.713  0.00  0.00    +0.000 A 
ATOM     17  O   UNL     1      -3.120  16.673  24.005  0.00  0.00    +0.000 OA
ENDBRANCH  11  13
BRANCH   1  19
ATOM     18  O   UNL     1      -3.822  12.055  23.195  0.00  0.00    +0.000 OA
ATOM     19  C   UNL     1      -3.238  12.779  22.384  0.00  0.00    +0.000 C 
ATOM     20  N   UNL     1      -1.961  12.573  21.887  0.00  0.00    +0.000 N 
ATOM     21  H   UNL     1      -1.596  13.345  21.350  0.00  0.00    +0.000 HD
BRANCH  20  22
ATOM     22  C   UNL     1      -1.144  11.420  21.975  0.00  0.00    +0.000 A 
ATOM     23  C   UNL     1      -1.009  10.730  23.185  0.00  0.00    +0.000 A 
ATOM     24  C   UNL     1      -0.256   9.561  23.260  0.00  0.00    +0.000 A 
ATOM     25  C   UNL     1       0.370   9.060  22.124  0.00  0.00    +0.000 A 
ATOM     26  C   UNL     1       0.255   9.719  20.894  0.00  0.00    +0.000 A 
ATOM     27  C   UNL     1       0.895   9.187  19.761  0.00  0.00    +0.000 A 
ATOM     28  C   UNL     1       0.812   9.822  18.523  0.00  0.00    +0.000 A 
ATOM     29  C   UNL     1       0.097  11.003  18.406  0.00  0.00    +0.000 A 
ATOM     30  C   UNL     1      -0.546  11.544  19.524  0.00  0.00    +0.000 A 
ATOM     31  C   UNL     1      -0.502  10.919  20.797  0.00  0.00    +0.000 A 
ENDBRANCH  20  22
ENDBRANCH   1  19
TORSDOF 3
ENDMDL
MODEL 8
REMARK VINA RESULT:      -7.8      4.066      7.883
REMARK  Name = 
REMARK  3 active torsions:
REMARK  status: ('A' for Active; 'I' for Inactive)
REMARK    1  A    between atoms: C_2  and  C_14
REMARK    2  A    between atoms: N_3  and  C_4
REMARK    3  A    between atoms: C_24  and  C_26
REMARK                            x       y       z     vdW  Elec       q    Type
REMARK                         _______ _______ _______ _____ _____    ______ ____
ROOT
ATOM      1  C   UNL     1       0.718  11.562  20.550  0.00  0.00    +0.000 C 
ATOM      2  C   UNL     1       0.876  12.793  21.462  0.00  0.00    +0.000 C 
ATOM      3  C   UNL     1      -0.437  13.053  22.148  0.00  0.00    +0.000 A 
ATOM      4  C   UNL     1      -0.966  14.339  22.255  0.00  0.00    +0.000 A 
ATOM      5  C   UNL     1      -2.274  14.506  22.703  0.00  0.00    +0.000 A 
ATOM      6  C   UNL     1      -3.036  13.394  23.065  0.00  0.00    +0.000 A 
ATOM      7  C   UNL     1      -2.480  12.114  23.035  0.00  0.00    +0.000 A 
ATOM      8  C   UNL     1      -1.171  11.934  22.582  0.00  0.00    +0.000 A 
ATOM      9  C   UNL     1      -0.518  10.575  22.521  0.00  0.00    +0.000 C 
ATOM     10  N   UNL     1       0.209  10.360  21.268  0.00  0.00    +0.000 N 
ATOM     11  C   UNL     1       0.553   9.040  20.926  0.00  0.00    +0.000 C 
ATOM     12  O   UNL     1       0.237   8.114  21.677  0.00  0.00    +0.000 OA
ENDROOT
BRANCH  11  13
ATOM     13  C   UNL     1       1.283   8.788  19.690  0.00  0.00    +0.000 A 
ATOM     14  C   UNL     1       1.268   9.452  18.476  0.00  0.00    +0.000 A 
ATOM     15  C   UNL     1       2.168   8.772  17.621  0.00  0.00    +0.000 A 
ATOM     16  C   UNL     1       2.716   7.758  18.371  0.00  0.00    +0.000 A 
ATOM     17  O   UNL     1       2.199   7.777  19.618  0.00  0.00    +0.000 OA
ENDBRANCH  11  13
BRANCH   1  19
ATOM     18  O   UNL     1       0.194  12.762  18.500  0.00  0.00    +0.000 OA
ATOM     19  C   UNL     1      -0.178  11.921  19.323  0.00  0.00    +0.000 C 
ATOM     20  N   UNL     1      -1.381  11.233  19.289  0.00  0.00    +0.000 N 
ATOM     21  H   UNL     1      -1.575  10.697  20.122  0.00  0.00    +0.000 HD
BRANCH  20  22
ATOM     22  C   UNL     1      -2.323  11.133  18.237  0.00  0.00    +0.000 A 
ATOM     23  C   UNL     1      -2.008  10.451  17.057  0.00  0.00    +0.000 A 
ATOM     24  C   UNL     1      -2.954  10.298  16.047  0.00  0.00    +0.000 A 
ATOM     25  C   UNL     1      -4.233  10.822  16.203  0.00  0.00    +0.000 A 
ATOM     26  C   UNL     1      -4.587  11.507  17.371  0.00  0.00    +0.000 A 
ATOM     27  C   UNL     1      -5.889  12.022  17.504  0.00  0.00    +0.000 A 
ATOM     28  C   UNL     1      -6.274  12.720  18.646  0.00  0.00    +0.000 A 
ATOM     29  C   UNL     1      -5.358  12.921  19.667  0.00  0.00    +0.000 A 
ATOM     30  C   UNL     1      -4.060  12.414  19.550  0.00  0.00    +0.000 A 
ATOM     31  C   UNL     1      -3.634  11.682  18.411  0.00  0.00    +0.000 A 
ENDBRANCH  20  22
ENDBRANCH   1  19
TORSDOF 3
ENDMDL
MODEL 9
REMARK VINA RESULT:      -7.8      1.615      5.067
REMARK  Name = 
REMARK  3 active torsions:
REMARK  status: ('A' for Active; 'I' for Inactive)
REMARK    1  A    between atoms: C_2  and  C_14
REMARK    2  A    between atoms: N_3  and  C_4
REMARK    3  A    between atoms: C_24  and  C_26
REMARK                            x       y       z     vdW  Elec       q    Type
REMARK                         _______ _______ _______ _____ _____    ______ ____
ROOT
ATOM      1  C   UNL     1       3.794   5.235  17.948  0.00  0.00    +0.000 C 
ATOM      2  C   UNL     1       4.464   6.062  16.834  0.00  0.00    +0.000 C 
ATOM      3  C   UNL     1       5.843   6.453  17.291  0.00  0.00    +0.000 A 
ATOM      4  C   UNL     1       6.334   7.746  17.113  0.00  0.00    +0.000 A 
ATOM      5  C   UNL     1       7.521   8.119  17.737  0.00  0.00    +0.000 A 
ATOM      6  C   UNL     1       8.223   7.196  18.513  0.00  0.00    +0.000 A 
ATOM      7  C   UNL     1       7.773   5.878  18.626  0.00  0.00    +0.000 A 
ATOM      8  C   UNL     1       6.581   5.495  18.009  0.00  0.00    +0.000 A 
ATOM      9  C   UNL     1       6.042   4.088  18.100  0.00  0.00    +0.000 C 
ATOM     10  N   UNL     1       4.603   4.058  18.373  0.00  0.00    +0.000 N 
ATOM     11  C   UNL     1       4.047   2.851  18.833  0.00  0.00    +0.000 C 
ATOM     12  O   UNL     1       4.774   1.867  18.993  0.00  0.00    +0.000 OA
ENDROOT
BRANCH  11  13
ATOM     13  C   UNL     1       2.618   2.781  19.109  0.00  0.00    +0.000 A 
ATOM     14  C   UNL     1       1.564   2.332  18.332  0.00  0.00    +0.000 A 
ATOM     15  C   UNL     1       0.385   2.500  19.096  0.00  0.00    +0.000 A 
ATOM     16  C   UNL     1       0.785   3.000  20.312  0.00  0.00    +0.000 A 
ATOM     17  O   UNL     1       2.126   3.153  20.328  0.00  0.00    +0.000 OA
ENDBRANCH  11  13
BRANCH   1  19
ATOM     18  O   UNL     1       4.236   6.294  20.092  0.00  0.00    +0.000 OA
ATOM     19  C   UNL     1       3.442   6.157  19.157  0.00  0.00    +0.000 C 
ATOM     20  N   UNL     1       2.192   6.749  19.063  0.00  0.00    +0.000 N 
ATOM     21  H   UNL     1       1.627   6.406  18.301  0.00  0.00    +0.000 HD
BRANCH  20  22
ATOM     22  C   UNL     1       1.640   7.796  19.840  0.00  0.00    +0.000 A 
ATOM     23  C   UNL     1       1.127   7.545  21.118  0.00  0.00    +0.000 A 
ATOM     24  C   UNL     1       0.640   8.583  21.908  0.00  0.00    +0.000 A 
ATOM     25  C   UNL     1       0.663   9.890  21.435  0.00  0.00    +0.000 A 
ATOM     26  C   UNL     1       1.173  10.183  20.164  0.00  0.00    +0.000 A 
ATOM     27  C   UNL     1       1.188  11.514  19.714  0.00  0.00    +0.000 A 
ATOM     28  C   UNL     1       1.676  11.842  18.451  0.00  0.00    +0.000 A 
ATOM     29  C   UNL     1       2.146  10.838  17.617  0.00  0.00    +0.000 A 
ATOM     30  C   UNL     1       2.138   9.509  18.051  0.00  0.00    +0.000 A 
ATOM     31  C   UNL     1       1.667   9.137  19.337  0.00  0.00    +0.000 A 
ENDBRANCH  20  22
ENDBRANCH   1  19
TORSDOF 3
ENDMDL
