MODEL 1
REMARK VINA RESULT:      -8.6      0.000      0.000
REMARK  Name = 
REMARK  8 active torsions:
REMARK  status: ('A' for Active; 'I' for Inactive)
REMARK    1  A    between atoms: C_1  and  C_2
REMARK    2  A    between atoms: C_2  and  C_3
REMARK    3  A    between atoms: C_3  and  C_4
REMARK    4  A    between atoms: N_7  and  C_8
REMARK    5  A    between atoms: C_12  and  C_13
REMARK    6  A    between atoms: C_13  and  C_14
REMARK    7  A    between atoms: C_14  and  C_15
REMARK    8  A    between atoms: N_19  and  C_20
REMARK                            x       y       z     vdW  Elec       q    Type
REMARK                         _______ _______ _______ _____ _____    ______ ____
ROOT
ATOM      1  C   UNL     1       2.773   6.052  18.216  0.00  0.00    +0.000 A 
ATOM      2  C   UNL     1       1.873   4.990  18.271  0.00  0.00    +0.000 A 
ATOM      3  C   UNL     1       2.225   3.755  17.735  0.00  0.00    +0.000 A 
ATOM      4  C   UNL     1       3.461   3.597  17.111  0.00  0.00    +0.000 A 
ATOM      5  C   UNL     1       4.362   4.670  16.947  0.00  0.00    +0.000 A 
ATOM      6  C   UNL     1       3.982   5.892  17.530  0.00  0.00    +0.000 A 
ENDROOT
BRANCH   1  11
ATOM      7  C   UNL     1       0.442   9.534  20.142  0.00  0.00    +0.000 C 
ATOM      8  C   UNL     1      -0.162   9.347  21.509  0.00  0.00    +0.000 C 
ATOM      9  C   UNL     1       1.362   8.663  19.695  0.00  0.00    +0.000 C 
ATOM     10  C   UNL     1       2.020   7.418  20.240  0.00  0.00    +0.000 C 
ATOM     11  N   UNL     1       2.531   7.246  18.894  0.00  0.00    +0.000 N 
ATOM     12  C   UNL     1       2.063   8.431  18.429  0.00  0.00    +0.000 C 
ATOM     13  O   UNL     1       2.076   8.985  17.352  0.00  0.00    +0.000 OA
BRANCH   7  15
ATOM     14  C   UNL     1      -0.965  11.645  20.085  0.00  0.00    +0.000 C 
ATOM     15  C   UNL     1      -0.051  10.700  19.316  0.00  0.00    +0.000 C 
ENDBRANCH   7  15
ENDBRANCH   1  11
BRANCH   5  16
ATOM     16  C   UNL     1       5.713   4.511  16.107  0.00  0.00    +0.000 C 
ATOM     17  C   UNL     1       5.871   5.479  14.904  0.00  0.00    +0.000 C 
ATOM     18  O   UNL     1       6.442   4.419  14.095  0.00  0.00    +0.000 OA
ATOM     19  C   UNL     1       5.828   3.439  14.983  0.00  0.00    +0.000 C 
BRANCH  16  20
ATOM     20  C   UNL     1       6.937   4.514  17.051  0.00  0.00    +0.000 C 
BRANCH  20  21
ATOM     21  C   UNL     1       7.403   5.895  17.404  0.00  0.00    +0.000 A 
ATOM     22  N   UNL     1       7.456   6.921  16.579  0.00  0.00    +0.000 NA
ATOM     23  N   UNL     1       7.899   8.016  17.280  0.00  0.00    +0.000 NA
ATOM     24  C   UNL     1       8.106   7.635  18.519  0.00  0.00    +0.000 A 
ATOM     25  N   UNL     1       7.821   6.311  18.641  0.00  0.00    +0.000 N 
ATOM     26  C   UNL     1       7.933   5.550  19.854  0.00  0.00    +0.000 C 
ENDBRANCH  20  21
ENDBRANCH  16  20
ENDBRANCH   5  16
TORSDOF 5
ENDMDL
MODEL 2
REMARK VINA RESULT:      -8.4      0.715      1.263
REMARK  Name = 
REMARK  8 active torsions:
REMARK  status: ('A' for Active; 'I' for Inactive)
REMARK    1  A    between atoms: C_1  and  C_2
REMARK    2  A    between atoms: C_2  and  C_3
REMARK    3  A    between atoms: C_3  and  C_4
REMARK    4  A    between atoms: N_7  and  C_8
REMARK    5  A    between atoms: C_12  and  C_13
REMARK    6  A    between atoms: C_13  and  C_14
REMARK    7  A    between atoms: C_14  and  C_15
REMARK    8  A    between atoms: N_19  and  C_20
REMARK                            x       y       z     vdW  Elec       q    Type
REMARK                         _______ _______ _______ _____ _____    ______ ____
ROOT
ATOM      1  C   UNL     1       2.795   6.149  18.208  0.00  0.00    +0.000 A 
ATOM      2  C   UNL     1       2.012   5.018  18.427  0.00  0.00    +0.000 A 
ATOM      3  C   UNL     1       2.403   3.791  17.898  0.00  0.00    +0.000 A 
ATOM      4  C   UNL     1       3.556   3.708  17.119  0.00  0.00    +0.000 A 
ATOM      5  C   UNL     1       4.325   4.844  16.792  0.00  0.00    +0.000 A 
ATOM      6  C   UNL     1       3.913   6.058  17.372  0.00  0.00    +0.000 A 
ENDROOT
BRANCH   1  11
ATOM      7  C   UNL     1       0.414   9.653  20.028  0.00  0.00    +0.000 C 
ATOM      8  C   UNL     1      -0.225   9.483  21.382  0.00  0.00    +0.000 C 
ATOM      9  C   UNL     1       1.346   8.777  19.616  0.00  0.00    +0.000 C 
ATOM     10  C   UNL     1       1.990   7.541  20.195  0.00  0.00    +0.000 C 
ATOM     11  N   UNL     1       2.536   7.351  18.865  0.00  0.00    +0.000 N 
ATOM     12  C   UNL     1       2.080   8.530  18.373  0.00  0.00    +0.000 C 
ATOM     13  O   UNL     1       2.120   9.070  17.289  0.00  0.00    +0.000 OA
BRANCH   7  15
ATOM     14  C   UNL     1      -1.308  11.491  19.715  0.00  0.00    +0.000 C 
ATOM     15  C   UNL     1      -0.058  10.809  19.175  0.00  0.00    +0.000 C 
ENDBRANCH   7  15
ENDBRANCH   1  11
BRANCH   5  16
ATOM     16  C   UNL     1       5.563   4.759  15.784  0.00  0.00    +0.000 C 
ATOM     17  C   UNL     1       5.195   4.633  14.281  0.00  0.00    +0.000 C 
ATOM     18  O   UNL     1       6.269   3.679  14.074  0.00  0.00    +0.000 OA
ATOM     19  C   UNL     1       6.267   3.399  15.504  0.00  0.00    +0.000 C 
BRANCH  16  20
ATOM     20  C   UNL     1       6.567   5.900  16.068  0.00  0.00    +0.000 C 
BRANCH  20  21
ATOM     21  C   UNL     1       7.181   5.817  17.432  0.00  0.00    +0.000 A 
ATOM     22  N   UNL     1       7.311   4.718  18.149  0.00  0.00    +0.000 NA
ATOM     23  N   UNL     1       7.951   5.041  19.321  0.00  0.00    +0.000 NA
ATOM     24  C   UNL     1       8.199   6.330  19.294  0.00  0.00    +0.000 A 
ATOM     25  N   UNL     1       7.723   6.861  18.136  0.00  0.00    +0.000 N 
ATOM     26  C   UNL     1       7.813   8.244  17.762  0.00  0.00    +0.000 C 
ENDBRANCH  20  21
ENDBRANCH  16  20
ENDBRANCH   5  16
TORSDOF 5
ENDMDL
MODEL 3
REMARK VINA RESULT:      -8.1      1.740      2.983
REMARK  Name = 
REMARK  8 active torsions:
REMARK  status: ('A' for Active; 'I' for Inactive)
REMARK    1  A    between atoms: C_1  and  C_2
REMARK    2  A    between atoms: C_2  and  C_3
REMARK    3  A    between atoms: C_3  and  C_4
REMARK    4  A    between atoms: N_7  and  C_8
REMARK    5  A    between atoms: C_12  and  C_13
REMARK    6  A    between atoms: C_13  and  C_14
REMARK    7  A    between atoms: C_14  and  C_15
REMARK    8  A    between atoms: N_19  and  C_20
REMARK                            x       y       z     vdW  Elec       q    Type
REMARK                         _______ _______ _______ _____ _____    ______ ____
ROOT
ATOM      1  C   UNL     1       2.741   6.427  18.295  0.00  0.00    +0.000 A 
ATOM      2  C   UNL     1       1.800   5.427  18.058  0.00  0.00    +0.000 A 
ATOM      3  C   UNL     1       2.207   4.202  17.539  0.00  0.00    +0.000 A 
ATOM      4  C   UNL     1       3.548   3.994  17.222  0.00  0.00    +0.000 A 
ATOM      5  C   UNL     1       4.517   5.010  17.354  0.00  0.00    +0.000 A 
ATOM      6  C   UNL     1       4.071   6.222  17.911  0.00  0.00    +0.000 A 
ENDROOT
BRANCH   1  11
ATOM      7  C   UNL     1       0.138   9.720  20.204  0.00  0.00    +0.000 C 
ATOM      8  C   UNL     1      -0.471   9.481  21.561  0.00  0.00    +0.000 C 
ATOM      9  C   UNL     1       1.125   8.920  19.766  0.00  0.00    +0.000 C 
ATOM     10  C   UNL     1       1.862   7.722  20.315  0.00  0.00    +0.000 C 
ATOM     11  N   UNL     1       2.405   7.596  18.976  0.00  0.00    +0.000 N 
ATOM     12  C   UNL     1       1.860   8.747  18.511  0.00  0.00    +0.000 C 
ATOM     13  O   UNL     1       1.849   9.308  17.436  0.00  0.00    +0.000 OA
BRANCH   7  15
ATOM     14  C   UNL     1      -1.477  10.407  18.371  0.00  0.00    +0.000 C 
ATOM     15  C   UNL     1      -0.424  10.854  19.377  0.00  0.00    +0.000 C 
ENDBRANCH   7  15
ENDBRANCH   1  11
BRANCH   5  16
ATOM     16  C   UNL     1       6.022   4.805  16.856  0.00  0.00    +0.000 C 
ATOM     17  C   UNL     1       7.036   4.366  17.947  0.00  0.00    +0.000 C 
ATOM     18  O   UNL     1       8.048   5.246  17.395  0.00  0.00    +0.000 OA
ATOM     19  C   UNL     1       6.995   6.016  16.746  0.00  0.00    +0.000 C 
BRANCH  16  20
ATOM     20  C   UNL     1       6.055   3.901  15.601  0.00  0.00    +0.000 C 
BRANCH  20  21
ATOM     21  C   UNL     1       6.793   4.519  14.452  0.00  0.00    +0.000 A 
ATOM     22  N   UNL     1       7.741   5.429  14.549  0.00  0.00    +0.000 NA
ATOM     23  N   UNL     1       8.194   5.717  13.285  0.00  0.00    +0.000 NA
ATOM     24  C   UNL     1       7.512   4.976  12.442  0.00  0.00    +0.000 A 
ATOM     25  N   UNL     1       6.614   4.218  13.127  0.00  0.00    +0.000 N 
ATOM     26  C   UNL     1       5.696   3.288  12.533  0.00  0.00    +0.000 C 
ENDBRANCH  20  21
ENDBRANCH  16  20
ENDBRANCH   5  16
TORSDOF 5
ENDMDL
MODEL 4
REMARK VINA RESULT:      -8.1      2.094      3.250
REMARK  Name = 
REMARK  8 active torsions:
REMARK  status: ('A' for Active; 'I' for Inactive)
REMARK    1  A    between atoms: C_1  and  C_2
REMARK    2  A    between atoms: C_2  and  C_3
REMARK    3  A    between atoms: C_3  and  C_4
REMARK    4  A    between atoms: N_7  and  C_8
REMARK    5  A    between atoms: C_12  and  C_13
REMARK    6  A    between atoms: C_13  and  C_14
REMARK    7  A    between atoms: C_14  and  C_15
REMARK    8  A    between atoms: N_19  and  C_20
REMARK                            x       y       z     vdW  Elec       q    Type
REMARK                         _______ _______ _______ _____ _____    ______ ____
ROOT
ATOM      1  C   UNL     1       2.754   6.514  18.284  0.00  0.00    +0.000 A 
ATOM      2  C   UNL     1       1.916   5.402  18.238  0.00  0.00    +0.000 A 
ATOM      3  C   UNL     1       2.373   4.212  17.679  0.00  0.00    +0.000 A 
ATOM      4  C   UNL     1       3.655   4.150  17.133  0.00  0.00    +0.000 A 
ATOM      5  C   UNL     1       4.499   5.278  17.070  0.00  0.00    +0.000 A 
ATOM      6  C   UNL     1       4.012   6.451  17.673  0.00  0.00    +0.000 A 
ENDROOT
BRANCH   1  11
ATOM      7  C   UNL     1       0.104   9.693  20.316  0.00  0.00    +0.000 C 
ATOM      8  C   UNL     1      -0.454   9.418  21.688  0.00  0.00    +0.000 C 
ATOM      9  C   UNL     1       1.102   8.933  19.837  0.00  0.00    +0.000 C 
ATOM     10  C   UNL     1       1.897   7.755  20.347  0.00  0.00    +0.000 C 
ATOM     11  N   UNL     1       2.400   7.663  18.990  0.00  0.00    +0.000 N 
ATOM     12  C   UNL     1       1.802   8.800  18.557  0.00  0.00    +0.000 C 
ATOM     13  O   UNL     1       1.737   9.372  17.490  0.00  0.00    +0.000 OA
BRANCH   7  15
ATOM     14  C   UNL     1      -1.578  10.344  18.531  0.00  0.00    +0.000 C 
ATOM     15  C   UNL     1      -0.524  10.817  19.522  0.00  0.00    +0.000 C 
ENDBRANCH   7  15
ENDBRANCH   1  11
BRANCH   5  16
ATOM     16  C   UNL     1       5.908   5.231  16.316  0.00  0.00    +0.000 C 
ATOM     17  C   UNL     1       6.646   3.865  16.359  0.00  0.00    +0.000 C 
ATOM     18  O   UNL     1       7.920   4.533  16.551  0.00  0.00    +0.000 OA
ATOM     19  C   UNL     1       7.207   5.711  17.028  0.00  0.00    +0.000 C 
BRANCH  16  20
ATOM     20  C   UNL     1       5.771   5.799  14.884  0.00  0.00    +0.000 C 
BRANCH  20  21
ATOM     21  C   UNL     1       5.989   4.767  13.820  0.00  0.00    +0.000 A 
ATOM     22  N   UNL     1       5.151   3.799  13.506  0.00  0.00    +0.000 NA
ATOM     23  N   UNL     1       5.688   3.086  12.462  0.00  0.00    +0.000 NA
ATOM     24  C   UNL     1       6.842   3.634  12.160  0.00  0.00    +0.000 A 
ATOM     25  N   UNL     1       7.079   4.683  12.993  0.00  0.00    +0.000 N 
ATOM     26  C   UNL     1       8.246   5.518  12.958  0.00  0.00    +0.000 C 
ENDBRANCH  20  21
ENDBRANCH  16  20
ENDBRANCH   5  16
TORSDOF 5
ENDMDL
MODEL 5
REMARK VINA RESULT:      -8.0      2.475      7.595
REMARK  Name = 
REMARK  8 active torsions:
REMARK  status: ('A' for Active; 'I' for Inactive)
REMARK    1  A    between atoms: C_1  and  C_2
REMARK    2  A    between atoms: C_2  and  C_3
REMARK    3  A    between atoms: C_3  and  C_4
REMARK    4  A    between atoms: N_7  and  C_8
REMARK    5  A    between atoms: C_12  and  C_13
REMARK    6  A    between atoms: C_13  and  C_14
REMARK    7  A    between atoms: C_14  and  C_15
REMARK    8  A    between atoms: N_19  and  C_20
REMARK                            x       y       z     vdW  Elec       q    Type
REMARK                         _______ _______ _______ _____ _____    ______ ____
ROOT
ATOM      1  C   UNL     1       6.323   4.990  17.025  0.00  0.00    +0.000 A 
ATOM      2  C   UNL     1       7.141   5.071  18.149  0.00  0.00    +0.000 A 
ATOM      3  C   UNL     1       6.605   5.471  19.370  0.00  0.00    +0.000 A 
ATOM      4  C   UNL     1       5.259   5.825  19.454  0.00  0.00    +0.000 A 
ATOM      5  C   UNL     1       4.418   5.850  18.322  0.00  0.00    +0.000 A 
ATOM      6  C   UNL     1       4.991   5.410  17.115  0.00  0.00    +0.000 A 
ENDROOT
BRANCH   1  11
ATOM      7  C   UNL     1       6.551   3.988  12.531  0.00  0.00    +0.000 C 
ATOM      8  C   UNL     1       7.177   4.981  11.587  0.00  0.00    +0.000 C 
ATOM      9  C   UNL     1       6.739   4.116  13.854  0.00  0.00    +0.000 C 
ATOM     10  C   UNL     1       7.477   5.085  14.747  0.00  0.00    +0.000 C 
ATOM     11  N   UNL     1       6.777   4.427  15.834  0.00  0.00    +0.000 N 
ATOM     12  C   UNL     1       6.219   3.464  15.059  0.00  0.00    +0.000 C 
ATOM     13  O   UNL     1       5.458   2.544  15.264  0.00  0.00    +0.000 OA
BRANCH   7  15
ATOM     14  C   UNL     1       4.316   3.359  11.507  0.00  0.00    +0.000 C 
ATOM     15  C   UNL     1       5.703   2.892  11.926  0.00  0.00    +0.000 C 
ENDBRANCH   7  15
ENDBRANCH   1  11
BRANCH   5  16
ATOM     16  C   UNL     1       2.917   6.392  18.404  0.00  0.00    +0.000 C 
ATOM     17  C   UNL     1       2.664   7.769  17.732  0.00  0.00    +0.000 C 
ATOM     18  O   UNL     1       1.788   8.165  18.819  0.00  0.00    +0.000 OA
ATOM     19  C   UNL     1       2.416   7.158  19.664  0.00  0.00    +0.000 C 
BRANCH  16  20
ATOM     20  C   UNL     1       1.924   5.301  17.940  0.00  0.00    +0.000 C 
BRANCH  20  21
ATOM     21  C   UNL     1       1.741   4.207  18.948  0.00  0.00    +0.000 A 
ATOM     22  N   UNL     1       1.031   4.294  20.055  0.00  0.00    +0.000 NA
ATOM     23  N   UNL     1       1.075   3.079  20.693  0.00  0.00    +0.000 NA
ATOM     24  C   UNL     1       1.811   2.275  19.962  0.00  0.00    +0.000 A 
ATOM     25  N   UNL     1       2.260   2.941  18.865  0.00  0.00    +0.000 N 
ATOM     26  C   UNL     1       3.095   2.379  17.841  0.00  0.00    +0.000 C 
ENDBRANCH  20  21
ENDBRANCH  16  20
ENDBRANCH   5  16
TORSDOF 5
ENDMDL
MODEL 6
REMARK VINA RESULT:      -7.9      3.452      5.458
REMARK  Name = 
REMARK  8 active torsions:
REMARK  status: ('A' for Active; 'I' for Inactive)
REMARK    1  A    between atoms: C_1  and  C_2
REMARK    2  A    between atoms: C_2  and  C_3
REMARK    3  A    between atoms: C_3  and  C_4
REMARK    4  A    between atoms: N_7  and  C_8
REMARK    5  A    between atoms: C_12  and  C_13
REMARK    6  A    between atoms: C_13  and  C_14
REMARK    7  A    between atoms: C_14  and  C_15
REMARK    8  A    between atoms: N_19  and  C_20
REMARK                            x       y       z     vdW  Elec       q    Type
REMARK                         _______ _______ _______ _____ _____    ______ ____
ROOT
ATOM      1  C   UNL     1       1.202   9.691  19.294  0.00  0.00    +0.000 A 
ATOM      2  C   UNL     1       0.706   9.475  20.578  0.00  0.00    +0.000 A 
ATOM      3  C   UNL     1       1.014   8.296  21.251  0.00  0.00    +0.000 A 
ATOM      4  C   UNL     1       1.785   7.319  20.622  0.00  0.00    +0.000 A 
ATOM      5  C   UNL     1       2.225   7.454  19.289  0.00  0.00    +0.000 A 
ATOM      6  C   UNL     1       1.920   8.672  18.656  0.00  0.00    +0.000 A 
ENDROOT
BRANCH   1  11
ATOM      7  C   UNL     1       1.006  14.263  18.734  0.00  0.00    +0.000 C 
ATOM      8  C   UNL     1       2.288  15.049  18.651  0.00  0.00    +0.000 C 
ATOM      9  C   UNL     1       1.033  12.927  18.596  0.00  0.00    +0.000 C 
ATOM     10  C   UNL     1       2.106  11.891  18.362  0.00  0.00    +0.000 C 
ATOM     11  N   UNL     1       1.067  10.924  18.660  0.00  0.00    +0.000 N 
ATOM     12  C   UNL     1       0.065  11.835  18.735  0.00  0.00    +0.000 C 
ATOM     13  O   UNL     1      -1.118  11.777  18.988  0.00  0.00    +0.000 OA
BRANCH   7  15
ATOM     14  C   UNL     1      -0.621  15.124  20.481  0.00  0.00    +0.000 C 
ATOM     15  C   UNL     1      -0.267  15.033  19.003  0.00  0.00    +0.000 C 
ENDBRANCH   7  15
ENDBRANCH   1  11
BRANCH   5  16
ATOM     16  C   UNL     1       2.986   6.269  18.533  0.00  0.00    +0.000 C 
ATOM     17  C   UNL     1       4.157   5.616  19.317  0.00  0.00    +0.000 C 
ATOM     18  O   UNL     1       4.953   5.534  18.107  0.00  0.00    +0.000 OA
ATOM     19  C   UNL     1       4.124   6.577  17.516  0.00  0.00    +0.000 C 
BRANCH  16  20
ATOM     20  C   UNL     1       1.971   5.236  17.992  0.00  0.00    +0.000 C 
BRANCH  20  21
ATOM     21  C   UNL     1       1.765   4.074  18.917  0.00  0.00    +0.000 A 
ATOM     22  N   UNL     1       1.010   4.078  19.997  0.00  0.00    +0.000 NA
ATOM     23  N   UNL     1       1.050   2.823  20.554  0.00  0.00    +0.000 NA
ATOM     24  C   UNL     1       1.828   2.080  19.802  0.00  0.00    +0.000 A 
ATOM     25  N   UNL     1       2.309   2.825  18.771  0.00  0.00    +0.000 N 
ATOM     26  C   UNL     1       3.194   2.344  17.747  0.00  0.00    +0.000 C 
ENDBRANCH  20  21
ENDBRANCH  16  20
ENDBRANCH   5  16
TORSDOF 5
ENDMDL
MODEL 7
REMARK VINA RESULT:      -7.8      3.310      5.337
REMARK  Name = 
REMARK  8 active torsions:
REMARK  status: ('A' for Active; 'I' for Inactive)
REMARK    1  A    between atoms: C_1  and  C_2
REMARK    2  A    between atoms: C_2  and  C_3
REMARK    3  A    between atoms: C_3  and  C_4
REMARK    4  A    between atoms: N_7  and  C_8
REMARK    5  A    between atoms: C_12  and  C_13
REMARK    6  A    between atoms: C_13  and  C_14
REMARK    7  A    between atoms: C_14  and  C_15
REMARK    8  A    between atoms: N_19  and  C_20
REMARK                            x       y       z     vdW  Elec       q    Type
REMARK                         _______ _______ _______ _____ _____    ______ ____
ROOT
ATOM      1  C   UNL     1       1.210   9.667  19.264  0.00  0.00    +0.000 A 
ATOM      2  C   UNL     1       0.745   9.423  20.555  0.00  0.00    +0.000 A 
ATOM      3  C   UNL     1       1.089   8.241  21.204  0.00  0.00    +0.000 A 
ATOM      4  C   UNL     1       1.865   7.289  20.544  0.00  0.00    +0.000 A 
ATOM      5  C   UNL     1       2.275   7.451  19.204  0.00  0.00    +0.000 A 
ATOM      6  C   UNL     1       1.933   8.673  18.596  0.00  0.00    +0.000 A 
ENDROOT
BRANCH   1  11
ATOM      7  C   UNL     1       0.901  14.242  18.780  0.00  0.00    +0.000 C 
ATOM      8  C   UNL     1       2.164  15.059  18.692  0.00  0.00    +0.000 C 
ATOM      9  C   UNL     1       0.957  12.909  18.621  0.00  0.00    +0.000 C 
ATOM     10  C   UNL     1       2.050  11.903  18.355  0.00  0.00    +0.000 C 
ATOM     11  N   UNL     1       1.038  10.908  18.652  0.00  0.00    +0.000 N 
ATOM     12  C   UNL     1       0.016  11.794  18.755  0.00  0.00    +0.000 C 
ATOM     13  O   UNL     1      -1.162  11.704  19.023  0.00  0.00    +0.000 OA
BRANCH   7  15
ATOM     14  C   UNL     1      -0.295  16.480  18.841  0.00  0.00    +0.000 C 
ATOM     15  C   UNL     1      -0.386  14.978  19.078  0.00  0.00    +0.000 C 
ENDBRANCH   7  15
ENDBRANCH   1  11
BRANCH   5  16
ATOM     16  C   UNL     1       3.042   6.293  18.414  0.00  0.00    +0.000 C 
ATOM     17  C   UNL     1       4.144   5.550  19.218  0.00  0.00    +0.000 C 
ATOM     18  O   UNL     1       5.007   5.520  18.052  0.00  0.00    +0.000 OA
ATOM     19  C   UNL     1       4.247   6.627  17.486  0.00  0.00    +0.000 C 
BRANCH  16  20
ATOM     20  C   UNL     1       2.029   5.333  17.748  0.00  0.00    +0.000 C 
BRANCH  20  21
ATOM     21  C   UNL     1       2.240   3.899  18.129  0.00  0.00    +0.000 A 
ATOM     22  N   UNL     1       2.958   3.024  17.454  0.00  0.00    +0.000 NA
ATOM     23  N   UNL     1       2.940   1.833  18.138  0.00  0.00    +0.000 NA
ATOM     24  C   UNL     1       2.213   2.007  19.217  0.00  0.00    +0.000 A 
ATOM     25  N   UNL     1       1.743   3.283  19.248  0.00  0.00    +0.000 N 
ATOM     26  C   UNL     1       0.910   3.831  20.280  0.00  0.00    +0.000 C 
ENDBRANCH  20  21
ENDBRANCH  16  20
ENDBRANCH   5  16
TORSDOF 5
ENDMDL
MODEL 8
REMARK VINA RESULT:      -7.7      2.098      3.225
REMARK  Name = 
REMARK  8 active torsions:
REMARK  status: ('A' for Active; 'I' for Inactive)
REMARK    1  A    between atoms: C_1  and  C_2
REMARK    2  A    between atoms: C_2  and  C_3
REMARK    3  A    between atoms: C_3  and  C_4
REMARK    4  A    between atoms: N_7  and  C_8
REMARK    5  A    between atoms: C_12  and  C_13
REMARK    6  A    between atoms: C_13  and  C_14
REMARK    7  A    between atoms: C_14  and  C_15
REMARK    8  A    between atoms: N_19  and  C_20
REMARK                            x       y       z     vdW  Elec       q    Type
REMARK                         _______ _______ _______ _____ _____    ______ ____
ROOT
ATOM      1  C   UNL     1       3.019   6.113  19.004  0.00  0.00    +0.000 A 
ATOM      2  C   UNL     1       2.657   4.841  19.442  0.00  0.00    +0.000 A 
ATOM      3  C   UNL     1       3.633   3.867  19.628  0.00  0.00    +0.000 A 
ATOM      4  C   UNL     1       4.966   4.157  19.337  0.00  0.00    +0.000 A 
ATOM      5  C   UNL     1       5.364   5.399  18.799  0.00  0.00    +0.000 A 
ATOM      6  C   UNL     1       4.351   6.365  18.656  0.00  0.00    +0.000 A 
ENDROOT
BRANCH   1  11
ATOM      7  C   UNL     1       1.301  10.365  19.481  0.00  0.00    +0.000 C 
ATOM      8  C   UNL     1       1.585  11.396  18.420  0.00  0.00    +0.000 C 
ATOM      9  C   UNL     1       1.529   9.066  19.225  0.00  0.00    +0.000 C 
ATOM     10  C   UNL     1       2.048   8.275  18.049  0.00  0.00    +0.000 C 
ATOM     11  N   UNL     1       2.102   7.162  18.976  0.00  0.00    +0.000 N 
ATOM     12  C   UNL     1       1.505   7.822  20.000  0.00  0.00    +0.000 C 
ATOM     13  O   UNL     1       1.229   7.540  21.146  0.00  0.00    +0.000 OA
BRANCH   7  15
ATOM     14  C   UNL     1      -0.636  11.389  20.761  0.00  0.00    +0.000 C 
ATOM     15  C   UNL     1       0.791  10.861  20.815  0.00  0.00    +0.000 C 
ENDBRANCH   7  15
ENDBRANCH   1  11
BRANCH   5  16
ATOM     16  C   UNL     1       6.870   5.670  18.338  0.00  0.00    +0.000 C 
ATOM     17  C   UNL     1       7.861   6.043  19.473  0.00  0.00    +0.000 C 
ATOM     18  O   UNL     1       8.498   7.033  18.624  0.00  0.00    +0.000 OA
ATOM     19  C   UNL     1       7.297   7.067  17.799  0.00  0.00    +0.000 C 
BRANCH  16  20
ATOM     20  C   UNL     1       7.377   4.511  17.449  0.00  0.00    +0.000 C 
BRANCH  20  21
ATOM     21  C   UNL     1       6.968   4.649  16.013  0.00  0.00    +0.000 A 
ATOM     22  N   UNL     1       7.665   5.255  15.072  0.00  0.00    +0.000 NA
ATOM     23  N   UNL     1       6.979   5.141  13.888  0.00  0.00    +0.000 NA
ATOM     24  C   UNL     1       5.879   4.467  14.131  0.00  0.00    +0.000 A 
ATOM     25  N   UNL     1       5.823   4.149  15.452  0.00  0.00    +0.000 N 
ATOM     26  C   UNL     1       4.761   3.415  16.080  0.00  0.00    +0.000 C 
ENDBRANCH  20  21
ENDBRANCH  16  20
ENDBRANCH   5  16
TORSDOF 5
ENDMDL
MODEL 9
REMARK VINA RESULT:      -7.7      2.818      4.171
REMARK  Name = 
REMARK  8 active torsions:
REMARK  status: ('A' for Active; 'I' for Inactive)
REMARK    1  A    between atoms: C_1  and  C_2
REMARK    2  A    between atoms: C_2  and  C_3
REMARK    3  A    between atoms: C_3  and  C_4
REMARK    4  A    between atoms: N_7  and  C_8
REMARK    5  A    between atoms: C_12  and  C_13
REMARK    6  A    between atoms: C_13  and  C_14
REMARK    7  A    between atoms: C_14  and  C_15
REMARK    8  A    between atoms: N_19  and  C_20
REMARK                            x       y       z     vdW  Elec       q    Type
REMARK                         _______ _______ _______ _____ _____    ______ ____
ROOT
ATOM      1  C   UNL     1       2.062   7.409  19.725  0.00  0.00    +0.000 A 
ATOM      2  C   UNL     1       1.666   6.606  20.793  0.00  0.00    +0.000 A 
ATOM      3  C   UNL     1       2.247   5.354  20.972  0.00  0.00    +0.000 A 
ATOM      4  C   UNL     1       3.195   4.893  20.059  0.00  0.00    +0.000 A 
ATOM      5  C   UNL     1       3.554   5.630  18.912  0.00  0.00    +0.000 A 
ATOM      6  C   UNL     1       2.967   6.902  18.785  0.00  0.00    +0.000 A 
ENDROOT
BRANCH   1  11
ATOM      7  C   UNL     1      -0.777  11.014  19.285  0.00  0.00    +0.000 C 
ATOM      8  C   UNL     1      -1.513  11.523  20.497  0.00  0.00    +0.000 C 
ATOM      9  C   UNL     1       0.262  10.178  19.439  0.00  0.00    +0.000 C 
ATOM     10  C   UNL     1       0.964   9.539  20.613  0.00  0.00    +0.000 C 
ATOM     11  N   UNL     1       1.639   8.732  19.614  0.00  0.00    +0.000 N 
ATOM     12  C   UNL     1       1.121   9.392  18.548  0.00  0.00    +0.000 C 
ATOM     13  O   UNL     1       1.205   9.263  17.347  0.00  0.00    +0.000 OA
BRANCH   7  15
ATOM     14  C   UNL     1      -2.171  10.434  17.245  0.00  0.00    +0.000 C 
ATOM     15  C   UNL     1      -1.277  11.459  17.929  0.00  0.00    +0.000 C 
ENDBRANCH   7  15
ENDBRANCH   1  11
BRANCH   5  16
ATOM     16  C   UNL     1       4.534   5.031  17.801  0.00  0.00    +0.000 C 
ATOM     17  C   UNL     1       5.854   4.412  18.335  0.00  0.00    +0.000 C 
ATOM     18  O   UNL     1       6.597   4.981  17.227  0.00  0.00    +0.000 OA
ATOM     19  C   UNL     1       5.528   5.954  17.037  0.00  0.00    +0.000 C 
BRANCH  16  20
ATOM     20  C   UNL     1       3.760   4.082  16.856  0.00  0.00    +0.000 C 
BRANCH  20  21
ATOM     21  C   UNL     1       2.582   3.429  17.515  0.00  0.00    +0.000 A 
ATOM     22  N   UNL     1       1.344   3.881  17.493  0.00  0.00    +0.000 NA
ATOM     23  N   UNL     1       0.550   2.992  18.175  0.00  0.00    +0.000 NA
ATOM     24  C   UNL     1       1.320   2.016  18.598  0.00  0.00    +0.000 A 
ATOM     25  N   UNL     1       2.604   2.253  18.218  0.00  0.00    +0.000 N 
ATOM     26  C   UNL     1       3.722   1.399  18.506  0.00  0.00    +0.000 C 
ENDBRANCH  20  21
ENDBRANCH  16  20
ENDBRANCH   5  16
TORSDOF 5
ENDMDL
