MODEL 1
REMARK VINA RESULT:      -8.8      0.000      0.000
REMARK  Name = 
REMARK  8 active torsions:
REMARK  status: ('A' for Active; 'I' for Inactive)
REMARK    1  A    between atoms: C_1  and  C_2
REMARK    2  A    between atoms: C_2  and  O_3
REMARK    3  A    between atoms: O_3  and  C_4
REMARK    4  A    between atoms: C_7  and  N_8
REMARK    5  A    between atoms: C_9  and  C_11
REMARK    6  A    between atoms: C_11  and  C_12
REMARK    7  A    between atoms: C_22  and  S_23
REMARK    8  A    between atoms: S_23  and  N_26
REMARK                            x       y       z     vdW  Elec       q    Type
REMARK                         _______ _______ _______ _____ _____    ______ ____
ROOT
ATOM      1  C   UNL     1       3.870   4.909  18.066  0.00  0.00    +0.000 A 
ATOM      2  C   UNL     1       2.893   5.216  19.029  0.00  0.00    +0.000 A 
ATOM      3  C   UNL     1       2.283   6.472  19.121  0.00  0.00    +0.000 A 
ATOM      4  C   UNL     1       2.667   7.499  18.286  0.00  0.00    +0.000 A 
ATOM      5  C   UNL     1       3.655   7.234  17.334  0.00  0.00    +0.000 A 
ATOM      6  C   UNL     1       4.261   5.953  17.217  0.00  0.00    +0.000 A 
ENDROOT
BRANCH   4   7
ATOM      7  N   UNL     1       2.093   8.787  18.347  0.00  0.00    +0.000 N 
ATOM      8  C   UNL     1       1.338   9.284  19.397  0.00  0.00    +0.000 C 
ATOM      9  O   UNL     1       1.100   8.737  20.465  0.00  0.00    +0.000 OA
ATOM     10  H   UNL     1       2.287   9.420  17.581  0.00  0.00    +0.000 HD
BRANCH   8  11
ATOM     11  C   UNL     1       0.766  10.655  19.156  0.00  0.00    +0.000 C 
ATOM     12  C   UNL     1       1.707  11.675  18.502  0.00  0.00    +0.000 C 
ATOM     13  C   UNL     1       1.341  11.833  19.939  0.00  0.00    +0.000 C 
BRANCH  11  14
ATOM     14  C   UNL     1      -0.695  10.732  18.728  0.00  0.00    +0.000 A 
ATOM     15  C   UNL     1      -1.613  11.551  19.405  0.00  0.00    +0.000 A 
ATOM     16  C   UNL     1      -2.892  11.780  18.893  0.00  0.00    +0.000 A 
ATOM     17  C   UNL     1      -3.280  11.183  17.697  0.00  0.00    +0.000 A 
ATOM     18  C   UNL     1      -2.412  10.306  17.053  0.00  0.00    +0.000 A 
ATOM     19 CL   UNL     1      -2.880   9.572  15.569  0.00  0.00    +0.000 Cl
ATOM     20  C   UNL     1      -1.144  10.061  17.576  0.00  0.00    +0.000 A 
ENDBRANCH  11  14
ENDBRANCH   8  11
ENDBRANCH   4   7
BRANCH   6  21
ATOM     21  S   UNL     1       5.409   5.880  15.851  0.00  0.00    +0.000 S 
ATOM     22  O   UNL     1       5.179   4.567  15.272  0.00  0.00    +0.000 OA
ATOM     23  O   UNL     1       5.161   7.069  15.061  0.00  0.00    +0.000 OA
BRANCH  21  24
ATOM     24  N   UNL     1       7.041   5.928  16.335  0.00  0.00    +0.000 NA
ATOM     25  C   UNL     1       7.583   4.708  16.990  0.00  0.00    +0.000 C 
ATOM     26  C   UNL     1       7.442   4.968  18.482  0.00  0.00    +0.000 C 
ATOM     27  C   UNL     1       7.699   6.454  18.624  0.00  0.00    +0.000 C 
ATOM     28  C   UNL     1       7.336   7.062  17.276  0.00  0.00    +0.000 C 
ENDBRANCH  21  24
ENDBRANCH   6  21
BRANCH   1  29
ATOM     29  O   UNL     1       4.392   3.644  17.958  0.00  0.00    +0.000 OA
BRANCH  29  31
ATOM     30  C   UNL     1       3.573   1.406  18.496  0.00  0.00    +0.000 C 
ATOM     31  C   UNL     1       4.007   2.753  19.026  0.00  0.00    +0.000 C 
ENDBRANCH  29  31
ENDBRANCH   1  29
TORSDOF 7
ENDMDL
MODEL 2
REMARK VINA RESULT:      -8.6      1.977      2.987
REMARK  Name = 
REMARK  8 active torsions:
REMARK  status: ('A' for Active; 'I' for Inactive)
REMARK    1  A    between atoms: C_1  and  C_2
REMARK    2  A    between atoms: C_2  and  O_3
REMARK    3  A    between atoms: O_3  and  C_4
REMARK    4  A    between atoms: C_7  and  N_8
REMARK    5  A    between atoms: C_9  and  C_11
REMARK    6  A    between atoms: C_11  and  C_12
REMARK    7  A    between atoms: C_22  and  S_23
REMARK    8  A    between atoms: S_23  and  N_26
REMARK                            x       y       z     vdW  Elec       q    Type
REMARK                         _______ _______ _______ _____ _____    ______ ____
ROOT
ATOM      1  C   UNL     1       4.210   4.731  18.786  0.00  0.00    +0.000 A 
ATOM      2  C   UNL     1       3.259   5.108  19.750  0.00  0.00    +0.000 A 
ATOM      3  C   UNL     1       2.522   6.294  19.670  0.00  0.00    +0.000 A 
ATOM      4  C   UNL     1       2.747   7.189  18.646  0.00  0.00    +0.000 A 
ATOM      5  C   UNL     1       3.705   6.858  17.685  0.00  0.00    +0.000 A 
ATOM      6  C   UNL     1       4.440   5.641  17.745  0.00  0.00    +0.000 A 
ENDROOT
BRANCH   4   7
ATOM      7  N   UNL     1       2.042   8.406  18.527  0.00  0.00    +0.000 N 
ATOM      8  C   UNL     1       1.391   9.064  19.558  0.00  0.00    +0.000 C 
ATOM      9  O   UNL     1       1.373   8.756  20.742  0.00  0.00    +0.000 OA
ATOM     10  H   UNL     1       2.049   8.862  17.623  0.00  0.00    +0.000 HD
BRANCH   8  11
ATOM     11  C   UNL     1       0.635  10.293  19.130  0.00  0.00    +0.000 C 
ATOM     12  C   UNL     1      -0.871  10.296  19.420  0.00  0.00    +0.000 C 
ATOM     13  C   UNL     1      -0.397  10.163  18.012  0.00  0.00    +0.000 C 
BRANCH  11  14
ATOM     14  C   UNL     1       1.342  11.634  19.290  0.00  0.00    +0.000 A 
ATOM     15  C   UNL     1       2.102  12.189  18.248  0.00  0.00    +0.000 A 
ATOM     16  C   UNL     1       2.576  13.501  18.318  0.00  0.00    +0.000 A 
ATOM     17  C   UNL     1       2.307  14.279  19.441  0.00  0.00    +0.000 A 
ATOM     18  C   UNL     1       1.623  13.720  20.517  0.00  0.00    +0.000 A 
ATOM     19 CL   UNL     1       1.278  14.678  21.904  0.00  0.00    +0.000 Cl
ATOM     20  C   UNL     1       1.169  12.405  20.455  0.00  0.00    +0.000 A 
ENDBRANCH  11  14
ENDBRANCH   8  11
ENDBRANCH   4   7
BRANCH   6  21
ATOM     21  S   UNL     1       5.514   5.438  16.334  0.00  0.00    +0.000 S 
ATOM     22  O   UNL     1       5.322   4.051  15.945  0.00  0.00    +0.000 OA
ATOM     23  O   UNL     1       5.162   6.500  15.412  0.00  0.00    +0.000 OA
BRANCH  21  24
ATOM     24  N   UNL     1       7.165   5.623  16.707  0.00  0.00    +0.000 NA
ATOM     25  C   UNL     1       7.717   4.736  17.766  0.00  0.00    +0.000 C 
ATOM     26  C   UNL     1       7.641   5.558  19.044  0.00  0.00    +0.000 C 
ATOM     27  C   UNL     1       7.925   6.975  18.590  0.00  0.00    +0.000 C 
ATOM     28  C   UNL     1       7.514   7.024  17.124  0.00  0.00    +0.000 C 
ENDBRANCH  21  24
ENDBRANCH   6  21
BRANCH   1  29
ATOM     29  O   UNL     1       4.860   3.523  18.859  0.00  0.00    +0.000 OA
BRANCH  29  31
ATOM     30  C   UNL     1       3.346   1.763  18.098  0.00  0.00    +0.000 C 
ATOM     31  C   UNL     1       4.021   2.426  19.276  0.00  0.00    +0.000 C 
ENDBRANCH  29  31
ENDBRANCH   1  29
TORSDOF 7
ENDMDL
MODEL 3
REMARK VINA RESULT:      -8.6      1.685      2.102
REMARK  Name = 
REMARK  8 active torsions:
REMARK  status: ('A' for Active; 'I' for Inactive)
REMARK    1  A    between atoms: C_1  and  C_2
REMARK    2  A    between atoms: C_2  and  O_3
REMARK    3  A    between atoms: O_3  and  C_4
REMARK    4  A    between atoms: C_7  and  N_8
REMARK    5  A    between atoms: C_9  and  C_11
REMARK    6  A    between atoms: C_11  and  C_12
REMARK    7  A    between atoms: C_22  and  S_23
REMARK    8  A    between atoms: S_23  and  N_26
REMARK                            x       y       z     vdW  Elec       q    Type
REMARK                         _______ _______ _______ _____ _____    ______ ____
ROOT
ATOM      1  C   UNL     1       3.496   4.403  19.773  0.00  0.00    +0.000 A 
ATOM      2  C   UNL     1       2.228   4.612  20.343  0.00  0.00    +0.000 A 
ATOM      3  C   UNL     1       1.573   5.848  20.313  0.00  0.00    +0.000 A 
ATOM      4  C   UNL     1       2.187   6.950  19.759  0.00  0.00    +0.000 A 
ATOM      5  C   UNL     1       3.460   6.784  19.207  0.00  0.00    +0.000 A 
ATOM      6  C   UNL     1       4.121   5.524  19.210  0.00  0.00    +0.000 A 
ENDROOT
BRANCH   4   7
ATOM      7  N   UNL     1       1.576   8.223  19.717  0.00  0.00    +0.000 N 
ATOM      8  C   UNL     1       1.494   9.041  18.602  0.00  0.00    +0.000 C 
ATOM      9  O   UNL     1       1.861   8.784  17.463  0.00  0.00    +0.000 OA
ATOM     10  H   UNL     1       1.119   8.547  20.560  0.00  0.00    +0.000 HD
BRANCH   8  11
ATOM     11  C   UNL     1       0.876  10.387  18.864  0.00  0.00    +0.000 C 
ATOM     12  C   UNL     1       1.767  11.605  18.592  0.00  0.00    +0.000 C 
ATOM     13  C   UNL     1       1.438  11.240  20.000  0.00  0.00    +0.000 C 
BRANCH  11  14
ATOM     14  C   UNL     1      -0.598  10.554  18.514  0.00  0.00    +0.000 A 
ATOM     15  C   UNL     1      -1.441  11.383  19.272  0.00  0.00    +0.000 A 
ATOM     16  C   UNL     1      -2.730  11.697  18.835  0.00  0.00    +0.000 A 
ATOM     17  C   UNL     1      -3.205  11.175  17.635  0.00  0.00    +0.000 A 
ATOM     18  C   UNL     1      -2.413  10.289  16.910  0.00  0.00    +0.000 A 
ATOM     19 CL   UNL     1      -2.988   9.648  15.420  0.00  0.00    +0.000 Cl
ATOM     20  C   UNL     1      -1.135   9.960  17.357  0.00  0.00    +0.000 A 
ENDBRANCH  11  14
ENDBRANCH   8  11
ENDBRANCH   4   7
BRANCH   6  21
ATOM     21  S   UNL     1       5.682   5.588  18.347  0.00  0.00    +0.000 S 
ATOM     22  O   UNL     1       5.629   6.847  17.622  0.00  0.00    +0.000 OA
ATOM     23  O   UNL     1       6.702   5.380  19.356  0.00  0.00    +0.000 OA
BRANCH  21  24
ATOM     24  N   UNL     1       5.864   4.356  17.186  0.00  0.00    +0.000 NA
ATOM     25  C   UNL     1       7.174   4.281  16.485  0.00  0.00    +0.000 C 
ATOM     26  C   UNL     1       6.973   5.060  15.194  0.00  0.00    +0.000 C 
ATOM     27  C   UNL     1       5.540   4.764  14.802  0.00  0.00    +0.000 C 
ATOM     28  C   UNL     1       4.824   4.420  16.102  0.00  0.00    +0.000 C 
ENDBRANCH  21  24
ENDBRANCH   6  21
BRANCH   1  29
ATOM     29  O   UNL     1       4.074   3.158  19.756  0.00  0.00    +0.000 OA
BRANCH  29  31
ATOM     30  C   UNL     1       2.879   2.053  17.933  0.00  0.00    +0.000 C 
ATOM     31  C   UNL     1       3.166   2.089  19.417  0.00  0.00    +0.000 C 
ENDBRANCH  29  31
ENDBRANCH   1  29
TORSDOF 7
ENDMDL
MODEL 4
REMARK VINA RESULT:      -8.4      2.112      3.589
REMARK  Name = 
REMARK  8 active torsions:
REMARK  status: ('A' for Active; 'I' for Inactive)
REMARK    1  A    between atoms: C_1  and  C_2
REMARK    2  A    between atoms: C_2  and  O_3
REMARK    3  A    between atoms: O_3  and  C_4
REMARK    4  A    between atoms: C_7  and  N_8
REMARK    5  A    between atoms: C_9  and  C_11
REMARK    6  A    between atoms: C_11  and  C_12
REMARK    7  A    between atoms: C_22  and  S_23
REMARK    8  A    between atoms: S_23  and  N_26
REMARK                            x       y       z     vdW  Elec       q    Type
REMARK                         _______ _______ _______ _____ _____    ______ ____
ROOT
ATOM      1  C   UNL     1       4.302   5.193  17.382  0.00  0.00    +0.000 A 
ATOM      2  C   UNL     1       4.721   6.530  17.504  0.00  0.00    +0.000 A 
ATOM      3  C   UNL     1       3.900   7.542  18.012  0.00  0.00    +0.000 A 
ATOM      4  C   UNL     1       2.596   7.272  18.368  0.00  0.00    +0.000 A 
ATOM      5  C   UNL     1       2.139   5.959  18.233  0.00  0.00    +0.000 A 
ATOM      6  C   UNL     1       2.976   4.919  17.742  0.00  0.00    +0.000 A 
ENDROOT
BRANCH   4   7
ATOM      7  N   UNL     1       1.722   8.260  18.872  0.00  0.00    +0.000 N 
ATOM      8  C   UNL     1       1.543   9.526  18.338  0.00  0.00    +0.000 C 
ATOM      9  O   UNL     1       2.042   9.979  17.317  0.00  0.00    +0.000 OA
ATOM     10  H   UNL     1       1.142   8.008  19.662  0.00  0.00    +0.000 HD
BRANCH   8  11
ATOM     11  C   UNL     1       0.622  10.410  19.134  0.00  0.00    +0.000 C 
ATOM     12  C   UNL     1       1.250  11.673  19.736  0.00  0.00    +0.000 C 
ATOM     13  C   UNL     1       0.861  10.549  20.636  0.00  0.00    +0.000 C 
BRANCH  11  14
ATOM     14  C   UNL     1      -0.807  10.560  18.626  0.00  0.00    +0.000 A 
ATOM     15  C   UNL     1      -1.748  11.348  19.308  0.00  0.00    +0.000 A 
ATOM     16  C   UNL     1      -2.987  11.651  18.739  0.00  0.00    +0.000 A 
ATOM     17  C   UNL     1      -3.312  11.159  17.477  0.00  0.00    +0.000 A 
ATOM     18  C   UNL     1      -2.424  10.312  16.820  0.00  0.00    +0.000 A 
ATOM     19 CL   UNL     1      -2.815   9.708  15.257  0.00  0.00    +0.000 Cl
ATOM     20  C   UNL     1      -1.198   9.993  17.398  0.00  0.00    +0.000 A 
ENDBRANCH  11  14
ENDBRANCH   8  11
ENDBRANCH   4   7
BRANCH   6  21
ATOM     21  S   UNL     1       2.159   3.331  17.778  0.00  0.00    +0.000 S 
ATOM     22  O   UNL     1       0.746   3.665  17.724  0.00  0.00    +0.000 OA
ATOM     23  O   UNL     1       2.757   2.554  16.710  0.00  0.00    +0.000 OA
BRANCH  21  24
ATOM     24  N   UNL     1       2.410   2.474  19.227  0.00  0.00    +0.000 NA
ATOM     25  C   UNL     1       1.217   2.239  20.083  0.00  0.00    +0.000 C 
ATOM     26  C   UNL     1       1.234   3.372  21.098  0.00  0.00    +0.000 C 
ATOM     27  C   UNL     1       2.706   3.605  21.368  0.00  0.00    +0.000 C 
ATOM     28  C   UNL     1       3.431   3.123  20.118  0.00  0.00    +0.000 C 
ENDBRANCH  21  24
ENDBRANCH   6  21
BRANCH   1  29
ATOM     29  O   UNL     1       5.161   4.214  16.949  0.00  0.00    +0.000 OA
BRANCH  29  31
ATOM     30  C   UNL     1       7.556   4.510  17.330  0.00  0.00    +0.000 C 
ATOM     31  C   UNL     1       6.392   4.714  16.387  0.00  0.00    +0.000 C 
ENDBRANCH  29  31
ENDBRANCH   1  29
TORSDOF 7
ENDMDL
MODEL 5
REMARK VINA RESULT:      -8.3      2.033      2.902
REMARK  Name = 
REMARK  8 active torsions:
REMARK  status: ('A' for Active; 'I' for Inactive)
REMARK    1  A    between atoms: C_1  and  C_2
REMARK    2  A    between atoms: C_2  and  O_3
REMARK    3  A    between atoms: O_3  and  C_4
REMARK    4  A    between atoms: C_7  and  N_8
REMARK    5  A    between atoms: C_9  and  C_11
REMARK    6  A    between atoms: C_11  and  C_12
REMARK    7  A    between atoms: C_22  and  S_23
REMARK    8  A    between atoms: S_23  and  N_26
REMARK                            x       y       z     vdW  Elec       q    Type
REMARK                         _______ _______ _______ _____ _____    ______ ____
ROOT
ATOM      1  C   UNL     1       3.611   3.550  19.711  0.00  0.00    +0.000 A 
ATOM      2  C   UNL     1       2.445   3.404  20.484  0.00  0.00    +0.000 A 
ATOM      3  C   UNL     1       1.666   4.489  20.899  0.00  0.00    +0.000 A 
ATOM      4  C   UNL     1       2.052   5.780  20.606  0.00  0.00    +0.000 A 
ATOM      5  C   UNL     1       3.220   5.961  19.862  0.00  0.00    +0.000 A 
ATOM      6  C   UNL     1       4.003   4.862  19.414  0.00  0.00    +0.000 A 
ENDROOT
BRANCH   4   7
ATOM      7  N   UNL     1       1.309   6.909  21.014  0.00  0.00    +0.000 N 
ATOM      8  C   UNL     1       1.331   8.152  20.403  0.00  0.00    +0.000 C 
ATOM      9  O   UNL     1       1.926   8.467  19.380  0.00  0.00    +0.000 OA
ATOM     10  H   UNL     1       0.672   6.791  21.791  0.00  0.00    +0.000 HD
BRANCH   8  11
ATOM     11  C   UNL     1       0.518   9.204  21.106  0.00  0.00    +0.000 C 
ATOM     12  C   UNL     1       0.840   9.431  22.588  0.00  0.00    +0.000 C 
ATOM     13  C   UNL     1      -0.441   8.768  22.211  0.00  0.00    +0.000 C 
BRANCH  11  14
ATOM     14  C   UNL     1       0.160  10.453  20.308  0.00  0.00    +0.000 A 
ATOM     15  C   UNL     1       0.926  11.626  20.402  0.00  0.00    +0.000 A 
ATOM     16  C   UNL     1       0.726  12.694  19.525  0.00  0.00    +0.000 A 
ATOM     17  C   UNL     1      -0.257  12.612  18.542  0.00  0.00    +0.000 A 
ATOM     18  C   UNL     1      -1.078  11.489  18.483  0.00  0.00    +0.000 A 
ATOM     19 CL   UNL     1      -2.287  11.375  17.264  0.00  0.00    +0.000 Cl
ATOM     20  C   UNL     1      -0.891  10.433  19.372  0.00  0.00    +0.000 A 
ENDBRANCH  11  14
ENDBRANCH   8  11
ENDBRANCH   4   7
BRANCH   6  21
ATOM     21  S   UNL     1       5.376   5.389  18.401  0.00  0.00    +0.000 S 
ATOM     22  O   UNL     1       4.862   6.552  17.696  0.00  0.00    +0.000 OA
ATOM     23  O   UNL     1       6.502   5.533  19.302  0.00  0.00    +0.000 OA
BRANCH  21  24
ATOM     24  N   UNL     1       5.819   4.250  17.216  0.00  0.00    +0.000 NA
ATOM     25  C   UNL     1       7.195   4.358  16.662  0.00  0.00    +0.000 C 
ATOM     26  C   UNL     1       7.042   5.179  15.390  0.00  0.00    +0.000 C 
ATOM     27  C   UNL     1       5.702   4.747  14.831  0.00  0.00    +0.000 C 
ATOM     28  C   UNL     1       4.899   4.257  16.028  0.00  0.00    +0.000 C 
ENDBRANCH  21  24
ENDBRANCH   6  21
BRANCH   1  29
ATOM     29  O   UNL     1       4.308   2.457  19.259  0.00  0.00    +0.000 OA
BRANCH  29  31
ATOM     30  C   UNL     1       2.605   2.108  17.542  0.00  0.00    +0.000 C 
ATOM     31  C   UNL     1       3.494   1.473  18.587  0.00  0.00    +0.000 C 
ENDBRANCH  29  31
ENDBRANCH   1  29
TORSDOF 7
ENDMDL
MODEL 6
REMARK VINA RESULT:      -8.3      2.287      3.787
REMARK  Name = 
REMARK  8 active torsions:
REMARK  status: ('A' for Active; 'I' for Inactive)
REMARK    1  A    between atoms: C_1  and  C_2
REMARK    2  A    between atoms: C_2  and  O_3
REMARK    3  A    between atoms: O_3  and  C_4
REMARK    4  A    between atoms: C_7  and  N_8
REMARK    5  A    between atoms: C_9  and  C_11
REMARK    6  A    between atoms: C_11  and  C_12
REMARK    7  A    between atoms: C_22  and  S_23
REMARK    8  A    between atoms: S_23  and  N_26
REMARK                            x       y       z     vdW  Elec       q    Type
REMARK                         _______ _______ _______ _____ _____    ______ ____
ROOT
ATOM      1  C   UNL     1       4.620   5.489  17.240  0.00  0.00    +0.000 A 
ATOM      2  C   UNL     1       4.835   6.877  17.306  0.00  0.00    +0.000 A 
ATOM      3  C   UNL     1       3.891   7.771  17.821  0.00  0.00    +0.000 A 
ATOM      4  C   UNL     1       2.658   7.320  18.242  0.00  0.00    +0.000 A 
ATOM      5  C   UNL     1       2.401   5.949  18.165  0.00  0.00    +0.000 A 
ATOM      6  C   UNL     1       3.366   5.030  17.667  0.00  0.00    +0.000 A 
ENDROOT
BRANCH   4   7
ATOM      7  N   UNL     1       1.665   8.182  18.756  0.00  0.00    +0.000 N 
ATOM      8  C   UNL     1       1.438   9.485  18.346  0.00  0.00    +0.000 C 
ATOM      9  O   UNL     1       1.994  10.085  17.436  0.00  0.00    +0.000 OA
ATOM     10  H   UNL     1       1.035   7.803  19.451  0.00  0.00    +0.000 HD
BRANCH   8  11
ATOM     11  C   UNL     1       0.379  10.208  19.133  0.00  0.00    +0.000 C 
ATOM     12  C   UNL     1       0.870  11.326  20.061  0.00  0.00    +0.000 C 
ATOM     13  C   UNL     1       0.365  10.054  20.652  0.00  0.00    +0.000 C 
BRANCH  11  14
ATOM     14  C   UNL     1      -0.951  10.465  18.433  0.00  0.00    +0.000 A 
ATOM     15  C   UNL     1      -1.307   9.776  17.263  0.00  0.00    +0.000 A 
ATOM     16  C   UNL     1      -2.599   9.857  16.740  0.00  0.00    +0.000 A 
ATOM     17  C   UNL     1      -3.559  10.642  17.375  0.00  0.00    +0.000 A 
ATOM     18  C   UNL     1      -3.203  11.393  18.491  0.00  0.00    +0.000 A 
ATOM     19 CL   UNL     1      -4.385  12.357  19.288  0.00  0.00    +0.000 Cl
ATOM     20  C   UNL     1      -1.907  11.328  18.999  0.00  0.00    +0.000 A 
ENDBRANCH  11  14
ENDBRANCH   8  11
ENDBRANCH   4   7
BRANCH   6  21
ATOM     21  S   UNL     1       2.802   3.340  17.784  0.00  0.00    +0.000 S 
ATOM     22  O   UNL     1       1.418   3.404  17.347  0.00  0.00    +0.000 OA
ATOM     23  O   UNL     1       3.759   2.550  17.034  0.00  0.00    +0.000 OA
BRANCH  21  24
ATOM     24  N   UNL     1       2.791   2.739  19.377  0.00  0.00    +0.000 NA
ATOM     25  C   UNL     1       1.482   2.279  19.912  0.00  0.00    +0.000 C 
ATOM     26  C   UNL     1       0.928   3.473  20.675  0.00  0.00    +0.000 C 
ATOM     27  C   UNL     1       2.154   4.125  21.281  0.00  0.00    +0.000 C 
ATOM     28  C   UNL     1       3.315   3.731  20.377  0.00  0.00    +0.000 C 
ENDBRANCH  21  24
ENDBRANCH   6  21
BRANCH   1  29
ATOM     29  O   UNL     1       5.600   4.635  16.797  0.00  0.00    +0.000 OA
BRANCH  29  31
ATOM     30  C   UNL     1       5.801   4.121  14.417  0.00  0.00    +0.000 C 
ATOM     31  C   UNL     1       6.210   5.032  15.551  0.00  0.00    +0.000 C 
ENDBRANCH  29  31
ENDBRANCH   1  29
TORSDOF 7
ENDMDL
MODEL 7
REMARK VINA RESULT:      -8.3      2.085      3.684
REMARK  Name = 
REMARK  8 active torsions:
REMARK  status: ('A' for Active; 'I' for Inactive)
REMARK    1  A    between atoms: C_1  and  C_2
REMARK    2  A    between atoms: C_2  and  O_3
REMARK    3  A    between atoms: O_3  and  C_4
REMARK    4  A    between atoms: C_7  and  N_8
REMARK    5  A    between atoms: C_9  and  C_11
REMARK    6  A    between atoms: C_11  and  C_12
REMARK    7  A    between atoms: C_22  and  S_23
REMARK    8  A    between atoms: S_23  and  N_26
REMARK                            x       y       z     vdW  Elec       q    Type
REMARK                         _______ _______ _______ _____ _____    ______ ____
ROOT
ATOM      1  C   UNL     1       4.269   5.425  17.385  0.00  0.00    +0.000 A 
ATOM      2  C   UNL     1       4.875   6.675  17.166  0.00  0.00    +0.000 A 
ATOM      3  C   UNL     1       4.226   7.889  17.414  0.00  0.00    +0.000 A 
ATOM      4  C   UNL     1       2.914   7.907  17.838  0.00  0.00    +0.000 A 
ATOM      5  C   UNL     1       2.274   6.682  18.040  0.00  0.00    +0.000 A 
ATOM      6  C   UNL     1       2.936   5.443  17.816  0.00  0.00    +0.000 A 
ENDROOT
BRANCH   4   7
ATOM      7  N   UNL     1       2.209   9.105  18.088  0.00  0.00    +0.000 N 
ATOM      8  C   UNL     1       1.401   9.350  19.186  0.00  0.00    +0.000 C 
ATOM      9  O   UNL     1       1.216   8.620  20.150  0.00  0.00    +0.000 OA
ATOM     10  H   UNL     1       2.340   9.866  17.434  0.00  0.00    +0.000 HD
BRANCH   8  11
ATOM     11  C   UNL     1       0.691  10.676  19.150  0.00  0.00    +0.000 C 
ATOM     12  C   UNL     1       1.535  11.884  18.726  0.00  0.00    +0.000 C 
ATOM     13  C   UNL     1       1.106  11.754  20.148  0.00  0.00    +0.000 C 
BRANCH  11  14
ATOM     14  C   UNL     1      -0.755  10.676  18.665  0.00  0.00    +0.000 A 
ATOM     15  C   UNL     1      -1.754  11.391  19.345  0.00  0.00    +0.000 A 
ATOM     16  C   UNL     1      -3.025  11.560  18.792  0.00  0.00    +0.000 A 
ATOM     17  C   UNL     1      -3.324  11.004  17.550  0.00  0.00    +0.000 A 
ATOM     18  C   UNL     1      -2.371  10.227  16.898  0.00  0.00    +0.000 A 
ATOM     19 CL   UNL     1      -2.729   9.546  15.359  0.00  0.00    +0.000 Cl
ATOM     20  C   UNL     1      -1.110  10.041  17.460  0.00  0.00    +0.000 A 
ENDBRANCH  11  14
ENDBRANCH   8  11
ENDBRANCH   4   7
BRANCH   6  21
ATOM     21  S   UNL     1       1.910   4.049  18.254  0.00  0.00    +0.000 S 
ATOM     22  O   UNL     1       0.874   4.045  17.235  0.00  0.00    +0.000 OA
ATOM     23  O   UNL     1       2.808   2.917  18.373  0.00  0.00    +0.000 OA
BRANCH  21  24
ATOM     24  N   UNL     1       1.126   4.231  19.754  0.00  0.00    +0.000 NA
ATOM     25  C   UNL     1       1.888   4.918  20.831  0.00  0.00    +0.000 C 
ATOM     26  C   UNL     1       2.527   3.797  21.637  0.00  0.00    +0.000 C 
ATOM     27  C   UNL     1       1.497   2.687  21.606  0.00  0.00    +0.000 C 
ATOM     28  C   UNL     1       0.681   2.921  20.341  0.00  0.00    +0.000 C 
ENDBRANCH  21  24
ENDBRANCH   6  21
BRANCH   1  29
ATOM     29  O   UNL     1       4.964   4.255  17.202  0.00  0.00    +0.000 OA
BRANCH  29  31
ATOM     30  C   UNL     1       6.016   3.842  15.036  0.00  0.00    +0.000 C 
ATOM     31  C   UNL     1       6.175   4.401  16.431  0.00  0.00    +0.000 C 
ENDBRANCH  29  31
ENDBRANCH   1  29
TORSDOF 7
ENDMDL
MODEL 8
REMARK VINA RESULT:      -8.2      1.508      2.076
REMARK  Name = 
REMARK  8 active torsions:
REMARK  status: ('A' for Active; 'I' for Inactive)
REMARK    1  A    between atoms: C_1  and  C_2
REMARK    2  A    between atoms: C_2  and  O_3
REMARK    3  A    between atoms: O_3  and  C_4
REMARK    4  A    between atoms: C_7  and  N_8
REMARK    5  A    between atoms: C_9  and  C_11
REMARK    6  A    between atoms: C_11  and  C_12
REMARK    7  A    between atoms: C_22  and  S_23
REMARK    8  A    between atoms: S_23  and  N_26
REMARK                            x       y       z     vdW  Elec       q    Type
REMARK                         _______ _______ _______ _____ _____    ______ ____
ROOT
ATOM      1  C   UNL     1       2.874   4.453  20.301  0.00  0.00    +0.000 A 
ATOM      2  C   UNL     1       1.836   5.147  20.948  0.00  0.00    +0.000 A 
ATOM      3  C   UNL     1       1.428   6.431  20.573  0.00  0.00    +0.000 A 
ATOM      4  C   UNL     1       2.083   7.106  19.565  0.00  0.00    +0.000 A 
ATOM      5  C   UNL     1       3.138   6.457  18.919  0.00  0.00    +0.000 A 
ATOM      6  C   UNL     1       3.541   5.140  19.277  0.00  0.00    +0.000 A 
ENDROOT
BRANCH   4   7
ATOM      7  N   UNL     1       1.721   8.409  19.159  0.00  0.00    +0.000 N 
ATOM      8  C   UNL     1       1.122   9.366  19.961  0.00  0.00    +0.000 C 
ATOM      9  O   UNL     1       0.873   9.284  21.156  0.00  0.00    +0.000 OA
ATOM     10  H   UNL     1       1.959   8.685  18.215  0.00  0.00    +0.000 HD
BRANCH   8  11
ATOM     11  C   UNL     1       0.755  10.636  19.243  0.00  0.00    +0.000 C 
ATOM     12  C   UNL     1       1.830  11.230  18.326  0.00  0.00    +0.000 C 
ATOM     13  C   UNL     1       1.497  11.921  19.605  0.00  0.00    +0.000 C 
BRANCH  11  14
ATOM     14  C   UNL     1      -0.682  10.763  18.747  0.00  0.00    +0.000 A 
ATOM     15  C   UNL     1      -1.597  11.626  19.370  0.00  0.00    +0.000 A 
ATOM     16  C   UNL     1      -2.842  11.896  18.797  0.00  0.00    +0.000 A 
ATOM     17  C   UNL     1      -3.198  11.296  17.592  0.00  0.00    +0.000 A 
ATOM     18  C   UNL     1      -2.336  10.378  17.001  0.00  0.00    +0.000 A 
ATOM     19 CL   UNL     1      -2.764   9.640  15.506  0.00  0.00    +0.000 Cl
ATOM     20  C   UNL     1      -1.103  10.092  17.584  0.00  0.00    +0.000 A 
ENDBRANCH  11  14
ENDBRANCH   8  11
ENDBRANCH   4   7
BRANCH   6  21
ATOM     21  S   UNL     1       4.839   4.528  18.216  0.00  0.00    +0.000 S 
ATOM     22  O   UNL     1       5.853   4.053  19.143  0.00  0.00    +0.000 OA
ATOM     23  O   UNL     1       4.202   3.596  17.307  0.00  0.00    +0.000 OA
BRANCH  21  24
ATOM     24  N   UNL     1       5.566   5.740  17.267  0.00  0.00    +0.000 NA
ATOM     25  C   UNL     1       5.011   5.951  15.904  0.00  0.00    +0.000 C 
ATOM     26  C   UNL     1       5.895   5.119  14.987  0.00  0.00    +0.000 C 
ATOM     27  C   UNL     1       7.275   5.233  15.601  0.00  0.00    +0.000 C 
ATOM     28  C   UNL     1       7.042   5.525  17.078  0.00  0.00    +0.000 C 
ENDBRANCH  21  24
ENDBRANCH   6  21
BRANCH   1  29
ATOM     29  O   UNL     1       3.197   3.165  20.648  0.00  0.00    +0.000 OA
BRANCH  29  31
ATOM     30  C   UNL     1       1.606   2.010  19.197  0.00  0.00    +0.000 C 
ATOM     31  C   UNL     1       2.084   2.247  20.611  0.00  0.00    +0.000 C 
ENDBRANCH  29  31
ENDBRANCH   1  29
TORSDOF 7
ENDMDL
MODEL 9
REMARK VINA RESULT:      -8.1      1.634      2.226
REMARK  Name = 
REMARK  8 active torsions:
REMARK  status: ('A' for Active; 'I' for Inactive)
REMARK    1  A    between atoms: C_1  and  C_2
REMARK    2  A    between atoms: C_2  and  O_3
REMARK    3  A    between atoms: O_3  and  C_4
REMARK    4  A    between atoms: C_7  and  N_8
REMARK    5  A    between atoms: C_9  and  C_11
REMARK    6  A    between atoms: C_11  and  C_12
REMARK    7  A    between atoms: C_22  and  S_23
REMARK    8  A    between atoms: S_23  and  N_26
REMARK                            x       y       z     vdW  Elec       q    Type
REMARK                         _______ _______ _______ _____ _____    ______ ____
ROOT
ATOM      1  C   UNL     1       3.794   5.494  18.566  0.00  0.00    +0.000 A 
ATOM      2  C   UNL     1       2.704   5.759  19.415  0.00  0.00    +0.000 A 
ATOM      3  C   UNL     1       1.986   6.959  19.382  0.00  0.00    +0.000 A 
ATOM      4  C   UNL     1       2.364   7.977  18.533  0.00  0.00    +0.000 A 
ATOM      5  C   UNL     1       3.460   7.757  17.694  0.00  0.00    +0.000 A 
ATOM      6  C   UNL     1       4.179   6.530  17.703  0.00  0.00    +0.000 A 
ENDROOT
BRANCH   4   7
ATOM      7  N   UNL     1       1.683   9.212  18.471  0.00  0.00    +0.000 N 
ATOM      8  C   UNL     1       0.978   9.796  19.511  0.00  0.00    +0.000 C 
ATOM      9  O   UNL     1       0.882   9.393  20.662  0.00  0.00    +0.000 OA
ATOM     10  H   UNL     1       1.753   9.739  17.610  0.00  0.00    +0.000 HD
BRANCH   8  11
ATOM     11  C   UNL     1       0.265  11.068  19.140  0.00  0.00    +0.000 C 
ATOM     12  C   UNL     1       1.150  12.222  18.653  0.00  0.00    +0.000 C 
ATOM     13  C   UNL     1       0.502  12.312  19.992  0.00  0.00    +0.000 C 
BRANCH  11  14
ATOM     14  C   UNL     1      -1.084  10.930  18.444  0.00  0.00    +0.000 A 
ATOM     15  C   UNL     1      -1.291   9.981  17.430  0.00  0.00    +0.000 A 
ATOM     16  C   UNL     1      -2.571   9.713  16.940  0.00  0.00    +0.000 A 
ATOM     17  C   UNL     1      -3.669  10.402  17.449  0.00  0.00    +0.000 A 
ATOM     18  C   UNL     1      -3.474  11.401  18.398  0.00  0.00    +0.000 A 
ATOM     19 CL   UNL     1      -4.828  12.249  19.040  0.00  0.00    +0.000 Cl
ATOM     20  C   UNL     1      -2.195  11.682  18.871  0.00  0.00    +0.000 A 
ENDBRANCH  11  14
ENDBRANCH   8  11
ENDBRANCH   4   7
BRANCH   6  21
ATOM     21  S   UNL     1       5.458   6.496  16.458  0.00  0.00    +0.000 S 
ATOM     22  O   UNL     1       4.809   7.042  15.277  0.00  0.00    +0.000 OA
ATOM     23  O   UNL     1       6.594   7.183  17.038  0.00  0.00    +0.000 OA
BRANCH  21  24
ATOM     24  N   UNL     1       5.970   4.923  16.057  0.00  0.00    +0.000 NA
ATOM     25  C   UNL     1       7.358   4.779  15.542  0.00  0.00    +0.000 C 
ATOM     26  C   UNL     1       7.218   4.799  14.027  0.00  0.00    +0.000 C 
ATOM     27  C   UNL     1       5.909   4.083  13.767  0.00  0.00    +0.000 C 
ATOM     28  C   UNL     1       5.085   4.265  15.036  0.00  0.00    +0.000 C 
ENDBRANCH  21  24
ENDBRANCH   6  21
BRANCH   1  29
ATOM     29  O   UNL     1       4.426   4.276  18.576  0.00  0.00    +0.000 OA
BRANCH  29  31
ATOM     30  C   UNL     1       2.639   3.152  17.345  0.00  0.00    +0.000 C 
ATOM     31  C   UNL     1       3.531   3.145  18.566  0.00  0.00    +0.000 C 
ENDBRANCH  29  31
ENDBRANCH   1  29
TORSDOF 7
ENDMDL
