MODEL 1
REMARK VINA RESULT:      -9.1      0.000      0.000
REMARK  Name = 
REMARK  4 active torsions:
REMARK  status: ('A' for Active; 'I' for Inactive)
REMARK    1  A    between atoms: C_2  and  C_3
REMARK    2  A    between atoms: C_3  and  C_4
REMARK    3  A    between atoms: C_4  and  C_5
REMARK    4  A    between atoms: C_20  and  C_21
REMARK                            x       y       z     vdW  Elec       q    Type
REMARK                         _______ _______ _______ _____ _____    ______ ____
ROOT
ATOM      1  O   UNL     1       5.252   7.690  17.656  0.00  0.00    +0.000 OA
ATOM      2  C   UNL     1       6.228   7.055  17.300  0.00  0.00    +0.000 C 
ATOM      3  N   UNL     1       6.165   5.723  16.918  0.00  0.00    +0.000 N 
ATOM      4  C   UNL     1       7.313   4.949  16.510  0.00  0.00    +0.000 C 
ATOM      5  C   UNL     1       6.833   4.167  15.317  0.00  0.00    +0.000 C 
ATOM      6  C   UNL     1       5.378   3.867  15.650  0.00  0.00    +0.000 C 
ATOM      7  C   UNL     1       4.914   5.057  16.521  0.00  0.00    +0.000 C 
ENDROOT
BRANCH   7   8
ATOM      8  C   UNL     1       4.089   4.604  17.691  0.00  0.00    +0.000 A 
ATOM      9  N   UNL     1       4.464   3.678  18.559  0.00  0.00    +0.000 NA
ATOM     10  C   UNL     1       3.477   3.496  19.508  0.00  0.00    +0.000 A 
ATOM     11  C   UNL     1       3.540   2.603  20.598  0.00  0.00    +0.000 A 
ATOM     12  C   UNL     1       2.464   2.520  21.486  0.00  0.00    +0.000 A 
ATOM     13  C   UNL     1       1.332   3.307  21.305  0.00  0.00    +0.000 A 
ATOM     14  C   UNL     1       1.246   4.196  20.230  0.00  0.00    +0.000 A 
ATOM     15  C   UNL     1       2.330   4.273  19.345  0.00  0.00    +0.000 A 
ATOM     16  S   UNL     1       2.523   5.256  17.942  0.00  0.00    +0.000 S 
ENDBRANCH   7   8
BRANCH   2  17
ATOM     17  C   UNL     1       7.587   7.727  17.113  0.00  0.00    +0.000 C 
BRANCH  17  18
ATOM     18  C   UNL     1       8.249   8.059  18.437  0.00  0.00    +0.000 C 
BRANCH  18  19
ATOM     19  C   UNL     1       8.611   9.520  18.516  0.00  0.00    +0.000 A 
ATOM     20  N   UNL     1       9.518   9.927  19.343  0.00  0.00    +0.000 NA
ATOM     21  C   UNL     1       9.829  11.302  19.349  0.00  0.00    +0.000 A 
ATOM     22  C   UNL     1      10.823  11.769  20.215  0.00  0.00    +0.000 A 
ATOM     23  C   UNL     1      11.165  13.126  20.242  0.00  0.00    +0.000 A 
ATOM     24  C   UNL     1      10.519  14.031  19.400  0.00  0.00    +0.000 A 
ATOM     25  C   UNL     1       9.526  13.581  18.529  0.00  0.00    +0.000 A 
ATOM     26  C   UNL     1       9.190  12.223  18.516  0.00  0.00    +0.000 A 
ATOM     27  C   UNL     1       8.146  11.704  17.614  0.00  0.00    +0.000 A 
ATOM     28  O   UNL     1       7.546  12.434  16.838  0.00  0.00    +0.000 OA
ATOM     29  N   UNL     1       7.929  10.361  17.686  0.00  0.00    +0.000 N 
ATOM     30  H   UNL     1       7.196   9.996  17.072  0.00  0.00    +0.000 HD
ENDBRANCH  18  19
ENDBRANCH  17  18
ENDBRANCH   2  17
TORSDOF 4
ENDMDL
MODEL 2
REMARK VINA RESULT:      -9.0      5.324      7.765
REMARK  Name = 
REMARK  4 active torsions:
REMARK  status: ('A' for Active; 'I' for Inactive)
REMARK    1  A    between atoms: C_2  and  C_3
REMARK    2  A    between atoms: C_3  and  C_4
REMARK    3  A    between atoms: C_4  and  C_5
REMARK    4  A    between atoms: C_20  and  C_21
REMARK                            x       y       z     vdW  Elec       q    Type
REMARK                         _______ _______ _______ _____ _____    ______ ____
ROOT
ATOM      1  O   UNL     1       4.476   7.558  17.519  0.00  0.00    +0.000 OA
ATOM      2  C   UNL     1       3.528   6.853  17.813  0.00  0.00    +0.000 C 
ATOM      3  N   UNL     1       3.569   5.468  17.755  0.00  0.00    +0.000 N 
ATOM      4  C   UNL     1       2.450   4.617  18.083  0.00  0.00    +0.000 C 
ATOM      5  C   UNL     1       3.054   3.498  18.890  0.00  0.00    +0.000 C 
ATOM      6  C   UNL     1       4.425   3.302  18.257  0.00  0.00    +0.000 C 
ATOM      7  C   UNL     1       4.824   4.700  17.729  0.00  0.00    +0.000 C 
ENDROOT
BRANCH   7   8
ATOM      8  C   UNL     1       5.441   4.624  16.362  0.00  0.00    +0.000 A 
ATOM      9  N   UNL     1       4.967   3.895  15.364  0.00  0.00    +0.000 NA
ATOM     10  C   UNL     1       5.768   4.046  14.250  0.00  0.00    +0.000 A 
ATOM     11  C   UNL     1       5.556   3.434  12.996  0.00  0.00    +0.000 A 
ATOM     12  C   UNL     1       6.450   3.676  11.949  0.00  0.00    +0.000 A 
ATOM     13  C   UNL     1       7.546   4.511  12.131  0.00  0.00    +0.000 A 
ATOM     14  C   UNL     1       7.779   5.126  13.365  0.00  0.00    +0.000 A 
ATOM     15  C   UNL     1       6.877   4.878  14.409  0.00  0.00    +0.000 A 
ATOM     16  S   UNL     1       6.891   5.477  16.025  0.00  0.00    +0.000 S 
ENDBRANCH   7   8
BRANCH   2  17
ATOM     17  C   UNL     1       2.252   7.447  18.408  0.00  0.00    +0.000 C 
BRANCH  17  18
ATOM     18  C   UNL     1       1.958   8.832  17.863  0.00  0.00    +0.000 C 
BRANCH  18  19
ATOM     19  C   UNL     1       1.099   9.623  18.816  0.00  0.00    +0.000 A 
ATOM     20  N   UNL     1       0.941   9.230  20.037  0.00  0.00    +0.000 NA
ATOM     21  C   UNL     1       0.147  10.030  20.885  0.00  0.00    +0.000 A 
ATOM     22  C   UNL     1      -0.024   9.645  22.219  0.00  0.00    +0.000 A 
ATOM     23  C   UNL     1      -0.797  10.418  23.091  0.00  0.00    +0.000 A 
ATOM     24  C   UNL     1      -1.407  11.590  22.641  0.00  0.00    +0.000 A 
ATOM     25  C   UNL     1      -1.245  11.989  21.314  0.00  0.00    +0.000 A 
ATOM     26  C   UNL     1      -0.474  11.204  20.450  0.00  0.00    +0.000 A 
ATOM     27  C   UNL     1      -0.279  11.586  19.040  0.00  0.00    +0.000 A 
ATOM     28  O   UNL     1      -0.770  12.606  18.576  0.00  0.00    +0.000 OA
ATOM     29  N   UNL     1       0.509  10.746  18.312  0.00  0.00    +0.000 N 
ATOM     30  H   UNL     1       0.638  10.999  17.329  0.00  0.00    +0.000 HD
ENDBRANCH  18  19
ENDBRANCH  17  18
ENDBRANCH   2  17
TORSDOF 4
ENDMDL
MODEL 3
REMARK VINA RESULT:      -8.7      5.067      7.485
REMARK  Name = 
REMARK  4 active torsions:
REMARK  status: ('A' for Active; 'I' for Inactive)
REMARK    1  A    between atoms: C_2  and  C_3
REMARK    2  A    between atoms: C_3  and  C_4
REMARK    3  A    between atoms: C_4  and  C_5
REMARK    4  A    between atoms: C_20  and  C_21
REMARK                            x       y       z     vdW  Elec       q    Type
REMARK                         _______ _______ _______ _____ _____    ______ ____
ROOT
ATOM      1  O   UNL     1       1.887   5.106  21.379  0.00  0.00    +0.000 OA
ATOM      2  C   UNL     1       1.843   4.917  20.178  0.00  0.00    +0.000 C 
ATOM      3  N   UNL     1       2.014   5.930  19.246  0.00  0.00    +0.000 N 
ATOM      4  C   UNL     1       1.947   5.727  17.818  0.00  0.00    +0.000 C 
ATOM      5  C   UNL     1       3.091   6.539  17.271  0.00  0.00    +0.000 C 
ATOM      6  C   UNL     1       3.150   7.743  18.200  0.00  0.00    +0.000 C 
ATOM      7  C   UNL     1       2.647   7.219  19.565  0.00  0.00    +0.000 C 
ENDROOT
BRANCH   7   8
ATOM      8  C   UNL     1       1.710   8.190  20.224  0.00  0.00    +0.000 A 
ATOM      9  N   UNL     1       1.337   8.128  21.493  0.00  0.00    +0.000 NA
ATOM     10  C   UNL     1       0.470   9.164  21.778  0.00  0.00    +0.000 A 
ATOM     11  C   UNL     1      -0.114   9.425  23.037  0.00  0.00    +0.000 A 
ATOM     12  C   UNL     1      -0.977  10.513  23.186  0.00  0.00    +0.000 A 
ATOM     13  C   UNL     1      -1.268  11.341  22.108  0.00  0.00    +0.000 A 
ATOM     14  C   UNL     1      -0.705  11.101  20.851  0.00  0.00    +0.000 A 
ATOM     15  C   UNL     1       0.160  10.007  20.711  0.00  0.00    +0.000 A 
ATOM     16  S   UNL     1       0.999   9.455  19.310  0.00  0.00    +0.000 S 
ENDBRANCH   7   8
BRANCH   2  17
ATOM     17  C   UNL     1       1.732   3.506  19.600  0.00  0.00    +0.000 C 
BRANCH  17  18
ATOM     18  C   UNL     1       3.022   2.722  19.751  0.00  0.00    +0.000 C 
BRANCH  18  19
ATOM     19  C   UNL     1       4.137   3.343  18.950  0.00  0.00    +0.000 A 
ATOM     20  N   UNL     1       4.188   3.187  17.668  0.00  0.00    +0.000 NA
ATOM     21  C   UNL     1       5.241   3.816  16.973  0.00  0.00    +0.000 A 
ATOM     22  C   UNL     1       5.311   3.686  15.582  0.00  0.00    +0.000 A 
ATOM     23  C   UNL     1       6.337   4.303  14.858  0.00  0.00    +0.000 A 
ATOM     24  C   UNL     1       7.304   5.063  15.517  0.00  0.00    +0.000 A 
ATOM     25  C   UNL     1       7.248   5.204  16.904  0.00  0.00    +0.000 A 
ATOM     26  C   UNL     1       6.221   4.577  17.616  0.00  0.00    +0.000 A 
ATOM     27  C   UNL     1       6.124   4.696  19.082  0.00  0.00    +0.000 A 
ATOM     28  O   UNL     1       6.927   5.356  19.727  0.00  0.00    +0.000 OA
ATOM     29  N   UNL     1       5.066   4.054  19.652  0.00  0.00    +0.000 N 
ATOM     30  H   UNL     1       5.001   4.122  20.670  0.00  0.00    +0.000 HD
ENDBRANCH  18  19
ENDBRANCH  17  18
ENDBRANCH   2  17
TORSDOF 4
ENDMDL
MODEL 4
REMARK VINA RESULT:      -8.7      5.396      7.927
REMARK  Name = 
REMARK  4 active torsions:
REMARK  status: ('A' for Active; 'I' for Inactive)
REMARK    1  A    between atoms: C_2  and  C_3
REMARK    2  A    between atoms: C_3  and  C_4
REMARK    3  A    between atoms: C_4  and  C_5
REMARK    4  A    between atoms: C_20  and  C_21
REMARK                            x       y       z     vdW  Elec       q    Type
REMARK                         _______ _______ _______ _____ _____    ______ ____
ROOT
ATOM      1  O   UNL     1       4.414   7.454  17.677  0.00  0.00    +0.000 OA
ATOM      2  C   UNL     1       3.456   6.743  17.919  0.00  0.00    +0.000 C 
ATOM      3  N   UNL     1       3.491   5.361  17.802  0.00  0.00    +0.000 N 
ATOM      4  C   UNL     1       2.361   4.504  18.067  0.00  0.00    +0.000 C 
ATOM      5  C   UNL     1       2.941   3.347  18.837  0.00  0.00    +0.000 C 
ATOM      6  C   UNL     1       4.325   3.171  18.227  0.00  0.00    +0.000 C 
ATOM      7  C   UNL     1       4.743   4.588  17.770  0.00  0.00    +0.000 C 
ENDROOT
BRANCH   7   8
ATOM      8  C   UNL     1       5.390   4.568  16.416  0.00  0.00    +0.000 A 
ATOM      9  N   UNL     1       4.943   3.873  15.381  0.00  0.00    +0.000 NA
ATOM     10  C   UNL     1       5.768   4.073  14.291  0.00  0.00    +0.000 A 
ATOM     11  C   UNL     1       5.588   3.506  13.011  0.00  0.00    +0.000 A 
ATOM     12  C   UNL     1       6.502   3.794  11.994  0.00  0.00    +0.000 A 
ATOM     13  C   UNL     1       7.588   4.629  12.231  0.00  0.00    +0.000 A 
ATOM     14  C   UNL     1       7.789   5.199  13.492  0.00  0.00    +0.000 A 
ATOM     15  C   UNL     1       6.866   4.905  14.505  0.00  0.00    +0.000 A 
ATOM     16  S   UNL     1       6.840   5.442  16.143  0.00  0.00    +0.000 S 
ENDBRANCH   7   8
BRANCH   2  17
ATOM     17  C   UNL     1       2.170   7.318  18.511  0.00  0.00    +0.000 C 
BRANCH  17  18
ATOM     18  C   UNL     1       2.200   7.349  20.027  0.00  0.00    +0.000 C 
BRANCH  18  19
ATOM     19  C   UNL     1       1.362   8.479  20.568  0.00  0.00    +0.000 A 
ATOM     20  N   UNL     1       0.753   9.287  19.764  0.00  0.00    +0.000 NA
ATOM     21  C   UNL     1      -0.037  10.306  20.335  0.00  0.00    +0.000 A 
ATOM     22  C   UNL     1      -0.728  11.182  19.491  0.00  0.00    +0.000 A 
ATOM     23  C   UNL     1      -1.529  12.200  20.021  0.00  0.00    +0.000 A 
ATOM     24  C   UNL     1      -1.652  12.351  21.402  0.00  0.00    +0.000 A 
ATOM     25  C   UNL     1      -0.970  11.485  22.258  0.00  0.00    +0.000 A 
ATOM     26  C   UNL     1      -0.168  10.475  21.715  0.00  0.00    +0.000 A 
ATOM     27  C   UNL     1       0.572   9.539  22.580  0.00  0.00    +0.000 A 
ATOM     28  O   UNL     1       0.503   9.601  23.800  0.00  0.00    +0.000 OA
ATOM     29  N   UNL     1       1.300   8.591  21.927  0.00  0.00    +0.000 N 
ATOM     30  H   UNL     1       1.826   7.947  22.522  0.00  0.00    +0.000 HD
ENDBRANCH  18  19
ENDBRANCH  17  18
ENDBRANCH   2  17
TORSDOF 4
ENDMDL
MODEL 5
REMARK VINA RESULT:      -8.7      1.084      1.793
REMARK  Name = 
REMARK  4 active torsions:
REMARK  status: ('A' for Active; 'I' for Inactive)
REMARK    1  A    between atoms: C_2  and  C_3
REMARK    2  A    between atoms: C_3  and  C_4
REMARK    3  A    between atoms: C_4  and  C_5
REMARK    4  A    between atoms: C_20  and  C_21
REMARK                            x       y       z     vdW  Elec       q    Type
REMARK                         _______ _______ _______ _____ _____    ______ ____
ROOT
ATOM      1  O   UNL     1       5.250   7.660  17.653  0.00  0.00    +0.000 OA
ATOM      2  C   UNL     1       6.206   7.018  17.260  0.00  0.00    +0.000 C 
ATOM      3  N   UNL     1       6.114   5.693  16.858  0.00  0.00    +0.000 N 
ATOM      4  C   UNL     1       7.239   4.911  16.406  0.00  0.00    +0.000 C 
ATOM      5  C   UNL     1       6.716   4.156  15.213  0.00  0.00    +0.000 C 
ATOM      6  C   UNL     1       5.266   3.872  15.579  0.00  0.00    +0.000 C 
ATOM      7  C   UNL     1       4.843   5.053  16.483  0.00  0.00    +0.000 C 
ENDROOT
BRANCH   7   8
ATOM      8  C   UNL     1       4.043   4.592  17.666  0.00  0.00    +0.000 A 
ATOM      9  N   UNL     1       4.439   3.665  18.524  0.00  0.00    +0.000 NA
ATOM     10  C   UNL     1       3.471   3.475  19.490  0.00  0.00    +0.000 A 
ATOM     11  C   UNL     1       3.559   2.579  20.577  0.00  0.00    +0.000 A 
ATOM     12  C   UNL     1       2.500   2.487  21.484  0.00  0.00    +0.000 A 
ATOM     13  C   UNL     1       1.360   3.267  21.326  0.00  0.00    +0.000 A 
ATOM     14  C   UNL     1       1.249   4.159  20.255  0.00  0.00    +0.000 A 
ATOM     15  C   UNL     1       2.316   4.245  19.350  0.00  0.00    +0.000 A 
ATOM     16  S   UNL     1       2.477   5.233  17.947  0.00  0.00    +0.000 S 
ENDBRANCH   7   8
BRANCH   2  17
ATOM     17  C   UNL     1       7.571   7.674  17.048  0.00  0.00    +0.000 C 
BRANCH  17  18
ATOM     18  C   UNL     1       8.276   7.963  18.360  0.00  0.00    +0.000 C 
BRANCH  18  19
ATOM     19  C   UNL     1       8.560   9.435  18.515  0.00  0.00    +0.000 A 
ATOM     20  N   UNL     1       8.003  10.297  17.729  0.00  0.00    +0.000 NA
ATOM     21  C   UNL     1       8.288  11.660  17.945  0.00  0.00    +0.000 A 
ATOM     22  C   UNL     1       7.682  12.619  17.127  0.00  0.00    +0.000 A 
ATOM     23  C   UNL     1       7.935  13.982  17.317  0.00  0.00    +0.000 A 
ATOM     24  C   UNL     1       8.795  14.403  18.332  0.00  0.00    +0.000 A 
ATOM     25  C   UNL     1       9.407  13.460  19.158  0.00  0.00    +0.000 A 
ATOM     26  C   UNL     1       9.150  12.100  18.953  0.00  0.00    +0.000 A 
ATOM     27  C   UNL     1       9.776  11.068  19.800  0.00  0.00    +0.000 A 
ATOM     28  O   UNL     1      10.531  11.361  20.717  0.00  0.00    +0.000 OA
ATOM     29  N   UNL     1       9.428   9.784  19.509  0.00  0.00    +0.000 N 
ATOM     30  H   UNL     1       9.869   9.063  20.084  0.00  0.00    +0.000 HD
ENDBRANCH  18  19
ENDBRANCH  17  18
ENDBRANCH   2  17
TORSDOF 4
ENDMDL
MODEL 6
REMARK VINA RESULT:      -8.5      5.027      7.785
REMARK  Name = 
REMARK  4 active torsions:
REMARK  status: ('A' for Active; 'I' for Inactive)
REMARK    1  A    between atoms: C_2  and  C_3
REMARK    2  A    between atoms: C_3  and  C_4
REMARK    3  A    between atoms: C_4  and  C_5
REMARK    4  A    between atoms: C_20  and  C_21
REMARK                            x       y       z     vdW  Elec       q    Type
REMARK                         _______ _______ _______ _____ _____    ______ ____
ROOT
ATOM      1  O   UNL     1       4.389   7.851  17.139  0.00  0.00    +0.000 OA
ATOM      2  C   UNL     1       3.653   7.091  17.739  0.00  0.00    +0.000 C 
ATOM      3  N   UNL     1       3.960   5.756  17.959  0.00  0.00    +0.000 N 
ATOM      4  C   UNL     1       3.092   4.836  18.652  0.00  0.00    +0.000 C 
ATOM      5  C   UNL     1       4.014   4.051  19.546  0.00  0.00    +0.000 C 
ATOM      6  C   UNL     1       5.293   3.938  18.728  0.00  0.00    +0.000 C 
ATOM      7  C   UNL     1       5.327   5.219  17.862  0.00  0.00    +0.000 C 
ENDROOT
BRANCH   7   8
ATOM      8  C   UNL     1       5.747   4.926  16.451  0.00  0.00    +0.000 A 
ATOM      9  N   UNL     1       6.693   5.585  15.798  0.00  0.00    +0.000 NA
ATOM     10  C   UNL     1       6.830   5.070  14.525  0.00  0.00    +0.000 A 
ATOM     11  C   UNL     1       7.755   5.512  13.555  0.00  0.00    +0.000 A 
ATOM     12  C   UNL     1       7.787   4.899  12.300  0.00  0.00    +0.000 A 
ATOM     13  C   UNL     1       6.916   3.859  11.996  0.00  0.00    +0.000 A 
ATOM     14  C   UNL     1       5.989   3.406  12.940  0.00  0.00    +0.000 A 
ATOM     15  C   UNL     1       5.964   4.027  14.196  0.00  0.00    +0.000 A 
ATOM     16  S   UNL     1       4.950   3.703  15.551  0.00  0.00    +0.000 S 
ENDBRANCH   7   8
BRANCH   2  17
ATOM     17  C   UNL     1       2.380   7.591  18.421  0.00  0.00    +0.000 C 
BRANCH  17  18
ATOM     18  C   UNL     1       1.902   8.911  17.845  0.00  0.00    +0.000 C 
BRANCH  18  19
ATOM     19  C   UNL     1       1.044   9.660  18.831  0.00  0.00    +0.000 A 
ATOM     20  N   UNL     1       0.915   9.234  20.045  0.00  0.00    +0.000 NA
ATOM     21  C   UNL     1       0.120   9.996  20.925  0.00  0.00    +0.000 A 
ATOM     22  C   UNL     1      -0.020   9.574  22.251  0.00  0.00    +0.000 A 
ATOM     23  C   UNL     1      -0.794  10.309  23.156  0.00  0.00    +0.000 A 
ATOM     24  C   UNL     1      -1.435  11.479  22.746  0.00  0.00    +0.000 A 
ATOM     25  C   UNL     1      -1.304  11.915  21.426  0.00  0.00    +0.000 A 
ATOM     26  C   UNL     1      -0.532  11.167  20.531  0.00  0.00    +0.000 A 
ATOM     27  C   UNL     1      -0.368  11.587  19.127  0.00  0.00    +0.000 A 
ATOM     28  O   UNL     1      -0.889  12.608  18.698  0.00  0.00    +0.000 OA
ATOM     29  N   UNL     1       0.424  10.783  18.365  0.00  0.00    +0.000 N 
ATOM     30  H   UNL     1       0.530  11.062  17.387  0.00  0.00    +0.000 HD
ENDBRANCH  18  19
ENDBRANCH  17  18
ENDBRANCH   2  17
TORSDOF 4
ENDMDL
MODEL 7
REMARK VINA RESULT:      -8.4      5.338      8.109
REMARK  Name = 
REMARK  4 active torsions:
REMARK  status: ('A' for Active; 'I' for Inactive)
REMARK    1  A    between atoms: C_2  and  C_3
REMARK    2  A    between atoms: C_3  and  C_4
REMARK    3  A    between atoms: C_4  and  C_5
REMARK    4  A    between atoms: C_20  and  C_21
REMARK                            x       y       z     vdW  Elec       q    Type
REMARK                         _______ _______ _______ _____ _____    ______ ____
ROOT
ATOM      1  O   UNL     1       4.586   7.471  17.703  0.00  0.00    +0.000 OA
ATOM      2  C   UNL     1       3.551   6.856  17.886  0.00  0.00    +0.000 C 
ATOM      3  N   UNL     1       3.445   5.485  17.707  0.00  0.00    +0.000 N 
ATOM      4  C   UNL     1       2.223   4.742  17.902  0.00  0.00    +0.000 C 
ATOM      5  C   UNL     1       2.652   3.499  18.635  0.00  0.00    +0.000 C 
ATOM      6  C   UNL     1       4.029   3.203  18.056  0.00  0.00    +0.000 C 
ATOM      7  C   UNL     1       4.608   4.585  17.675  0.00  0.00    +0.000 C 
ENDROOT
BRANCH   7   8
ATOM      8  C   UNL     1       5.293   4.553  16.339  0.00  0.00    +0.000 A 
ATOM      9  N   UNL     1       4.868   3.860  15.294  0.00  0.00    +0.000 NA
ATOM     10  C   UNL     1       5.725   4.046  14.228  0.00  0.00    +0.000 A 
ATOM     11  C   UNL     1       5.576   3.477  12.945  0.00  0.00    +0.000 A 
ATOM     12  C   UNL     1       6.521   3.750  11.953  0.00  0.00    +0.000 A 
ATOM     13  C   UNL     1       7.609   4.575  12.218  0.00  0.00    +0.000 A 
ATOM     14  C   UNL     1       7.780   5.147  13.482  0.00  0.00    +0.000 A 
ATOM     15  C   UNL     1       6.826   4.867  14.470  0.00  0.00    +0.000 A 
ATOM     16  S   UNL     1       6.760   5.411  16.105  0.00  0.00    +0.000 S 
ENDBRANCH   7   8
BRANCH   2  17
ATOM     17  C   UNL     1       2.314   7.540  18.467  0.00  0.00    +0.000 C 
BRANCH  17  18
ATOM     18  C   UNL     1       1.871   8.727  17.633  0.00  0.00    +0.000 C 
BRANCH  18  19
ATOM     19  C   UNL     1       0.926   9.614  18.401  0.00  0.00    +0.000 A 
ATOM     20  N   UNL     1      -0.212   9.956  17.893  0.00  0.00    +0.000 NA
ATOM     21  C   UNL     1      -1.062  10.764  18.675  0.00  0.00    +0.000 A 
ATOM     22  C   UNL     1      -2.311  11.131  18.162  0.00  0.00    +0.000 A 
ATOM     23  C   UNL     1      -3.185  11.926  18.913  0.00  0.00    +0.000 A 
ATOM     24  C   UNL     1      -2.821  12.360  20.188  0.00  0.00    +0.000 A 
ATOM     25  C   UNL     1      -1.579  12.002  20.715  0.00  0.00    +0.000 A 
ATOM     26  C   UNL     1      -0.713  11.212  19.951  0.00  0.00    +0.000 A 
ATOM     27  C   UNL     1       0.609  10.812  20.466  0.00  0.00    +0.000 A 
ATOM     28  O   UNL     1       0.992  11.143  21.580  0.00  0.00    +0.000 OA
ATOM     29  N   UNL     1       1.347  10.027  19.632  0.00  0.00    +0.000 N 
ATOM     30  H   UNL     1       2.270   9.757  19.979  0.00  0.00    +0.000 HD
ENDBRANCH  18  19
ENDBRANCH  17  18
ENDBRANCH   2  17
TORSDOF 4
ENDMDL
MODEL 8
REMARK VINA RESULT:      -8.4      1.373      2.113
REMARK  Name = 
REMARK  4 active torsions:
REMARK  status: ('A' for Active; 'I' for Inactive)
REMARK    1  A    between atoms: C_2  and  C_3
REMARK    2  A    between atoms: C_3  and  C_4
REMARK    3  A    between atoms: C_4  and  C_5
REMARK    4  A    between atoms: C_20  and  C_21
REMARK                            x       y       z     vdW  Elec       q    Type
REMARK                         _______ _______ _______ _____ _____    ______ ____
ROOT
ATOM      1  O   UNL     1       5.463   7.706  17.623  0.00  0.00    +0.000 OA
ATOM      2  C   UNL     1       6.399   7.057  17.196  0.00  0.00    +0.000 C 
ATOM      3  N   UNL     1       6.252   5.796  16.634  0.00  0.00    +0.000 N 
ATOM      4  C   UNL     1       7.352   5.005  16.139  0.00  0.00    +0.000 C 
ATOM      5  C   UNL     1       6.846   4.428  14.843  0.00  0.00    +0.000 C 
ATOM      6  C   UNL     1       5.366   4.193  15.113  0.00  0.00    +0.000 C 
ATOM      7  C   UNL     1       4.967   5.284  16.133  0.00  0.00    +0.000 C 
ENDROOT
BRANCH   7   8
ATOM      8  C   UNL     1       4.085   4.738  17.218  0.00  0.00    +0.000 A 
ATOM      9  N   UNL     1       3.447   5.479  18.110  0.00  0.00    +0.000 NA
ATOM     10  C   UNL     1       2.728   4.669  18.966  0.00  0.00    +0.000 A 
ATOM     11  C   UNL     1       1.913   5.114  20.029  0.00  0.00    +0.000 A 
ATOM     12  C   UNL     1       1.238   4.181  20.820  0.00  0.00    +0.000 A 
ATOM     13  C   UNL     1       1.363   2.818  20.573  0.00  0.00    +0.000 A 
ATOM     14  C   UNL     1       2.168   2.353  19.528  0.00  0.00    +0.000 A 
ATOM     15  C   UNL     1       2.841   3.297  18.740  0.00  0.00    +0.000 A 
ATOM     16  S   UNL     1       3.894   3.043  17.400  0.00  0.00    +0.000 S 
ENDBRANCH   7   8
BRANCH   2  17
ATOM     17  C   UNL     1       7.807   7.647  17.120  0.00  0.00    +0.000 C 
BRANCH  17  18
ATOM     18  C   UNL     1       8.353   8.001  18.491  0.00  0.00    +0.000 C 
BRANCH  18  19
ATOM     19  C   UNL     1       8.634   9.478  18.603  0.00  0.00    +0.000 A 
ATOM     20  N   UNL     1       8.062  10.317  17.804  0.00  0.00    +0.000 NA
ATOM     21  C   UNL     1       8.347  11.687  17.979  0.00  0.00    +0.000 A 
ATOM     22  C   UNL     1       7.724  12.622  17.146  0.00  0.00    +0.000 A 
ATOM     23  C   UNL     1       7.977  13.990  17.296  0.00  0.00    +0.000 A 
ATOM     24  C   UNL     1       8.852  14.440  18.285  0.00  0.00    +0.000 A 
ATOM     25  C   UNL     1       9.480  13.520  19.126  0.00  0.00    +0.000 A 
ATOM     26  C   UNL     1       9.223  12.155  18.961  0.00  0.00    +0.000 A 
ATOM     27  C   UNL     1       9.866  11.147  19.824  0.00  0.00    +0.000 A 
ATOM     28  O   UNL     1      10.634  11.466  20.721  0.00  0.00    +0.000 OA
ATOM     29  N   UNL     1       9.517   9.855  19.573  0.00  0.00    +0.000 N 
ATOM     30  H   UNL     1       9.970   9.151  20.160  0.00  0.00    +0.000 HD
ENDBRANCH  18  19
ENDBRANCH  17  18
ENDBRANCH   2  17
TORSDOF 4
ENDMDL
MODEL 9
REMARK VINA RESULT:      -8.3      7.435     10.777
REMARK  Name = 
REMARK  4 active torsions:
REMARK  status: ('A' for Active; 'I' for Inactive)
REMARK    1  A    between atoms: C_2  and  C_3
REMARK    2  A    between atoms: C_3  and  C_4
REMARK    3  A    between atoms: C_4  and  C_5
REMARK    4  A    between atoms: C_20  and  C_21
REMARK                            x       y       z     vdW  Elec       q    Type
REMARK                         _______ _______ _______ _____ _____    ______ ____
ROOT
ATOM      1  O   UNL     1       1.008   9.954  22.912  0.00  0.00    +0.000 OA
ATOM      2  C   UNL     1       0.525   9.613  21.849  0.00  0.00    +0.000 C 
ATOM      3  N   UNL     1      -0.041  10.509  20.953  0.00  0.00    +0.000 N 
ATOM      4  C   UNL     1      -0.634  10.120  19.696  0.00  0.00    +0.000 C 
ATOM      5  C   UNL     1      -0.146  11.153  18.716  0.00  0.00    +0.000 C 
ATOM      6  C   UNL     1      -0.083  12.429  19.545  0.00  0.00    +0.000 C 
ATOM      7  C   UNL     1       0.227  11.955  20.984  0.00  0.00    +0.000 C 
ENDROOT
BRANCH   7   8
ATOM      8  C   UNL     1      -0.598  12.687  22.002  0.00  0.00    +0.000 A 
ATOM      9  N   UNL     1      -0.148  13.672  22.764  0.00  0.00    +0.000 NA
ATOM     10  C   UNL     1      -1.157  14.123  23.592  0.00  0.00    +0.000 A 
ATOM     11  C   UNL     1      -1.045  15.177  24.524  0.00  0.00    +0.000 A 
ATOM     12  C   UNL     1      -2.150  15.532  25.301  0.00  0.00    +0.000 A 
ATOM     13  C   UNL     1      -3.358  14.856  25.167  0.00  0.00    +0.000 A 
ATOM     14  C   UNL     1      -3.492  13.807  24.253  0.00  0.00    +0.000 A 
ATOM     15  C   UNL     1      -2.378  13.458  23.477  0.00  0.00    +0.000 A 
ATOM     16  S   UNL     1      -2.226  12.226  22.282  0.00  0.00    +0.000 S 
ENDBRANCH   7   8
BRANCH   2  17
ATOM     17  C   UNL     1       0.630   8.170  21.355  0.00  0.00    +0.000 C 
BRANCH  17  18
ATOM     18  C   UNL     1       1.866   7.944  20.506  0.00  0.00    +0.000 C 
BRANCH  18  19
ATOM     19  C   UNL     1       2.053   6.483  20.188  0.00  0.00    +0.000 A 
ATOM     20  N   UNL     1       2.242   6.097  18.969  0.00  0.00    +0.000 NA
ATOM     21  C   UNL     1       2.436   4.719  18.742  0.00  0.00    +0.000 A 
ATOM     22  C   UNL     1       2.667   4.271  17.437  0.00  0.00    +0.000 A 
ATOM     23  C   UNL     1       2.873   2.913  17.175  0.00  0.00    +0.000 A 
ATOM     24  C   UNL     1       2.855   1.984  18.216  0.00  0.00    +0.000 A 
ATOM     25  C   UNL     1       2.627   2.414  19.524  0.00  0.00    +0.000 A 
ATOM     26  C   UNL     1       2.417   3.774  19.772  0.00  0.00    +0.000 A 
ATOM     27  C   UNL     1       2.170   4.273  21.137  0.00  0.00    +0.000 A 
ATOM     28  O   UNL     1       2.153   3.522  22.102  0.00  0.00    +0.000 OA
ATOM     29  N   UNL     1       2.000   5.621  21.244  0.00  0.00    +0.000 N 
ATOM     30  H   UNL     1       1.816   5.971  22.187  0.00  0.00    +0.000 HD
ENDBRANCH  18  19
ENDBRANCH  17  18
ENDBRANCH   2  17
TORSDOF 4
ENDMDL
