MODEL 1
REMARK VINA RESULT:      -8.1      0.000      0.000
REMARK  Name = 
REMARK  4 active torsions:
REMARK  status: ('A' for Active; 'I' for Inactive)
REMARK    1  A    between atoms: N_1  and  C_2
REMARK    2  A    between atoms: C_7  and  C_8
REMARK    3  A    between atoms: N_10  and  C_11
REMARK    4  A    between atoms: C_14  and  C_15
REMARK                            x       y       z     vdW  Elec       q    Type
REMARK                         _______ _______ _______ _____ _____    ______ ____
ROOT
ATOM      1  C   UNL     1       7.872   7.564  18.326  0.00  0.00    +0.000 A 
ATOM      2  C   UNL     1       6.901   7.664  17.334  0.00  0.00    +0.000 A 
ATOM      3  C   UNL     1       5.944   6.658  17.164  0.00  0.00    +0.000 A 
ATOM      4  C   UNL     1       5.894   5.548  18.010  0.00  0.00    +0.000 A 
ATOM      5  C   UNL     1       6.915   5.418  18.965  0.00  0.00    +0.000 A 
ATOM      6  C   UNL     1       7.902   6.409  19.114  0.00  0.00    +0.000 A 
ENDROOT
BRANCH   4   7
ATOM      7  C   UNL     1       4.827   4.537  17.928  0.00  0.00    +0.000 A 
ATOM      8  N   UNL     1       4.813   3.534  17.061  0.00  0.00    +0.000 NA
ATOM      9  C   UNL     1       3.684   2.800  17.323  0.00  0.00    +0.000 A 
ATOM     10  C   UNL     1       2.989   3.332  18.381  0.00  0.00    +0.000 A 
ATOM     11  N   UNL     1       3.721   4.434  18.755  0.00  0.00    +0.000 N 
ATOM     12  C   UNL     1       3.325   5.306  19.847  0.00  0.00    +0.000 C 
ATOM     13  C   UNL     1       2.286   4.681  20.777  0.00  0.00    +0.000 C 
ATOM     14  C   UNL     1       1.178   4.014  19.964  0.00  0.00    +0.000 C 
ATOM     15  C   UNL     1       1.753   2.900  19.087  0.00  0.00    +0.000 C 
ENDBRANCH   4   7
BRANCH   1  18
ATOM     16  C   UNL     1       8.671   9.941  18.326  0.00  0.00    +0.000 C 
ATOM     17  O   UNL     1       7.694  10.485  17.822  0.00  0.00    +0.000 OA
ATOM     18  N   UNL     1       8.821   8.578  18.569  0.00  0.00    +0.000 N 
ATOM     19  H   UNL     1       9.687   8.320  19.036  0.00  0.00    +0.000 HD
BRANCH  16  25
ATOM     20  C   UNL     1      10.086  11.114  20.087  0.00  0.00    +0.000 A 
ATOM     21  N   UNL     1      11.151  11.878  20.421  0.00  0.00    +0.000 NA
ATOM     22  C   UNL     1      11.955  12.276  19.409  0.00  0.00    +0.000 A 
ATOM     23  C   UNL     1      11.724  11.924  18.092  0.00  0.00    +0.000 A 
ATOM     24  N   UNL     1      10.678  11.154  17.718  0.00  0.00    +0.000 NA
ATOM     25  C   UNL     1       9.858  10.756  18.745  0.00  0.00    +0.000 A 
BRANCH  20  26
ATOM     26  N   UNL     1       9.348  10.665  21.175  0.00  0.00    +0.000 N 
ATOM     27  H   UNL     1       9.526  11.264  21.975  0.00  0.00    +0.000 HD
ATOM     28  H   UNL     1       8.361  10.535  20.954  0.00  0.00    +0.000 HD
ENDBRANCH  20  26
ENDBRANCH  16  25
ENDBRANCH   1  18
TORSDOF 4
ENDMDL
MODEL 2
REMARK VINA RESULT:      -8.1      6.050      8.326
REMARK  Name = 
REMARK  4 active torsions:
REMARK  status: ('A' for Active; 'I' for Inactive)
REMARK    1  A    between atoms: N_1  and  C_2
REMARK    2  A    between atoms: C_7  and  C_8
REMARK    3  A    between atoms: N_10  and  C_11
REMARK    4  A    between atoms: C_14  and  C_15
REMARK                            x       y       z     vdW  Elec       q    Type
REMARK                         _______ _______ _______ _____ _____    ______ ____
ROOT
ATOM      1  C   UNL     1       1.306   9.101  19.689  0.00  0.00    +0.000 A 
ATOM      2  C   UNL     1       1.723   9.134  18.362  0.00  0.00    +0.000 A 
ATOM      3  C   UNL     1       2.394   8.046  17.794  0.00  0.00    +0.000 A 
ATOM      4  C   UNL     1       2.624   6.873  18.516  0.00  0.00    +0.000 A 
ATOM      5  C   UNL     1       2.262   6.869  19.872  0.00  0.00    +0.000 A 
ATOM      6  C   UNL     1       1.621   7.976  20.458  0.00  0.00    +0.000 A 
ENDROOT
BRANCH   4   7
ATOM      7  C   UNL     1       3.221   5.672  17.907  0.00  0.00    +0.000 A 
ATOM      8  N   UNL     1       2.555   4.557  17.647  0.00  0.00    +0.000 NA
ATOM      9  C   UNL     1       3.441   3.694  17.055  0.00  0.00    +0.000 A 
ATOM     10  C   UNL     1       4.677   4.279  16.919  0.00  0.00    +0.000 A 
ATOM     11  N   UNL     1       4.526   5.532  17.466  0.00  0.00    +0.000 N 
ATOM     12  C   UNL     1       5.612   6.493  17.538  0.00  0.00    +0.000 C 
ATOM     13  C   UNL     1       6.783   6.156  16.616  0.00  0.00    +0.000 C 
ATOM     14  C   UNL     1       7.138   4.674  16.725  0.00  0.00    +0.000 C 
ATOM     15  C   UNL     1       5.948   3.807  16.309  0.00  0.00    +0.000 C 
ENDBRANCH   4   7
BRANCH   1  18
ATOM     16  C   UNL     1      -0.689  10.600  19.930  0.00  0.00    +0.000 C 
ATOM     17  O   UNL     1      -1.375  10.177  19.005  0.00  0.00    +0.000 OA
ATOM     18  N   UNL     1       0.580  10.151  20.286  0.00  0.00    +0.000 N 
ATOM     19  H   UNL     1       0.974  10.595  21.113  0.00  0.00    +0.000 HD
BRANCH  16  25
ATOM     20  C   UNL     1      -2.156  12.637  20.355  0.00  0.00    +0.000 A 
ATOM     21  N   UNL     1      -2.567  13.641  21.163  0.00  0.00    +0.000 NA
ATOM     22  C   UNL     1      -2.004  13.702  22.391  0.00  0.00    +0.000 A 
ATOM     23  C   UNL     1      -1.061  12.788  22.826  0.00  0.00    +0.000 A 
ATOM     24  N   UNL     1      -0.632  11.765  22.053  0.00  0.00    +0.000 NA
ATOM     25  C   UNL     1      -1.198  11.708  20.804  0.00  0.00    +0.000 A 
BRANCH  20  26
ATOM     26  N   UNL     1      -2.830  12.574  19.142  0.00  0.00    +0.000 N 
ATOM     27  H   UNL     1      -2.904  11.606  18.846  0.00  0.00    +0.000 HD
ATOM     28  H   UNL     1      -3.714  13.082  19.158  0.00  0.00    +0.000 HD
ENDBRANCH  20  26
ENDBRANCH  16  25
ENDBRANCH   1  18
TORSDOF 4
ENDMDL
MODEL 3
REMARK VINA RESULT:      -7.9      6.486      8.692
REMARK  Name = 
REMARK  4 active torsions:
REMARK  status: ('A' for Active; 'I' for Inactive)
REMARK    1  A    between atoms: N_1  and  C_2
REMARK    2  A    between atoms: C_7  and  C_8
REMARK    3  A    between atoms: N_10  and  C_11
REMARK    4  A    between atoms: C_14  and  C_15
REMARK                            x       y       z     vdW  Elec       q    Type
REMARK                         _______ _______ _______ _____ _____    ______ ____
ROOT
ATOM      1  C   UNL     1       0.458   9.609  19.903  0.00  0.00    +0.000 A 
ATOM      2  C   UNL     1       0.789   9.742  18.558  0.00  0.00    +0.000 A 
ATOM      3  C   UNL     1       1.708   8.876  17.958  0.00  0.00    +0.000 A 
ATOM      4  C   UNL     1       2.284   7.819  18.666  0.00  0.00    +0.000 A 
ATOM      5  C   UNL     1       1.999   7.729  20.037  0.00  0.00    +0.000 A 
ATOM      6  C   UNL     1       1.104   8.622  20.654  0.00  0.00    +0.000 A 
ENDROOT
BRANCH   4   7
ATOM      7  C   UNL     1       3.161   6.822  18.027  0.00  0.00    +0.000 A 
ATOM      8  N   UNL     1       4.320   7.107  17.451  0.00  0.00    +0.000 NA
ATOM      9  C   UNL     1       4.847   5.919  17.010  0.00  0.00    +0.000 A 
ATOM     10  C   UNL     1       4.021   4.869  17.332  0.00  0.00    +0.000 A 
ATOM     11  N   UNL     1       2.954   5.454  17.974  0.00  0.00    +0.000 N 
ATOM     12  C   UNL     1       1.827   4.690  18.477  0.00  0.00    +0.000 C 
ATOM     13  C   UNL     1       2.112   3.194  18.597  0.00  0.00    +0.000 C 
ATOM     14  C   UNL     1       2.809   2.683  17.337  0.00  0.00    +0.000 C 
ATOM     15  C   UNL     1       4.145   3.400  17.136  0.00  0.00    +0.000 C 
ENDBRANCH   4   7
BRANCH   1  18
ATOM     16  C   UNL     1      -0.264  11.581  21.274  0.00  0.00    +0.000 C 
ATOM     17  O   UNL     1       0.835  12.065  21.530  0.00  0.00    +0.000 OA
ATOM     18  N   UNL     1      -0.502  10.425  20.536  0.00  0.00    +0.000 N 
ATOM     19  H   UNL     1      -1.485  10.205  20.392  0.00  0.00    +0.000 HD
BRANCH  16  25
ATOM     20  C   UNL     1      -2.138  13.291  21.072  0.00  0.00    +0.000 A 
ATOM     21  N   UNL     1      -3.248  13.883  21.569  0.00  0.00    +0.000 NA
ATOM     22  C   UNL     1      -3.701  13.422  22.757  0.00  0.00    +0.000 A 
ATOM     23  C   UNL     1      -3.083  12.392  23.443  0.00  0.00    +0.000 A 
ATOM     24  N   UNL     1      -1.979  11.768  22.974  0.00  0.00    +0.000 NA
ATOM     25  C   UNL     1      -1.515  12.241  21.772  0.00  0.00    +0.000 A 
BRANCH  20  26
ATOM     26  N   UNL     1      -1.771  13.746  19.812  0.00  0.00    +0.000 N 
ATOM     27  H   UNL     1      -1.359  14.670  19.893  0.00  0.00    +0.000 HD
ATOM     28  H   UNL     1      -1.204  13.072  19.300  0.00  0.00    +0.000 HD
ENDBRANCH  20  26
ENDBRANCH  16  25
ENDBRANCH   1  18
TORSDOF 4
ENDMDL
MODEL 4
REMARK VINA RESULT:      -7.9      6.017      7.892
REMARK  Name = 
REMARK  4 active torsions:
REMARK  status: ('A' for Active; 'I' for Inactive)
REMARK    1  A    between atoms: N_1  and  C_2
REMARK    2  A    between atoms: C_7  and  C_8
REMARK    3  A    between atoms: N_10  and  C_11
REMARK    4  A    between atoms: C_14  and  C_15
REMARK                            x       y       z     vdW  Elec       q    Type
REMARK                         _______ _______ _______ _____ _____    ______ ____
ROOT
ATOM      1  C   UNL     1       1.234   9.221  19.616  0.00  0.00    +0.000 A 
ATOM      2  C   UNL     1       1.544   9.173  18.260  0.00  0.00    +0.000 A 
ATOM      3  C   UNL     1       2.190   8.060  17.712  0.00  0.00    +0.000 A 
ATOM      4  C   UNL     1       2.500   6.941  18.487  0.00  0.00    +0.000 A 
ATOM      5  C   UNL     1       2.247   7.021  19.865  0.00  0.00    +0.000 A 
ATOM      6  C   UNL     1       1.632   8.154  20.428  0.00  0.00    +0.000 A 
ENDROOT
BRANCH   4   7
ATOM      7  C   UNL     1       3.071   5.712  17.911  0.00  0.00    +0.000 A 
ATOM      8  N   UNL     1       2.392   4.589  17.724  0.00  0.00    +0.000 NA
ATOM      9  C   UNL     1       3.255   3.697  17.139  0.00  0.00    +0.000 A 
ATOM     10  C   UNL     1       4.486   4.270  16.933  0.00  0.00    +0.000 A 
ATOM     11  N   UNL     1       4.359   5.547  17.429  0.00  0.00    +0.000 N 
ATOM     12  C   UNL     1       5.450   6.505  17.420  0.00  0.00    +0.000 C 
ATOM     13  C   UNL     1       6.586   6.123  16.471  0.00  0.00    +0.000 C 
ATOM     14  C   UNL     1       6.940   4.645  16.633  0.00  0.00    +0.000 C 
ATOM     15  C   UNL     1       5.733   3.766  16.299  0.00  0.00    +0.000 C 
ENDBRANCH   4   7
BRANCH   1  18
ATOM     16  C   UNL     1       0.837  11.651  20.086  0.00  0.00    +0.000 C 
ATOM     17  O   UNL     1       1.789  12.135  19.481  0.00  0.00    +0.000 OA
ATOM     18  N   UNL     1       0.536  10.297  20.201  0.00  0.00    +0.000 N 
ATOM     19  H   UNL     1      -0.323  10.091  20.706  0.00  0.00    +0.000 HD
BRANCH  16  25
ATOM     20  C   UNL     1      -0.898  13.514  20.115  0.00  0.00    +0.000 A 
ATOM     21  N   UNL     1      -1.745  14.320  20.795  0.00  0.00    +0.000 NA
ATOM     22  C   UNL     1      -1.805  14.147  22.135  0.00  0.00    +0.000 A 
ATOM     23  C   UNL     1      -1.055  13.193  22.798  0.00  0.00    +0.000 A 
ATOM     24  N   UNL     1      -0.206  12.361  22.154  0.00  0.00    +0.000 NA
ATOM     25  C   UNL     1      -0.139  12.543  20.795  0.00  0.00    +0.000 A 
BRANCH  20  26
ATOM     26  N   UNL     1      -0.943  13.679  18.737  0.00  0.00    +0.000 N 
ATOM     27  H   UNL     1      -0.507  14.560  18.487  0.00  0.00    +0.000 HD
ATOM     28  H   UNL     1      -0.584  12.870  18.232  0.00  0.00    +0.000 HD
ENDBRANCH  20  26
ENDBRANCH  16  25
ENDBRANCH   1  18
TORSDOF 4
ENDMDL
MODEL 5
REMARK VINA RESULT:      -7.8      5.201      7.780
REMARK  Name = 
REMARK  4 active torsions:
REMARK  status: ('A' for Active; 'I' for Inactive)
REMARK    1  A    between atoms: N_1  and  C_2
REMARK    2  A    between atoms: C_7  and  C_8
REMARK    3  A    between atoms: N_10  and  C_11
REMARK    4  A    between atoms: C_14  and  C_15
REMARK                            x       y       z     vdW  Elec       q    Type
REMARK                         _______ _______ _______ _____ _____    ______ ____
ROOT
ATOM      1  C   UNL     1       2.843   7.454  18.343  0.00  0.00    +0.000 A 
ATOM      2  C   UNL     1       2.260   8.682  18.046  0.00  0.00    +0.000 A 
ATOM      3  C   UNL     1       1.408   9.311  18.960  0.00  0.00    +0.000 A 
ATOM      4  C   UNL     1       1.153   8.759  20.218  0.00  0.00    +0.000 A 
ATOM      5  C   UNL     1       1.688   7.490  20.486  0.00  0.00    +0.000 A 
ATOM      6  C   UNL     1       2.515   6.837  19.554  0.00  0.00    +0.000 A 
ENDROOT
BRANCH   4   7
ATOM      7  C   UNL     1       0.357   9.457  21.242  0.00  0.00    +0.000 A 
ATOM      8  N   UNL     1       0.367   9.152  22.531  0.00  0.00    +0.000 NA
ATOM      9  C   UNL     1      -0.469  10.043  23.156  0.00  0.00    +0.000 A 
ATOM     10  C   UNL     1      -0.995  10.935  22.253  0.00  0.00    +0.000 A 
ATOM     11  N   UNL     1      -0.467  10.552  21.043  0.00  0.00    +0.000 N 
ATOM     12  C   UNL     1      -0.780  11.233  19.799  0.00  0.00    +0.000 C 
ATOM     13  C   UNL     1      -1.397  12.616  20.003  0.00  0.00    +0.000 C 
ATOM     14  C   UNL     1      -2.484  12.561  21.075  0.00  0.00    +0.000 C 
ATOM     15  C   UNL     1      -1.896  12.108  22.412  0.00  0.00    +0.000 C 
ENDBRANCH   4   7
BRANCH   1  18
ATOM     16  C   UNL     1       4.830   6.012  17.836  0.00  0.00    +0.000 C 
ATOM     17  O   UNL     1       5.199   5.762  18.980  0.00  0.00    +0.000 OA
ATOM     18  N   UNL     1       3.749   6.811  17.475  0.00  0.00    +0.000 N 
ATOM     19  H   UNL     1       3.572   6.864  16.475  0.00  0.00    +0.000 HD
BRANCH  16  25
ATOM     20  C   UNL     1       6.837   5.903  16.273  0.00  0.00    +0.000 A 
ATOM     21  N   UNL     1       7.456   5.380  15.190  0.00  0.00    +0.000 NA
ATOM     22  C   UNL     1       6.788   4.417  14.515  0.00  0.00    +0.000 A 
ATOM     23  C   UNL     1       5.539   3.966  14.900  0.00  0.00    +0.000 A 
ATOM     24  N   UNL     1       4.892   4.454  15.982  0.00  0.00    +0.000 NA
ATOM     25  C   UNL     1       5.567   5.437  16.663  0.00  0.00    +0.000 A 
BRANCH  20  26
ATOM     26  N   UNL     1       7.606   6.823  16.975  0.00  0.00    +0.000 N 
ATOM     27  H   UNL     1       8.178   7.351  16.324  0.00  0.00    +0.000 HD
ATOM     28  H   UNL     1       7.051   7.394  17.611  0.00  0.00    +0.000 HD
ENDBRANCH  20  26
ENDBRANCH  16  25
ENDBRANCH   1  18
TORSDOF 4
ENDMDL
MODEL 6
REMARK VINA RESULT:      -7.8      6.261      8.222
REMARK  Name = 
REMARK  4 active torsions:
REMARK  status: ('A' for Active; 'I' for Inactive)
REMARK    1  A    between atoms: N_1  and  C_2
REMARK    2  A    between atoms: C_7  and  C_8
REMARK    3  A    between atoms: N_10  and  C_11
REMARK    4  A    between atoms: C_14  and  C_15
REMARK                            x       y       z     vdW  Elec       q    Type
REMARK                         _______ _______ _______ _____ _____    ______ ____
ROOT
ATOM      1  C   UNL     1       1.178   9.421  19.604  0.00  0.00    +0.000 A 
ATOM      2  C   UNL     1       1.568   9.361  18.269  0.00  0.00    +0.000 A 
ATOM      3  C   UNL     1       2.260   8.250  17.775  0.00  0.00    +0.000 A 
ATOM      4  C   UNL     1       2.538   7.145  18.582  0.00  0.00    +0.000 A 
ATOM      5  C   UNL     1       2.202   7.238  19.941  0.00  0.00    +0.000 A 
ATOM      6  C   UNL     1       1.540   8.369  20.452  0.00  0.00    +0.000 A 
ENDROOT
BRANCH   4   7
ATOM      7  C   UNL     1       3.158   5.916  18.056  0.00  0.00    +0.000 A 
ATOM      8  N   UNL     1       4.253   5.892  17.311  0.00  0.00    +0.000 NA
ATOM      9  C   UNL     1       4.530   4.573  17.055  0.00  0.00    +0.000 A 
ATOM     10  C   UNL     1       3.611   3.753  17.664  0.00  0.00    +0.000 A 
ATOM     11  N   UNL     1       2.744   4.616  18.294  0.00  0.00    +0.000 N 
ATOM     12  C   UNL     1       1.599   4.158  19.059  0.00  0.00    +0.000 C 
ATOM     13  C   UNL     1       1.672   2.678  19.436  0.00  0.00    +0.000 C 
ATOM     14  C   UNL     1       2.101   1.843  18.231  0.00  0.00    +0.000 C 
ATOM     15  C   UNL     1       3.486   2.274  17.746  0.00  0.00    +0.000 C 
ENDBRANCH   4   7
BRANCH   1  18
ATOM     16  C   UNL     1      -0.874  10.847  19.807  0.00  0.00    +0.000 C 
ATOM     17  O   UNL     1      -1.587  10.299  18.972  0.00  0.00    +0.000 OA
ATOM     18  N   UNL     1       0.433  10.494  20.132  0.00  0.00    +0.000 N 
ATOM     19  H   UNL     1       0.848  11.040  20.884  0.00  0.00    +0.000 HD
BRANCH  16  25
ATOM     20  C   UNL     1      -2.483  12.789  20.154  0.00  0.00    +0.000 A 
ATOM     21  N   UNL     1      -2.900  13.855  20.873  0.00  0.00    +0.000 NA
ATOM     22  C   UNL     1      -2.210  14.133  22.003  0.00  0.00    +0.000 A 
ATOM     23  C   UNL     1      -1.134  13.373  22.426  0.00  0.00    +0.000 A 
ATOM     24  N   UNL     1      -0.694  12.294  21.741  0.00  0.00    +0.000 NA
ATOM     25  C   UNL     1      -1.390  12.017  20.591  0.00  0.00    +0.000 A 
BRANCH  20  26
ATOM     26  N   UNL     1      -3.282  12.502  19.054  0.00  0.00    +0.000 N 
ATOM     27  H   UNL     1      -2.834  12.848  18.212  0.00  0.00    +0.000 HD
ATOM     28  H   UNL     1      -3.559  11.522  19.015  0.00  0.00    +0.000 HD
ENDBRANCH  20  26
ENDBRANCH  16  25
ENDBRANCH   1  18
TORSDOF 4
ENDMDL
MODEL 7
REMARK VINA RESULT:      -7.8      6.276      8.205
REMARK  Name = 
REMARK  4 active torsions:
REMARK  status: ('A' for Active; 'I' for Inactive)
REMARK    1  A    between atoms: N_1  and  C_2
REMARK    2  A    between atoms: C_7  and  C_8
REMARK    3  A    between atoms: N_10  and  C_11
REMARK    4  A    between atoms: C_14  and  C_15
REMARK                            x       y       z     vdW  Elec       q    Type
REMARK                         _______ _______ _______ _____ _____    ______ ____
ROOT
ATOM      1  C   UNL     1       0.781   9.568  19.684  0.00  0.00    +0.000 A 
ATOM      2  C   UNL     1       1.183   9.592  18.352  0.00  0.00    +0.000 A 
ATOM      3  C   UNL     1       2.017   8.593  17.837  0.00  0.00    +0.000 A 
ATOM      4  C   UNL     1       2.433   7.515  18.621  0.00  0.00    +0.000 A 
ATOM      5  C   UNL     1       2.081   7.531  19.980  0.00  0.00    +0.000 A 
ATOM      6  C   UNL     1       1.274   8.554  20.511  0.00  0.00    +0.000 A 
ENDROOT
BRANCH   4   7
ATOM      7  C   UNL     1       3.212   6.392  18.073  0.00  0.00    +0.000 A 
ATOM      8  N   UNL     1       4.396   6.517  17.492  0.00  0.00    +0.000 NA
ATOM      9  C   UNL     1       4.806   5.253  17.151  0.00  0.00    +0.000 A 
ATOM     10  C   UNL     1       3.881   4.316  17.543  0.00  0.00    +0.000 A 
ATOM     11  N   UNL     1       2.873   5.050  18.123  0.00  0.00    +0.000 N 
ATOM     12  C   UNL     1       1.673   4.441  18.670  0.00  0.00    +0.000 C 
ATOM     13  C   UNL     1       1.810   2.938  18.908  0.00  0.00    +0.000 C 
ATOM     14  C   UNL     1       2.461   2.264  17.701  0.00  0.00    +0.000 C 
ATOM     15  C   UNL     1       3.861   2.831  17.462  0.00  0.00    +0.000 C 
ENDBRANCH   4   7
BRANCH   1  18
ATOM     16  C   UNL     1       0.241  11.683  20.918  0.00  0.00    +0.000 C 
ATOM     17  O   UNL     1       1.378  12.053  21.197  0.00  0.00    +0.000 OA
ATOM     18  N   UNL     1      -0.101  10.522  20.231  0.00  0.00    +0.000 N 
ATOM     19  H   UNL     1      -1.097  10.408  20.054  0.00  0.00    +0.000 HD
BRANCH  16  25
ATOM     20  C   UNL     1      -1.786  12.136  22.389  0.00  0.00    +0.000 A 
ATOM     21  N   UNL     1      -2.863  12.891  22.706  0.00  0.00    +0.000 NA
ATOM     22  C   UNL     1      -3.079  13.990  21.948  0.00  0.00    +0.000 A 
ATOM     23  C   UNL     1      -2.249  14.349  20.902  0.00  0.00    +0.000 A 
ATOM     24  N   UNL     1      -1.157  13.628  20.560  0.00  0.00    +0.000 NA
ATOM     25  C   UNL     1      -0.943  12.509  21.326  0.00  0.00    +0.000 A 
BRANCH  20  26
ATOM     26  N   UNL     1      -1.567  11.072  23.255  0.00  0.00    +0.000 N 
ATOM     27  H   UNL     1      -2.353  10.432  23.210  0.00  0.00    +0.000 HD
ATOM     28  H   UNL     1      -0.656  10.635  23.117  0.00  0.00    +0.000 HD
ENDBRANCH  20  26
ENDBRANCH  16  25
ENDBRANCH   1  18
TORSDOF 4
ENDMDL
MODEL 8
REMARK VINA RESULT:      -7.8      6.052      8.057
REMARK  Name = 
REMARK  4 active torsions:
REMARK  status: ('A' for Active; 'I' for Inactive)
REMARK    1  A    between atoms: N_1  and  C_2
REMARK    2  A    between atoms: C_7  and  C_8
REMARK    3  A    between atoms: N_10  and  C_11
REMARK    4  A    between atoms: C_14  and  C_15
REMARK                            x       y       z     vdW  Elec       q    Type
REMARK                         _______ _______ _______ _____ _____    ______ ____
ROOT
ATOM      1  C   UNL     1       1.342   9.102  19.642  0.00  0.00    +0.000 A 
ATOM      2  C   UNL     1       1.605   7.977  20.418  0.00  0.00    +0.000 A 
ATOM      3  C   UNL     1       2.188   6.838  19.853  0.00  0.00    +0.000 A 
ATOM      4  C   UNL     1       2.575   6.804  18.512  0.00  0.00    +0.000 A 
ATOM      5  C   UNL     1       2.247   7.914  17.718  0.00  0.00    +0.000 A 
ATOM      6  C   UNL     1       1.626   9.048  18.273  0.00  0.00    +0.000 A 
ENDROOT
BRANCH   4   7
ATOM      7  C   UNL     1       3.297   5.663  17.924  0.00  0.00    +0.000 A 
ATOM      8  N   UNL     1       2.733   4.511  17.595  0.00  0.00    +0.000 NA
ATOM      9  C   UNL     1       3.718   3.727  17.051  0.00  0.00    +0.000 A 
ATOM     10  C   UNL     1       4.915   4.401  17.015  0.00  0.00    +0.000 A 
ATOM     11  N   UNL     1       4.637   5.626  17.574  0.00  0.00    +0.000 N 
ATOM     12  C   UNL     1       5.644   6.659  17.742  0.00  0.00    +0.000 C 
ATOM     13  C   UNL     1       6.897   6.428  16.900  0.00  0.00    +0.000 C 
ATOM     14  C   UNL     1       7.349   4.972  17.005  0.00  0.00    +0.000 C 
ATOM     15  C   UNL     1       6.257   4.034  16.489  0.00  0.00    +0.000 C 
ENDBRANCH   4   7
BRANCH   1  18
ATOM     16  C   UNL     1      -0.452  10.830  19.927  0.00  0.00    +0.000 C 
ATOM     17  O   UNL     1      -1.297  10.376  19.161  0.00  0.00    +0.000 OA
ATOM     18  N   UNL     1       0.806  10.290  20.179  0.00  0.00    +0.000 N 
ATOM     19  H   UNL     1       1.351  10.784  20.882  0.00  0.00    +0.000 HD
BRANCH  16  25
ATOM     20  C   UNL     1      -0.950  13.322  20.069  0.00  0.00    +0.000 A 
ATOM     21  N   UNL     1      -1.167  14.437  20.802  0.00  0.00    +0.000 NA
ATOM     22  C   UNL     1      -1.147  14.293  22.147  0.00  0.00    +0.000 A 
ATOM     23  C   UNL     1      -0.927  13.075  22.763  0.00  0.00    +0.000 A 
ATOM     24  N   UNL     1      -0.717  11.936  22.066  0.00  0.00    +0.000 NA
ATOM     25  C   UNL     1      -0.730  12.084  20.701  0.00  0.00    +0.000 A 
BRANCH  20  26
ATOM     26  N   UNL     1      -1.069  13.515  18.698  0.00  0.00    +0.000 N 
ATOM     27  H   UNL     1      -1.552  14.389  18.520  0.00  0.00    +0.000 HD
ATOM     28  H   UNL     1      -0.180  13.414  18.209  0.00  0.00    +0.000 HD
ENDBRANCH  20  26
ENDBRANCH  16  25
ENDBRANCH   1  18
TORSDOF 4
ENDMDL
MODEL 9
REMARK VINA RESULT:      -7.7      6.499      8.215
REMARK  Name = 
REMARK  4 active torsions:
REMARK  status: ('A' for Active; 'I' for Inactive)
REMARK    1  A    between atoms: N_1  and  C_2
REMARK    2  A    between atoms: C_7  and  C_8
REMARK    3  A    between atoms: N_10  and  C_11
REMARK    4  A    between atoms: C_14  and  C_15
REMARK                            x       y       z     vdW  Elec       q    Type
REMARK                         _______ _______ _______ _____ _____    ______ ____
ROOT
ATOM      1  C   UNL     1       0.700   9.778  20.032  0.00  0.00    +0.000 A 
ATOM      2  C   UNL     1       1.194   8.692  20.748  0.00  0.00    +0.000 A 
ATOM      3  C   UNL     1       1.922   7.684  20.109  0.00  0.00    +0.000 A 
ATOM      4  C   UNL     1       2.224   7.753  18.747  0.00  0.00    +0.000 A 
ATOM      5  C   UNL     1       1.668   8.814  18.016  0.00  0.00    +0.000 A 
ATOM      6  C   UNL     1       0.903   9.811  18.648  0.00  0.00    +0.000 A 
ENDROOT
BRANCH   4   7
ATOM      7  C   UNL     1       3.089   6.767  18.077  0.00  0.00    +0.000 A 
ATOM      8  N   UNL     1       4.212   7.068  17.441  0.00  0.00    +0.000 NA
ATOM      9  C   UNL     1       4.740   5.886  16.988  0.00  0.00    +0.000 A 
ATOM     10  C   UNL     1       3.953   4.824  17.360  0.00  0.00    +0.000 A 
ATOM     11  N   UNL     1       2.907   5.395  18.048  0.00  0.00    +0.000 N 
ATOM     12  C   UNL     1       1.821   4.615  18.614  0.00  0.00    +0.000 C 
ATOM     13  C   UNL     1       2.141   3.125  18.734  0.00  0.00    +0.000 C 
ATOM     14  C   UNL     1       2.786   2.614  17.447  0.00  0.00    +0.000 C 
ATOM     15  C   UNL     1       4.096   3.355  17.174  0.00  0.00    +0.000 C 
ENDBRANCH   4   7
BRANCH   1  18
ATOM     16  C   UNL     1       0.548  12.047  21.088  0.00  0.00    +0.000 C 
ATOM     17  O   UNL     1       1.733  12.367  21.056  0.00  0.00    +0.000 OA
ATOM     18  N   UNL     1       0.008  10.844  20.643  0.00  0.00    +0.000 N 
ATOM     19  H   UNL     1      -1.005  10.779  20.712  0.00  0.00    +0.000 HD
BRANCH  16  25
ATOM     20  C   UNL     1      -1.375  13.694  20.828  0.00  0.00    +0.000 A 
ATOM     21  N   UNL     1      -2.262  14.560  21.368  0.00  0.00    +0.000 NA
ATOM     22  C   UNL     1      -2.220  14.712  22.712  0.00  0.00    +0.000 A 
ATOM     23  C   UNL     1      -1.330  14.021  23.514  0.00  0.00    +0.000 A 
ATOM     24  N   UNL     1      -0.436  13.139  23.013  0.00  0.00    +0.000 NA
ATOM     25  C   UNL     1      -0.474  12.990  21.649  0.00  0.00    +0.000 A 
BRANCH  20  26
ATOM     26  N   UNL     1      -1.523  13.514  19.458  0.00  0.00    +0.000 N 
ATOM     27  H   UNL     1      -1.205  12.585  19.203  0.00  0.00    +0.000 HD
ATOM     28  H   UNL     1      -2.460  13.748  19.130  0.00  0.00    +0.000 HD
ENDBRANCH  20  26
ENDBRANCH  16  25
ENDBRANCH   1  18
TORSDOF 4
ENDMDL
