MODEL 1
REMARK VINA RESULT:      -8.4      0.000      0.000
REMARK  Name = 
REMARK  3 active torsions:
REMARK  status: ('A' for Active; 'I' for Inactive)
REMARK    1  A    between atoms: N_11  and  C_12
REMARK    2  A    between atoms: C_12  and  C_13
REMARK    3  A    between atoms: C_13  and  C_14
REMARK                            x       y       z     vdW  Elec       q    Type
REMARK                         _______ _______ _______ _____ _____    ______ ____
ROOT
ATOM      1  C   UNL     1       2.889   4.032  19.548  0.00  0.00    +0.000 C 
ENDROOT
BRANCH   1   2
ATOM      2  C   UNL     1       2.363   5.253  20.302  0.00  0.00    +0.000 C 
ATOM      3  O   UNL     1       2.200   5.172  21.516  0.00  0.00    +0.000 OA
ATOM      4  N   UNL     1       2.183   6.425  19.532  0.00  0.00    +0.000 N 
ATOM      5  C   UNL     1       2.402   6.427  18.075  0.00  0.00    +0.000 C 
ATOM      6  C   UNL     1       3.137   7.668  17.625  0.00  0.00    +0.000 C 
ATOM      7  C   UNL     1       2.245   8.865  17.877  0.00  0.00    +0.000 C 
ATOM      8  C   UNL     1       1.657   8.834  19.265  0.00  0.00    +0.000 A 
ATOM      9  C   UNL     1       1.116  10.027  19.766  0.00  0.00    +0.000 A 
ATOM     10  F   UNL     1       1.139  11.137  19.010  0.00  0.00    +0.000 F 
ATOM     11  C   UNL     1       0.575  10.102  21.036  0.00  0.00    +0.000 A 
ATOM     12  C   UNL     1       0.572   8.961  21.815  0.00  0.00    +0.000 A 
ATOM     13  F   UNL     1       0.055   9.013  23.050  0.00  0.00    +0.000 F 
ATOM     14  C   UNL     1       1.093   7.755  21.346  0.00  0.00    +0.000 A 
ATOM     15  C   UNL     1       1.643   7.659  20.060  0.00  0.00    +0.000 A 
ENDBRANCH   1   2
BRANCH   1  16
ATOM     16  C   UNL     1       4.380   3.768  19.729  0.00  0.00    +0.000 C 
BRANCH  16  27
ATOM     17  O   UNL     1       6.827   5.400  19.823  0.00  0.00    +0.000 OA
ATOM     18  C   UNL     1       6.296   5.050  18.764  0.00  0.00    +0.000 C 
ATOM     19  N   UNL     1       6.766   5.407  17.522  0.00  0.00    +0.000 N 
ATOM     20  C   UNL     1       6.003   4.802  16.462  0.00  0.00    +0.000 C 
ATOM     21  C   UNL     1       6.802   3.781  15.643  0.00  0.00    +0.000 C 
ATOM     22  C   UNL     1       6.284   3.946  14.218  0.00  0.00    +0.000 C 
ATOM     23  C   UNL     1       5.974   5.430  14.112  0.00  0.00    +0.000 C 
ATOM     24  C   UNL     1       5.377   5.789  15.470  0.00  0.00    +0.000 C 
ATOM     25  C   UNL     1       4.924   4.086  17.286  0.00  0.00    +0.000 C 
ATOM     26  O   UNL     1       4.011   3.445  16.798  0.00  0.00    +0.000 OA
ATOM     27  N   UNL     1       5.192   4.271  18.621  0.00  0.00    +0.000 N 
ATOM     28  H   UNL     1       7.590   5.986  17.417  0.00  0.00    +0.000 HD
ENDBRANCH  16  27
ENDBRANCH   1  16
TORSDOF 3
ENDMDL
MODEL 2
REMARK VINA RESULT:      -8.1      3.705      7.960
REMARK  Name = 
REMARK  3 active torsions:
REMARK  status: ('A' for Active; 'I' for Inactive)
REMARK    1  A    between atoms: N_11  and  C_12
REMARK    2  A    between atoms: C_12  and  C_13
REMARK    3  A    between atoms: C_13  and  C_14
REMARK                            x       y       z     vdW  Elec       q    Type
REMARK                         _______ _______ _______ _____ _____    ______ ____
ROOT
ATOM      1  C   UNL     1       1.072   7.299  20.944  0.00  0.00    +0.000 C 
ENDROOT
BRANCH   1   2
ATOM      2  C   UNL     1       2.016   6.707  19.897  0.00  0.00    +0.000 C 
ATOM      3  O   UNL     1       2.745   7.465  19.264  0.00  0.00    +0.000 OA
ATOM      4  N   UNL     1       2.030   5.296  19.805  0.00  0.00    +0.000 N 
ATOM      5  C   UNL     1       1.116   4.466  20.607  0.00  0.00    +0.000 C 
ATOM      6  C   UNL     1       1.817   3.252  21.171  0.00  0.00    +0.000 C 
ATOM      7  C   UNL     1       2.227   2.362  20.018  0.00  0.00    +0.000 C 
ATOM      8  C   UNL     1       2.906   3.149  18.925  0.00  0.00    +0.000 A 
ATOM      9  C   UNL     1       3.651   2.432  17.978  0.00  0.00    +0.000 A 
ATOM     10  F   UNL     1       3.736   1.095  18.072  0.00  0.00    +0.000 F 
ATOM     11  C   UNL     1       4.327   3.068  16.953  0.00  0.00    +0.000 A 
ATOM     12  C   UNL     1       4.251   4.445  16.875  0.00  0.00    +0.000 A 
ATOM     13  F   UNL     1       4.901   5.082  15.891  0.00  0.00    +0.000 F 
ATOM     14  C   UNL     1       3.511   5.190  17.794  0.00  0.00    +0.000 A 
ATOM     15  C   UNL     1       2.817   4.562  18.838  0.00  0.00    +0.000 A 
ENDBRANCH   1   2
BRANCH   1  16
ATOM     16  C   UNL     1       1.578   8.575  21.606  0.00  0.00    +0.000 C 
BRANCH  16  27
ATOM     17  O   UNL     1      -0.090  10.079  23.507  0.00  0.00    +0.000 OA
ATOM     18  C   UNL     1      -0.044  10.344  22.301  0.00  0.00    +0.000 C 
ATOM     19  N   UNL     1      -0.786  11.341  21.712  0.00  0.00    +0.000 N 
ATOM     20  C   UNL     1      -0.484  11.481  20.311  0.00  0.00    +0.000 C 
ATOM     21  C   UNL     1       0.195  12.812  19.964  0.00  0.00    +0.000 C 
ATOM     22  C   UNL     1      -0.361  13.177  18.592  0.00  0.00    +0.000 C 
ATOM     23  C   UNL     1      -1.787  12.653  18.624  0.00  0.00    +0.000 C 
ATOM     24  C   UNL     1      -1.685  11.326  19.371  0.00  0.00    +0.000 C 
ATOM     25  C   UNL     1       0.509  10.324  20.135  0.00  0.00    +0.000 C 
ATOM     26  O   UNL     1       1.026  10.028  19.073  0.00  0.00    +0.000 OA
ATOM     27  N   UNL     1       0.718   9.733  21.358  0.00  0.00    +0.000 N 
ATOM     28  H   UNL     1      -1.417  11.919  22.252  0.00  0.00    +0.000 HD
ENDBRANCH  16  27
ENDBRANCH   1  16
TORSDOF 3
ENDMDL
MODEL 3
REMARK VINA RESULT:      -8.0      2.178      3.771
REMARK  Name = 
REMARK  3 active torsions:
REMARK  status: ('A' for Active; 'I' for Inactive)
REMARK    1  A    between atoms: N_11  and  C_12
REMARK    2  A    between atoms: C_12  and  C_13
REMARK    3  A    between atoms: C_13  and  C_14
REMARK                            x       y       z     vdW  Elec       q    Type
REMARK                         _______ _______ _______ _____ _____    ______ ____
ROOT
ATOM      1  C   UNL     1       2.302   7.036  19.538  0.00  0.00    +0.000 C 
ENDROOT
BRANCH   1   2
ATOM      2  C   UNL     1       1.809   8.449  19.222  0.00  0.00    +0.000 C 
ATOM      3  O   UNL     1       1.932   8.874  18.076  0.00  0.00    +0.000 OA
ATOM      4  N   UNL     1       1.163   9.129  20.279  0.00  0.00    +0.000 N 
ATOM      5  C   UNL     1       1.065   8.538  21.624  0.00  0.00    +0.000 C 
ATOM      6  C   UNL     1      -0.303   8.755  22.228  0.00  0.00    +0.000 C 
ATOM      7  C   UNL     1      -0.494  10.240  22.451  0.00  0.00    +0.000 C 
ATOM      8  C   UNL     1      -0.105  11.037  21.230  0.00  0.00    +0.000 A 
ATOM      9  C   UNL     1      -0.557  12.362  21.150  0.00  0.00    +0.000 A 
ATOM     10  F   UNL     1      -1.307  12.869  22.142  0.00  0.00    +0.000 F 
ATOM     11  C   UNL     1      -0.270  13.163  20.061  0.00  0.00    +0.000 A 
ATOM     12  C   UNL     1       0.485  12.627  19.035  0.00  0.00    +0.000 A 
ATOM     13  F   UNL     1       0.772  13.385  17.968  0.00  0.00    +0.000 F 
ATOM     14  C   UNL     1       0.959  11.316  19.085  0.00  0.00    +0.000 A 
ATOM     15  C   UNL     1       0.682  10.490  20.184  0.00  0.00    +0.000 A 
ENDBRANCH   1   2
BRANCH   1  16
ATOM     16  C   UNL     1       2.029   6.009  18.444  0.00  0.00    +0.000 C 
BRANCH  16  27
ATOM     17  O   UNL     1       2.529   3.187  19.107  0.00  0.00    +0.000 OA
ATOM     18  C   UNL     1       3.349   3.889  18.506  0.00  0.00    +0.000 C 
ATOM     19  N   UNL     1       4.589   3.444  18.111  0.00  0.00    +0.000 N 
ATOM     20  C   UNL     1       5.309   4.443  17.366  0.00  0.00    +0.000 C 
ATOM     21  C   UNL     1       5.534   4.064  15.898  0.00  0.00    +0.000 C 
ATOM     22  C   UNL     1       6.910   4.630  15.564  0.00  0.00    +0.000 C 
ATOM     23  C   UNL     1       7.688   4.488  16.862  0.00  0.00    +0.000 C 
ATOM     24  C   UNL     1       6.673   4.828  17.950  0.00  0.00    +0.000 C 
ATOM     25  C   UNL     1       4.318   5.611  17.461  0.00  0.00    +0.000 C 
ATOM     26  O   UNL     1       4.521   6.714  16.986  0.00  0.00    +0.000 OA
ATOM     27  N   UNL     1       3.194   5.184  18.126  0.00  0.00    +0.000 N 
ATOM     28  H   UNL     1       4.894   2.496  18.298  0.00  0.00    +0.000 HD
ENDBRANCH  16  27
ENDBRANCH   1  16
TORSDOF 3
ENDMDL
MODEL 4
REMARK VINA RESULT:      -8.0      4.319      5.910
REMARK  Name = 
REMARK  3 active torsions:
REMARK  status: ('A' for Active; 'I' for Inactive)
REMARK    1  A    between atoms: N_11  and  C_12
REMARK    2  A    between atoms: C_12  and  C_13
REMARK    3  A    between atoms: C_13  and  C_14
REMARK                            x       y       z     vdW  Elec       q    Type
REMARK                         _______ _______ _______ _____ _____    ______ ____
ROOT
ATOM      1  C   UNL     1       0.538   9.641  17.859  0.00  0.00    +0.000 C 
ENDROOT
BRANCH   1   2
ATOM      2  C   UNL     1      -0.494  10.540  18.540  0.00  0.00    +0.000 C 
ATOM      3  O   UNL     1      -0.153  11.189  19.525  0.00  0.00    +0.000 OA
ATOM      4  N   UNL     1      -1.759  10.615  17.913  0.00  0.00    +0.000 N 
ATOM      5  C   UNL     1      -2.079   9.796  16.732  0.00  0.00    +0.000 C 
ATOM      6  C   UNL     1      -2.838  10.589  15.694  0.00  0.00    +0.000 C 
ATOM      7  C   UNL     1      -4.186  10.963  16.275  0.00  0.00    +0.000 C 
ATOM      8  C   UNL     1      -4.051  11.530  17.666  0.00  0.00    +0.000 A 
ATOM      9  C   UNL     1      -5.142  12.244  18.183  0.00  0.00    +0.000 A 
ATOM     10  F   UNL     1      -6.249  12.397  17.438  0.00  0.00    +0.000 F 
ATOM     11  C   UNL     1      -5.103  12.819  19.439  0.00  0.00    +0.000 A 
ATOM     12  C   UNL     1      -3.954  12.674  20.191  0.00  0.00    +0.000 A 
ATOM     13  F   UNL     1      -3.894  13.226  21.410  0.00  0.00    +0.000 F 
ATOM     14  C   UNL     1      -2.853  11.963  19.712  0.00  0.00    +0.000 A 
ATOM     15  C   UNL     1      -2.875  11.370  18.442  0.00  0.00    +0.000 A 
ENDBRANCH   1   2
BRANCH   1  16
ATOM     16  C   UNL     1       1.854   9.499  18.615  0.00  0.00    +0.000 C 
BRANCH  16  27
ATOM     17  O   UNL     1       1.047   8.220  21.139  0.00  0.00    +0.000 OA
ATOM     18  C   UNL     1       1.720   7.641  20.280  0.00  0.00    +0.000 C 
ATOM     19  N   UNL     1       2.192   6.356  20.419  0.00  0.00    +0.000 N 
ATOM     20  C   UNL     1       2.881   5.903  19.240  0.00  0.00    +0.000 C 
ATOM     21  C   UNL     1       2.162   4.761  18.514  0.00  0.00    +0.000 C 
ATOM     22  C   UNL     1       3.287   3.881  17.979  0.00  0.00    +0.000 C 
ATOM     23  C   UNL     1       4.372   3.992  19.037  0.00  0.00    +0.000 C 
ATOM     24  C   UNL     1       4.329   5.455  19.469  0.00  0.00    +0.000 C 
ATOM     25  C   UNL     1       2.826   7.182  18.392  0.00  0.00    +0.000 C 
ATOM     26  O   UNL     1       3.326   7.285  17.286  0.00  0.00    +0.000 OA
ATOM     27  N   UNL     1       2.109   8.134  19.075  0.00  0.00    +0.000 N 
ATOM     28  H   UNL     1       2.002   5.812  21.252  0.00  0.00    +0.000 HD
ENDBRANCH  16  27
ENDBRANCH   1  16
TORSDOF 3
ENDMDL
MODEL 5
REMARK VINA RESULT:      -7.9      2.495      4.344
REMARK  Name = 
REMARK  3 active torsions:
REMARK  status: ('A' for Active; 'I' for Inactive)
REMARK    1  A    between atoms: N_11  and  C_12
REMARK    2  A    between atoms: C_12  and  C_13
REMARK    3  A    between atoms: C_13  and  C_14
REMARK                            x       y       z     vdW  Elec       q    Type
REMARK                         _______ _______ _______ _____ _____    ______ ____
ROOT
ATOM      1  C   UNL     1       2.007   7.973  18.035  0.00  0.00    +0.000 C 
ENDROOT
BRANCH   1   2
ATOM      2  C   UNL     1       1.610   9.411  18.371  0.00  0.00    +0.000 C 
ATOM      3  O   UNL     1       1.671  10.262  17.488  0.00  0.00    +0.000 OA
ATOM      4  N   UNL     1       1.113   9.626  19.677  0.00  0.00    +0.000 N 
ATOM      5  C   UNL     1       1.078   8.541  20.672  0.00  0.00    +0.000 C 
ATOM      6  C   UNL     1      -0.212   8.550  21.459  0.00  0.00    +0.000 C 
ATOM      7  C   UNL     1      -0.258   9.821  22.280  0.00  0.00    +0.000 C 
ATOM      8  C   UNL     1       0.093  11.030  21.449  0.00  0.00    +0.000 A 
ATOM      9  C   UNL     1      -0.251  12.289  21.960  0.00  0.00    +0.000 A 
ATOM     10  F   UNL     1      -0.870  12.378  23.148  0.00  0.00    +0.000 F 
ATOM     11  C   UNL     1       0.009  13.453  21.260  0.00  0.00    +0.000 A 
ATOM     12  C   UNL     1       0.629  13.352  20.030  0.00  0.00    +0.000 A 
ATOM     13  F   UNL     1       0.889  14.467  19.333  0.00  0.00    +0.000 F 
ATOM     14  C   UNL     1       0.994  12.116  19.495  0.00  0.00    +0.000 A 
ATOM     15  C   UNL     1       0.741  10.926  20.191  0.00  0.00    +0.000 A 
ENDBRANCH   1   2
BRANCH   1  16
ATOM     16  C   UNL     1       3.493   7.773  17.758  0.00  0.00    +0.000 C 
BRANCH  16  27
ATOM     17  O   UNL     1       5.362   6.551  15.843  0.00  0.00    +0.000 OA
ATOM     18  C   UNL     1       4.721   5.891  16.667  0.00  0.00    +0.000 C 
ATOM     19  N   UNL     1       4.783   4.520  16.759  0.00  0.00    +0.000 N 
ATOM     20  C   UNL     1       3.994   4.016  17.853  0.00  0.00    +0.000 C 
ATOM     21  C   UNL     1       4.833   3.380  18.967  0.00  0.00    +0.000 C 
ATOM     22  C   UNL     1       3.982   2.218  19.469  0.00  0.00    +0.000 C 
ATOM     23  C   UNL     1       3.266   1.725  18.223  0.00  0.00    +0.000 C 
ATOM     24  C   UNL     1       2.917   2.999  17.459  0.00  0.00    +0.000 C 
ATOM     25  C   UNL     1       3.364   5.324  18.351  0.00  0.00    +0.000 C 
ATOM     26  O   UNL     1       2.573   5.388  19.274  0.00  0.00    +0.000 OA
ATOM     27  N   UNL     1       3.866   6.366  17.610  0.00  0.00    +0.000 N 
ATOM     28  H   UNL     1       5.373   3.976  16.142  0.00  0.00    +0.000 HD
ENDBRANCH  16  27
ENDBRANCH   1  16
TORSDOF 3
ENDMDL
MODEL 6
REMARK VINA RESULT:      -7.9      1.792      2.519
REMARK  Name = 
REMARK  3 active torsions:
REMARK  status: ('A' for Active; 'I' for Inactive)
REMARK    1  A    between atoms: N_11  and  C_12
REMARK    2  A    between atoms: C_12  and  C_13
REMARK    3  A    between atoms: C_13  and  C_14
REMARK                            x       y       z     vdW  Elec       q    Type
REMARK                         _______ _______ _______ _____ _____    ______ ____
ROOT
ATOM      1  C   UNL     1       2.356   6.759  19.139  0.00  0.00    +0.000 C 
ENDROOT
BRANCH   1   2
ATOM      2  C   UNL     1       1.654   7.678  20.139  0.00  0.00    +0.000 C 
ATOM      3  O   UNL     1       1.489   7.281  21.290  0.00  0.00    +0.000 OA
ATOM      4  N   UNL     1       1.322   8.968  19.667  0.00  0.00    +0.000 N 
ATOM      5  C   UNL     1       1.558   9.356  18.266  0.00  0.00    +0.000 C 
ATOM      6  C   UNL     1       2.117  10.756  18.163  0.00  0.00    +0.000 C 
ATOM      7  C   UNL     1       1.064  11.726  18.655  0.00  0.00    +0.000 C 
ATOM      8  C   UNL     1       0.467  11.277  19.965  0.00  0.00    +0.000 A 
ATOM      9  C   UNL     1      -0.241  12.228  20.714  0.00  0.00    +0.000 A 
ATOM     10  F   UNL     1      -0.364  13.482  20.249  0.00  0.00    +0.000 F 
ATOM     11  C   UNL     1      -0.804  11.917  21.937  0.00  0.00    +0.000 A 
ATOM     12  C   UNL     1      -0.657  10.630  22.417  0.00  0.00    +0.000 A 
ATOM     13  F   UNL     1      -1.192  10.308  23.603  0.00  0.00    +0.000 F 
ATOM     14  C   UNL     1       0.034   9.656  21.696  0.00  0.00    +0.000 A 
ATOM     15  C   UNL     1       0.608   9.952  20.452  0.00  0.00    +0.000 A 
ENDBRANCH   1   2
BRANCH   1  16
ATOM     16  C   UNL     1       3.465   5.900  19.735  0.00  0.00    +0.000 C 
BRANCH  16  27
ATOM     17  O   UNL     1       3.860   2.989  19.572  0.00  0.00    +0.000 OA
ATOM     18  C   UNL     1       4.352   3.778  18.759  0.00  0.00    +0.000 C 
ATOM     19  N   UNL     1       5.158   3.391  17.714  0.00  0.00    +0.000 N 
ATOM     20  C   UNL     1       5.531   4.503  16.880  0.00  0.00    +0.000 C 
ATOM     21  C   UNL     1       4.941   4.430  15.467  0.00  0.00    +0.000 C 
ATOM     22  C   UNL     1       6.025   5.016  14.569  0.00  0.00    +0.000 C 
ATOM     23  C   UNL     1       7.322   4.587  15.235  0.00  0.00    +0.000 C 
ATOM     24  C   UNL     1       7.041   4.722  16.729  0.00  0.00    +0.000 C 
ATOM     25  C   UNL     1       4.881   5.653  17.662  0.00  0.00    +0.000 C 
ATOM     26  O   UNL     1       4.960   6.824  17.339  0.00  0.00    +0.000 OA
ATOM     27  N   UNL     1       4.197   5.127  18.731  0.00  0.00    +0.000 N 
ATOM     28  H   UNL     1       5.390   2.417  17.559  0.00  0.00    +0.000 HD
ENDBRANCH  16  27
ENDBRANCH   1  16
TORSDOF 3
ENDMDL
MODEL 7
REMARK VINA RESULT:      -7.9      2.091      3.403
REMARK  Name = 
REMARK  3 active torsions:
REMARK  status: ('A' for Active; 'I' for Inactive)
REMARK    1  A    between atoms: N_11  and  C_12
REMARK    2  A    between atoms: C_12  and  C_13
REMARK    3  A    between atoms: C_13  and  C_14
REMARK                            x       y       z     vdW  Elec       q    Type
REMARK                         _______ _______ _______ _____ _____    ______ ____
ROOT
ATOM      1  C   UNL     1       2.146   6.592  19.090  0.00  0.00    +0.000 C 
ENDROOT
BRANCH   1   2
ATOM      2  C   UNL     1       1.921   8.079  18.814  0.00  0.00    +0.000 C 
ATOM      3  O   UNL     1       2.184   8.519  17.698  0.00  0.00    +0.000 OA
ATOM      4  N   UNL     1       1.335   8.822  19.866  0.00  0.00    +0.000 N 
ATOM      5  C   UNL     1       1.055   8.207  21.174  0.00  0.00    +0.000 C 
ATOM      6  C   UNL     1      -0.291   8.634  21.712  0.00  0.00    +0.000 C 
ATOM      7  C   UNL     1      -0.240  10.121  21.992  0.00  0.00    +0.000 C 
ATOM      8  C   UNL     1       0.353  10.883  20.833  0.00  0.00    +0.000 A 
ATOM      9  C   UNL     1       0.138  12.268  20.791  0.00  0.00    +0.000 A 
ATOM     10  F   UNL     1      -0.574  12.861  21.763  0.00  0.00    +0.000 F 
ATOM     11  C   UNL     1       0.624  13.047  19.757  0.00  0.00    +0.000 A 
ATOM     12  C   UNL     1       1.340  12.427  18.751  0.00  0.00    +0.000 A 
ATOM     13  F   UNL     1       1.816  13.163  17.738  0.00  0.00    +0.000 F 
ATOM     14  C   UNL     1       1.580  11.053  18.766  0.00  0.00    +0.000 A 
ATOM     15  C   UNL     1       1.098  10.248  19.807  0.00  0.00    +0.000 A 
ENDBRANCH   1   2
BRANCH   1  16
ATOM     16  C   UNL     1       3.546   6.243  19.581  0.00  0.00    +0.000 C 
BRANCH  16  27
ATOM     17  O   UNL     1       4.117   3.364  19.786  0.00  0.00    +0.000 OA
ATOM     18  C   UNL     1       4.524   4.062  18.852  0.00  0.00    +0.000 C 
ATOM     19  N   UNL     1       5.309   3.584  17.829  0.00  0.00    +0.000 N 
ATOM     20  C   UNL     1       5.576   4.592  16.837  0.00  0.00    +0.000 C 
ATOM     21  C   UNL     1       4.934   4.295  15.477  0.00  0.00    +0.000 C 
ATOM     22  C   UNL     1       5.941   4.815  14.457  0.00  0.00    +0.000 C 
ATOM     23  C   UNL     1       7.288   4.555  15.109  0.00  0.00    +0.000 C 
ATOM     24  C   UNL     1       7.062   4.875  16.584  0.00  0.00    +0.000 C 
ATOM     25  C   UNL     1       4.888   5.798  17.491  0.00  0.00    +0.000 C 
ATOM     26  O   UNL     1       4.879   6.917  17.012  0.00  0.00    +0.000 OA
ATOM     27  N   UNL     1       4.283   5.384  18.654  0.00  0.00    +0.000 N 
ATOM     28  H   UNL     1       5.596   2.613  17.793  0.00  0.00    +0.000 HD
ENDBRANCH  16  27
ENDBRANCH   1  16
TORSDOF 3
ENDMDL
MODEL 8
REMARK VINA RESULT:      -7.8      1.568      2.125
REMARK  Name = 
REMARK  3 active torsions:
REMARK  status: ('A' for Active; 'I' for Inactive)
REMARK    1  A    between atoms: N_11  and  C_12
REMARK    2  A    between atoms: C_12  and  C_13
REMARK    3  A    between atoms: C_13  and  C_14
REMARK                            x       y       z     vdW  Elec       q    Type
REMARK                         _______ _______ _______ _____ _____    ______ ____
ROOT
ATOM      1  C   UNL     1       2.899   6.379  18.370  0.00  0.00    +0.000 C 
ENDROOT
BRANCH   1   2
ATOM      2  C   UNL     1       2.265   7.100  19.560  0.00  0.00    +0.000 C 
ATOM      3  O   UNL     1       2.319   6.571  20.667  0.00  0.00    +0.000 OA
ATOM      4  N   UNL     1       1.734   8.383  19.295  0.00  0.00    +0.000 N 
ATOM      5  C   UNL     1       1.714   8.937  17.930  0.00  0.00    +0.000 C 
ATOM      6  C   UNL     1       2.103  10.397  17.917  0.00  0.00    +0.000 C 
ATOM      7  C   UNL     1       1.042  11.179  18.661  0.00  0.00    +0.000 C 
ATOM      8  C   UNL     1       0.700  10.531  19.980  0.00  0.00    +0.000 A 
ATOM      9  C   UNL     1       0.019  11.309  20.926  0.00  0.00    +0.000 A 
ATOM     10  F   UNL     1      -0.302  12.580  20.635  0.00  0.00    +0.000 F 
ATOM     11  C   UNL     1      -0.317  10.810  22.171  0.00  0.00    +0.000 A 
ATOM     12  C   UNL     1       0.033   9.508  22.470  0.00  0.00    +0.000 A 
ATOM     13  F   UNL     1      -0.280   9.005  23.672  0.00  0.00    +0.000 F 
ATOM     14  C   UNL     1       0.704   8.702  21.550  0.00  0.00    +0.000 A 
ATOM     15  C   UNL     1       1.049   9.190  20.282  0.00  0.00    +0.000 A 
ENDBRANCH   1   2
BRANCH   1  16
ATOM     16  C   UNL     1       4.394   6.624  18.202  0.00  0.00    +0.000 C 
BRANCH  16  27
ATOM     17  O   UNL     1       5.513   3.994  18.902  0.00  0.00    +0.000 OA
ATOM     18  C   UNL     1       5.561   4.459  17.759  0.00  0.00    +0.000 C 
ATOM     19  N   UNL     1       6.165   3.820  16.702  0.00  0.00    +0.000 N 
ATOM     20  C   UNL     1       6.010   4.550  15.471  0.00  0.00    +0.000 C 
ATOM     21  C   UNL     1       5.139   3.825  14.438  0.00  0.00    +0.000 C 
ATOM     22  C   UNL     1       5.774   4.167  13.095  0.00  0.00    +0.000 C 
ATOM     23  C   UNL     1       7.259   4.253  13.404  0.00  0.00    +0.000 C 
ATOM     24  C   UNL     1       7.321   4.928  14.772  0.00  0.00    +0.000 C 
ATOM     25  C   UNL     1       5.281   5.797  15.990  0.00  0.00    +0.000 C 
ATOM     26  O   UNL     1       4.959   6.737  15.287  0.00  0.00    +0.000 OA
ATOM     27  N   UNL     1       5.044   5.641  17.334  0.00  0.00    +0.000 N 
ATOM     28  H   UNL     1       6.608   2.917  16.814  0.00  0.00    +0.000 HD
ENDBRANCH  16  27
ENDBRANCH   1  16
TORSDOF 3
ENDMDL
MODEL 9
REMARK VINA RESULT:      -7.8      2.321      3.842
REMARK  Name = 
REMARK  3 active torsions:
REMARK  status: ('A' for Active; 'I' for Inactive)
REMARK    1  A    between atoms: N_11  and  C_12
REMARK    2  A    between atoms: C_12  and  C_13
REMARK    3  A    between atoms: C_13  and  C_14
REMARK                            x       y       z     vdW  Elec       q    Type
REMARK                         _______ _______ _______ _____ _____    ______ ____
ROOT
ATOM      1  C   UNL     1       1.924   8.208  17.956  0.00  0.00    +0.000 C 
ENDROOT
BRANCH   1   2
ATOM      2  C   UNL     1       1.501   8.616  19.367  0.00  0.00    +0.000 C 
ATOM      3  O   UNL     1       2.087   8.120  20.325  0.00  0.00    +0.000 OA
ATOM      4  N   UNL     1       0.504   9.615  19.449  0.00  0.00    +0.000 N 
ATOM      5  C   UNL     1      -0.145  10.152  18.241  0.00  0.00    +0.000 C 
ATOM      6  C   UNL     1      -0.309  11.652  18.318  0.00  0.00    +0.000 C 
ATOM      7  C   UNL     1      -1.275  11.966  19.440  0.00  0.00    +0.000 C 
ATOM      8  C   UNL     1      -0.928  11.209  20.697  0.00  0.00    +0.000 A 
ATOM      9  C   UNL     1      -1.492  11.658  21.900  0.00  0.00    +0.000 A 
ATOM     10  F   UNL     1      -2.307  12.725  21.895  0.00  0.00    +0.000 F 
ATOM     11  C   UNL     1      -1.215  11.042  23.107  0.00  0.00    +0.000 A 
ATOM     12  C   UNL     1      -0.360   9.957  23.107  0.00  0.00    +0.000 A 
ATOM     13  F   UNL     1      -0.075   9.347  24.265  0.00  0.00    +0.000 F 
ATOM     14  C   UNL     1       0.212   9.478  21.928  0.00  0.00    +0.000 A 
ATOM     15  C   UNL     1      -0.060  10.087  20.695  0.00  0.00    +0.000 A 
ENDBRANCH   1   2
BRANCH   1  16
ATOM     16  C   UNL     1       3.421   7.971  17.786  0.00  0.00    +0.000 C 
BRANCH  16  27
ATOM     17  O   UNL     1       5.308   6.806  15.852  0.00  0.00    +0.000 OA
ATOM     18  C   UNL     1       4.626   6.119  16.620  0.00  0.00    +0.000 C 
ATOM     19  N   UNL     1       4.649   4.744  16.634  0.00  0.00    +0.000 N 
ATOM     20  C   UNL     1       3.816   4.201  17.676  0.00  0.00    +0.000 C 
ATOM     21  C   UNL     1       4.605   3.479  18.773  0.00  0.00    +0.000 C 
ATOM     22  C   UNL     1       3.709   2.315  19.185  0.00  0.00    +0.000 C 
ATOM     23  C   UNL     1       3.015   1.915  17.894  0.00  0.00    +0.000 C 
ATOM     24  C   UNL     1       2.722   3.240  17.196  0.00  0.00    +0.000 C 
ATOM     25  C   UNL     1       3.208   5.497  18.232  0.00  0.00    +0.000 C 
ATOM     26  O   UNL     1       2.394   5.531  19.137  0.00  0.00    +0.000 OA
ATOM     27  N   UNL     1       3.759   6.565  17.566  0.00  0.00    +0.000 N 
ATOM     28  H   UNL     1       5.240   4.219  16.002  0.00  0.00    +0.000 HD
ENDBRANCH  16  27
ENDBRANCH   1  16
TORSDOF 3
ENDMDL
