MODEL 1
REMARK VINA RESULT:      -8.8      0.000      0.000
REMARK  Name = 
REMARK  6 active torsions:
REMARK  status: ('A' for Active; 'I' for Inactive)
REMARK    1  A    between atoms: N_1  and  S_2
REMARK    2  A    between atoms: S_2  and  C_5
REMARK    3  A    between atoms: C_8  and  C_9
REMARK    4  A    between atoms: C_9  and  N_10
REMARK    5  A    between atoms: N_10  and  C_11
REMARK    6  A    between atoms: C_18  and  C_19
REMARK                            x       y       z     vdW  Elec       q    Type
REMARK                         _______ _______ _______ _____ _____    ______ ____
ROOT
ATOM      1  C   UNL     1       2.434   5.126  20.000  0.00  0.00    +0.000 A 
ATOM      2  N   UNL     1       1.301   4.742  20.631  0.00  0.00    +0.000 NA
ATOM      3  C   UNL     1       0.845   3.494  20.484  0.00  0.00    +0.000 A 
ATOM      4  N   UNL     1       1.383   2.528  19.749  0.00  0.00    +0.000 NA
ATOM      5  C   UNL     1       2.496   2.923  19.114  0.00  0.00    +0.000 A 
ATOM      6  S   UNL     1       3.312   1.820  18.110  0.00  0.00    +0.000 S 
ATOM      7  C   UNL     1       4.509   2.964  17.727  0.00  0.00    +0.000 A 
ATOM      8  C   UNL     1       4.319   4.191  18.346  0.00  0.00    +0.000 A 
ATOM      9  C   UNL     1       3.103   4.176  19.170  0.00  0.00    +0.000 A 
ENDROOT
BRANCH   8  10
ATOM     10  C   UNL     1       5.317   5.256  18.139  0.00  0.00    +0.000 A 
ATOM     11  C   UNL     1       6.518   5.287  18.860  0.00  0.00    +0.000 A 
ATOM     12  C   UNL     1       7.526   6.204  18.547  0.00  0.00    +0.000 A 
ATOM     13  C   UNL     1       7.285   7.184  17.596  0.00  0.00    +0.000 A 
ATOM     14  F   UNL     1       8.236   8.085  17.319  0.00  0.00    +0.000 F 
ATOM     15  C   UNL     1       6.065   7.248  16.938  0.00  0.00    +0.000 A 
ATOM     16  C   UNL     1       5.094   6.273  17.190  0.00  0.00    +0.000 A 
ENDBRANCH   8  10
BRANCH   1  17
ATOM     17  N   UNL     1       2.867   6.439  20.149  0.00  0.00    +0.000 N 
ATOM     18  H   UNL     1       2.770   6.747  21.106  0.00  0.00    +0.000 HD
BRANCH  17  19
ATOM     19  C   UNL     1       2.383   7.449  19.230  0.00  0.00    +0.000 C 
BRANCH  19  23
ATOM     20  C   UNL     1       0.012  10.485  21.190  0.00  0.00    +0.000 A 
ATOM     21  C   UNL     1       0.426   9.373  21.930  0.00  0.00    +0.000 A 
ATOM     22  C   UNL     1       1.165   8.363  21.301  0.00  0.00    +0.000 A 
ATOM     23  C   UNL     1       1.471   8.446  19.929  0.00  0.00    +0.000 A 
ATOM     24  C   UNL     1       1.023   9.562  19.206  0.00  0.00    +0.000 A 
ATOM     25  C   UNL     1       0.295  10.575  19.826  0.00  0.00    +0.000 A 
BRANCH  20  26
ATOM     26  S   UNL     1      -0.840  11.823  21.974  0.00  0.00    +0.000 S 
ATOM     27  O   UNL     1      -1.014  11.519  23.368  0.00  0.00    +0.000 OA
ATOM     28  O   UNL     1      -1.927  12.262  21.128  0.00  0.00    +0.000 OA
BRANCH  26  29
ATOM     29  N   UNL     1       0.300  13.065  21.892  0.00  0.00    +0.000 NA
ATOM     30  H   UNL     1      -0.171  13.962  22.047  0.00  0.00    +0.000 HD
ATOM     31  H   UNL     1       0.808  13.019  21.012  0.00  0.00    +0.000 HD
ENDBRANCH  26  29
ENDBRANCH  20  26
ENDBRANCH  19  23
ENDBRANCH  17  19
ENDBRANCH   1  17
TORSDOF 6
ENDMDL
MODEL 2
REMARK VINA RESULT:      -8.7      0.721      1.261
REMARK  Name = 
REMARK  6 active torsions:
REMARK  status: ('A' for Active; 'I' for Inactive)
REMARK    1  A    between atoms: N_1  and  S_2
REMARK    2  A    between atoms: S_2  and  C_5
REMARK    3  A    between atoms: C_8  and  C_9
REMARK    4  A    between atoms: C_9  and  N_10
REMARK    5  A    between atoms: N_10  and  C_11
REMARK    6  A    between atoms: C_18  and  C_19
REMARK                            x       y       z     vdW  Elec       q    Type
REMARK                         _______ _______ _______ _____ _____    ______ ____
ROOT
ATOM      1  C   UNL     1       2.555   4.988  20.042  0.00  0.00    +0.000 A 
ATOM      2  N   UNL     1       1.464   4.645  20.763  0.00  0.00    +0.000 NA
ATOM      3  C   UNL     1       0.997   3.393  20.714  0.00  0.00    +0.000 A 
ATOM      4  N   UNL     1       1.487   2.385  20.000  0.00  0.00    +0.000 NA
ATOM      5  C   UNL     1       2.558   2.739  19.276  0.00  0.00    +0.000 A 
ATOM      6  S   UNL     1       3.306   1.579  18.284  0.00  0.00    +0.000 S 
ATOM      7  C   UNL     1       4.479   2.695  17.764  0.00  0.00    +0.000 A 
ATOM      8  C   UNL     1       4.331   3.954  18.326  0.00  0.00    +0.000 A 
ATOM      9  C   UNL     1       3.169   3.990  19.225  0.00  0.00    +0.000 A 
ENDROOT
BRANCH   8  10
ATOM     10  C   UNL     1       5.314   5.002  17.998  0.00  0.00    +0.000 A 
ATOM     11  C   UNL     1       5.096   5.913  16.955  0.00  0.00    +0.000 A 
ATOM     12  C   UNL     1       5.953   6.999  16.753  0.00  0.00    +0.000 A 
ATOM     13  C   UNL     1       7.108   7.107  17.511  0.00  0.00    +0.000 A 
ATOM     14  F   UNL     1       7.949   8.127  17.296  0.00  0.00    +0.000 F 
ATOM     15  C   UNL     1       7.410   6.162  18.481  0.00  0.00    +0.000 A 
ATOM     16  C   UNL     1       6.504   5.127  18.742  0.00  0.00    +0.000 A 
ENDBRANCH   8  10
BRANCH   1  17
ATOM     17  N   UNL     1       2.999   6.305  20.091  0.00  0.00    +0.000 N 
ATOM     18  H   UNL     1       2.928   6.677  21.027  0.00  0.00    +0.000 HD
BRANCH  17  19
ATOM     19  C   UNL     1       2.496   7.254  19.118  0.00  0.00    +0.000 C 
BRANCH  19  23
ATOM     20  C   UNL     1       0.209  10.424  20.964  0.00  0.00    +0.000 A 
ATOM     21  C   UNL     1       0.510   9.284  21.717  0.00  0.00    +0.000 A 
ATOM     22  C   UNL     1       1.219   8.233  21.123  0.00  0.00    +0.000 A 
ATOM     23  C   UNL     1       1.610   8.303  19.772  0.00  0.00    +0.000 A 
ATOM     24  C   UNL     1       1.275   9.448  19.033  0.00  0.00    +0.000 A 
ATOM     25  C   UNL     1       0.576  10.503  19.618  0.00  0.00    +0.000 A 
BRANCH  20  26
ATOM     26  S   UNL     1      -0.602  11.809  21.708  0.00  0.00    +0.000 S 
ATOM     27  O   UNL     1      -1.856  12.035  21.041  0.00  0.00    +0.000 OA
ATOM     28  O   UNL     1       0.362  12.862  21.941  0.00  0.00    +0.000 OA
BRANCH  26  29
ATOM     29  N   UNL     1      -0.974  11.217  23.244  0.00  0.00    +0.000 NA
ATOM     30  H   UNL     1      -0.333  10.451  23.471  0.00  0.00    +0.000 HD
ATOM     31  H   UNL     1      -1.956  10.955  23.291  0.00  0.00    +0.000 HD
ENDBRANCH  26  29
ENDBRANCH  20  26
ENDBRANCH  19  23
ENDBRANCH  17  19
ENDBRANCH   1  17
TORSDOF 6
ENDMDL
MODEL 3
REMARK VINA RESULT:      -8.4      1.693      2.023
REMARK  Name = 
REMARK  6 active torsions:
REMARK  status: ('A' for Active; 'I' for Inactive)
REMARK    1  A    between atoms: N_1  and  S_2
REMARK    2  A    between atoms: S_2  and  C_5
REMARK    3  A    between atoms: C_8  and  C_9
REMARK    4  A    between atoms: C_9  and  N_10
REMARK    5  A    between atoms: N_10  and  C_11
REMARK    6  A    between atoms: C_18  and  C_19
REMARK                            x       y       z     vdW  Elec       q    Type
REMARK                         _______ _______ _______ _____ _____    ______ ____
ROOT
ATOM      1  C   UNL     1       2.266   5.178  19.844  0.00  0.00    +0.000 A 
ATOM      2  N   UNL     1       1.109   4.806  20.437  0.00  0.00    +0.000 NA
ATOM      3  C   UNL     1       0.692   3.539  20.353  0.00  0.00    +0.000 A 
ATOM      4  N   UNL     1       1.295   2.540  19.717  0.00  0.00    +0.000 NA
ATOM      5  C   UNL     1       2.432   2.922  19.119  0.00  0.00    +0.000 A 
ATOM      6  S   UNL     1       3.330   1.777  18.240  0.00  0.00    +0.000 S 
ATOM      7  C   UNL     1       4.519   2.926  17.845  0.00  0.00    +0.000 A 
ATOM      8  C   UNL     1       4.265   4.186  18.365  0.00  0.00    +0.000 A 
ATOM      9  C   UNL     1       3.004   4.193  19.121  0.00  0.00    +0.000 A 
ENDROOT
BRANCH   8  10
ATOM     10  C   UNL     1       5.246   5.263  18.140  0.00  0.00    +0.000 A 
ATOM     11  C   UNL     1       6.471   5.293  18.820  0.00  0.00    +0.000 A 
ATOM     12  C   UNL     1       7.460   6.223  18.486  0.00  0.00    +0.000 A 
ATOM     13  C   UNL     1       7.179   7.214  17.558  0.00  0.00    +0.000 A 
ATOM     14  F   UNL     1       8.113   8.127  17.262  0.00  0.00    +0.000 F 
ATOM     15  C   UNL     1       5.937   7.277  16.943  0.00  0.00    +0.000 A 
ATOM     16  C   UNL     1       4.983   6.291  17.213  0.00  0.00    +0.000 A 
ENDBRANCH   8  10
BRANCH   1  17
ATOM     17  N   UNL     1       2.658   6.510  19.925  0.00  0.00    +0.000 N 
ATOM     18  H   UNL     1       3.665   6.590  19.959  0.00  0.00    +0.000 HD
BRANCH  17  19
ATOM     19  C   UNL     1       2.037   7.368  20.914  0.00  0.00    +0.000 C 
BRANCH  19  23
ATOM     20  C   UNL     1      -0.270  10.533  19.085  0.00  0.00    +0.000 A 
ATOM     21  C   UNL     1       0.675   9.854  18.309  0.00  0.00    +0.000 A 
ATOM     22  C   UNL     1       1.456   8.851  18.895  0.00  0.00    +0.000 A 
ATOM     23  C   UNL     1       1.315   8.536  20.261  0.00  0.00    +0.000 A 
ATOM     24  C   UNL     1       0.375   9.249  21.022  0.00  0.00    +0.000 A 
ATOM     25  C   UNL     1      -0.412  10.244  20.444  0.00  0.00    +0.000 A 
BRANCH  20  26
ATOM     26  S   UNL     1      -1.338  11.739  18.355  0.00  0.00    +0.000 S 
ATOM     27  O   UNL     1      -0.573  12.913  18.033  0.00  0.00    +0.000 OA
ATOM     28  O   UNL     1      -2.580  11.793  19.094  0.00  0.00    +0.000 OA
BRANCH  26  29
ATOM     29  N   UNL     1      -1.741  11.012  16.886  0.00  0.00    +0.000 NA
ATOM     30  H   UNL     1      -1.807   9.998  17.022  0.00  0.00    +0.000 HD
ATOM     31  H   UNL     1      -1.078  11.284  16.164  0.00  0.00    +0.000 HD
ENDBRANCH  26  29
ENDBRANCH  20  26
ENDBRANCH  19  23
ENDBRANCH  17  19
ENDBRANCH   1  17
TORSDOF 6
ENDMDL
MODEL 4
REMARK VINA RESULT:      -8.3      1.336      1.423
REMARK  Name = 
REMARK  6 active torsions:
REMARK  status: ('A' for Active; 'I' for Inactive)
REMARK    1  A    between atoms: N_1  and  S_2
REMARK    2  A    between atoms: S_2  and  C_5
REMARK    3  A    between atoms: C_8  and  C_9
REMARK    4  A    between atoms: C_9  and  N_10
REMARK    5  A    between atoms: N_10  and  C_11
REMARK    6  A    between atoms: C_18  and  C_19
REMARK                            x       y       z     vdW  Elec       q    Type
REMARK                         _______ _______ _______ _____ _____    ______ ____
ROOT
ATOM      1  C   UNL     1       2.314   5.189  19.875  0.00  0.00    +0.000 A 
ATOM      2  N   UNL     1       1.165   4.849  20.502  0.00  0.00    +0.000 NA
ATOM      3  C   UNL     1       0.710   3.594  20.428  0.00  0.00    +0.000 A 
ATOM      4  N   UNL     1       1.265   2.581  19.772  0.00  0.00    +0.000 NA
ATOM      5  C   UNL     1       2.394   2.932  19.140  0.00  0.00    +0.000 A 
ATOM      6  S   UNL     1       3.231   1.765  18.232  0.00  0.00    +0.000 S 
ATOM      7  C   UNL     1       4.440   2.881  17.803  0.00  0.00    +0.000 A 
ATOM      8  C   UNL     1       4.238   4.146  18.334  0.00  0.00    +0.000 A 
ATOM      9  C   UNL     1       3.002   4.186  19.127  0.00  0.00    +0.000 A 
ENDROOT
BRANCH   8  10
ATOM     10  C   UNL     1       5.242   5.195  18.081  0.00  0.00    +0.000 A 
ATOM     11  C   UNL     1       6.350   5.367  18.921  0.00  0.00    +0.000 A 
ATOM     12  C   UNL     1       7.379   6.254  18.588  0.00  0.00    +0.000 A 
ATOM     13  C   UNL     1       7.241   7.072  17.477  0.00  0.00    +0.000 A 
ATOM     14  F   UNL     1       8.209   7.947  17.175  0.00  0.00    +0.000 F 
ATOM     15  C   UNL     1       6.106   7.002  16.682  0.00  0.00    +0.000 A 
ATOM     16  C   UNL     1       5.121   6.050  16.968  0.00  0.00    +0.000 A 
ENDBRANCH   8  10
BRANCH   1  17
ATOM     17  N   UNL     1       2.746   6.510  19.947  0.00  0.00    +0.000 N 
ATOM     18  H   UNL     1       2.362   6.974  20.758  0.00  0.00    +0.000 HD
BRANCH  17  19
ATOM     19  C   UNL     1       2.639   7.350  18.771  0.00  0.00    +0.000 C 
BRANCH  19  23
ATOM     20  C   UNL     1      -0.050  10.699  19.263  0.00  0.00    +0.000 A 
ATOM     21  C   UNL     1       0.324   9.964  20.393  0.00  0.00    +0.000 A 
ATOM     22  C   UNL     1       1.166   8.855  20.247  0.00  0.00    +0.000 A 
ATOM     23  C   UNL     1       1.618   8.459  18.972  0.00  0.00    +0.000 A 
ATOM     24  C   UNL     1       1.208   9.201  17.853  0.00  0.00    +0.000 A 
ATOM     25  C   UNL     1       0.377  10.311  17.991  0.00  0.00    +0.000 A 
BRANCH  20  26
ATOM     26  S   UNL     1      -1.035  12.160  19.422  0.00  0.00    +0.000 S 
ATOM     27  O   UNL     1      -0.276  13.167  20.113  0.00  0.00    +0.000 OA
ATOM     28  O   UNL     1      -2.380  11.794  19.805  0.00  0.00    +0.000 OA
BRANCH  26  29
ATOM     29  N   UNL     1      -1.167  12.674  17.820  0.00  0.00    +0.000 NA
ATOM     30  H   UNL     1      -0.323  12.395  17.309  0.00  0.00    +0.000 HD
ATOM     31  H   UNL     1      -1.353  13.673  17.785  0.00  0.00    +0.000 HD
ENDBRANCH  26  29
ENDBRANCH  20  26
ENDBRANCH  19  23
ENDBRANCH  17  19
ENDBRANCH   1  17
TORSDOF 6
ENDMDL
MODEL 5
REMARK VINA RESULT:      -8.3      1.648      2.250
REMARK  Name = 
REMARK  6 active torsions:
REMARK  status: ('A' for Active; 'I' for Inactive)
REMARK    1  A    between atoms: N_1  and  S_2
REMARK    2  A    between atoms: S_2  and  C_5
REMARK    3  A    between atoms: C_8  and  C_9
REMARK    4  A    between atoms: C_9  and  N_10
REMARK    5  A    between atoms: N_10  and  C_11
REMARK    6  A    between atoms: C_18  and  C_19
REMARK                            x       y       z     vdW  Elec       q    Type
REMARK                         _______ _______ _______ _____ _____    ______ ____
ROOT
ATOM      1  C   UNL     1       2.302   5.356  19.764  0.00  0.00    +0.000 A 
ATOM      2  N   UNL     1       1.146   5.067  20.404  0.00  0.00    +0.000 NA
ATOM      3  C   UNL     1       0.685   3.812  20.414  0.00  0.00    +0.000 A 
ATOM      4  N   UNL     1       1.239   2.752  19.835  0.00  0.00    +0.000 NA
ATOM      5  C   UNL     1       2.375   3.052  19.190  0.00  0.00    +0.000 A 
ATOM      6  S   UNL     1       3.214   1.820  18.373  0.00  0.00    +0.000 S 
ATOM      7  C   UNL     1       4.432   2.897  17.877  0.00  0.00    +0.000 A 
ATOM      8  C   UNL     1       4.233   4.197  18.317  0.00  0.00    +0.000 A 
ATOM      9  C   UNL     1       2.990   4.299  19.095  0.00  0.00    +0.000 A 
ENDROOT
BRANCH   8  10
ATOM     10  C   UNL     1       5.245   5.220  17.999  0.00  0.00    +0.000 A 
ATOM     11  C   UNL     1       4.989   6.243  17.075  0.00  0.00    +0.000 A 
ATOM     12  C   UNL     1       5.888   7.299  16.898  0.00  0.00    +0.000 A 
ATOM     13  C   UNL     1       7.112   7.269  17.549  0.00  0.00    +0.000 A 
ATOM     14  F   UNL     1       7.990   8.261  17.354  0.00  0.00    +0.000 F 
ATOM     15  C   UNL     1       7.442   6.215  18.389  0.00  0.00    +0.000 A 
ATOM     16  C   UNL     1       6.502   5.208  18.634  0.00  0.00    +0.000 A 
ENDBRANCH   8  10
BRANCH   1  17
ATOM     17  N   UNL     1       2.742   6.676  19.747  0.00  0.00    +0.000 N 
ATOM     18  H   UNL     1       3.751   6.722  19.745  0.00  0.00    +0.000 HD
BRANCH  17  19
ATOM     19  C   UNL     1       2.183   7.617  20.697  0.00  0.00    +0.000 C 
BRANCH  19  23
ATOM     20  C   UNL     1      -0.553  10.345  18.758  0.00  0.00    +0.000 A 
ATOM     21  C   UNL     1       0.509   9.816  18.016  0.00  0.00    +0.000 A 
ATOM     22  C   UNL     1       1.424   8.959  18.639  0.00  0.00    +0.000 A 
ATOM     23  C   UNL     1       1.300   8.645  20.007  0.00  0.00    +0.000 A 
ATOM     24  C   UNL     1       0.238   9.208  20.731  0.00  0.00    +0.000 A 
ATOM     25  C   UNL     1      -0.682  10.055  20.118  0.00  0.00    +0.000 A 
BRANCH  20  26
ATOM     26  S   UNL     1      -1.781  11.354  17.981  0.00  0.00    +0.000 S 
ATOM     27  O   UNL     1      -2.753  11.753  18.963  0.00  0.00    +0.000 OA
ATOM     28  O   UNL     1      -2.147  10.773  16.709  0.00  0.00    +0.000 OA
BRANCH  26  29
ATOM     29  N   UNL     1      -0.902  12.739  17.586  0.00  0.00    +0.000 NA
ATOM     30  H   UNL     1      -0.264  12.522  16.814  0.00  0.00    +0.000 HD
ATOM     31  H   UNL     1      -0.432  13.106  18.411  0.00  0.00    +0.000 HD
ENDBRANCH  26  29
ENDBRANCH  20  26
ENDBRANCH  19  23
ENDBRANCH  17  19
ENDBRANCH   1  17
TORSDOF 6
ENDMDL
MODEL 6
REMARK VINA RESULT:      -8.3      0.715      1.197
REMARK  Name = 
REMARK  6 active torsions:
REMARK  status: ('A' for Active; 'I' for Inactive)
REMARK    1  A    between atoms: N_1  and  S_2
REMARK    2  A    between atoms: S_2  and  C_5
REMARK    3  A    between atoms: C_8  and  C_9
REMARK    4  A    between atoms: C_9  and  N_10
REMARK    5  A    between atoms: N_10  and  C_11
REMARK    6  A    between atoms: C_18  and  C_19
REMARK                            x       y       z     vdW  Elec       q    Type
REMARK                         _______ _______ _______ _____ _____    ______ ____
ROOT
ATOM      1  C   UNL     1       2.345   5.152  19.901  0.00  0.00    +0.000 A 
ATOM      2  N   UNL     1       1.194   4.807  20.520  0.00  0.00    +0.000 NA
ATOM      3  C   UNL     1       0.757   3.545  20.463  0.00  0.00    +0.000 A 
ATOM      4  N   UNL     1       1.333   2.528  19.831  0.00  0.00    +0.000 NA
ATOM      5  C   UNL     1       2.465   2.884  19.207  0.00  0.00    +0.000 A 
ATOM      6  S   UNL     1       3.329   1.712  18.329  0.00  0.00    +0.000 S 
ATOM      7  C   UNL     1       4.528   2.837  17.895  0.00  0.00    +0.000 A 
ATOM      8  C   UNL     1       4.302   4.108  18.401  0.00  0.00    +0.000 A 
ATOM      9  C   UNL     1       3.056   4.145  19.179  0.00  0.00    +0.000 A 
ENDROOT
BRANCH   8  10
ATOM     10  C   UNL     1       5.294   5.167  18.141  0.00  0.00    +0.000 A 
ATOM     11  C   UNL     1       6.414   5.341  18.967  0.00  0.00    +0.000 A 
ATOM     12  C   UNL     1       7.431   6.237  18.626  0.00  0.00    +0.000 A 
ATOM     13  C   UNL     1       7.272   7.062  17.523  0.00  0.00    +0.000 A 
ATOM     14  F   UNL     1       8.228   7.947  17.214  0.00  0.00    +0.000 F 
ATOM     15  C   UNL     1       6.125   6.991  16.745  0.00  0.00    +0.000 A 
ATOM     16  C   UNL     1       5.152   6.029  17.037  0.00  0.00    +0.000 A 
ENDBRANCH   8  10
BRANCH   1  17
ATOM     17  N   UNL     1       2.759   6.479  19.954  0.00  0.00    +0.000 N 
ATOM     18  H   UNL     1       2.467   6.916  20.817  0.00  0.00    +0.000 HD
BRANCH  17  19
ATOM     19  C   UNL     1       2.496   7.345  18.822  0.00  0.00    +0.000 C 
BRANCH  19  23
ATOM     20  C   UNL     1      -0.101  10.587  20.018  0.00  0.00    +0.000 A 
ATOM     21  C   UNL     1       0.344  10.534  18.692  0.00  0.00    +0.000 A 
ATOM     22  C   UNL     1       1.215   9.511  18.298  0.00  0.00    +0.000 A 
ATOM     23  C   UNL     1       1.663   8.551  19.226  0.00  0.00    +0.000 A 
ATOM     24  C   UNL     1       1.219   8.641  20.554  0.00  0.00    +0.000 A 
ATOM     25  C   UNL     1       0.346   9.651  20.954  0.00  0.00    +0.000 A 
BRANCH  20  26
ATOM     26  S   UNL     1      -1.274  11.809  20.527  0.00  0.00    +0.000 S 
ATOM     27  O   UNL     1      -1.490  11.693  21.944  0.00  0.00    +0.000 OA
ATOM     28  O   UNL     1      -2.358  11.863  19.572  0.00  0.00    +0.000 OA
BRANCH  26  29
ATOM     29  N   UNL     1      -0.416  13.243  20.289  0.00  0.00    +0.000 NA
ATOM     30  H   UNL     1      -0.928  13.832  19.624  0.00  0.00    +0.000 HD
ATOM     31  H   UNL     1       0.538  13.039  20.001  0.00  0.00    +0.000 HD
ENDBRANCH  26  29
ENDBRANCH  20  26
ENDBRANCH  19  23
ENDBRANCH  17  19
ENDBRANCH   1  17
TORSDOF 6
ENDMDL
MODEL 7
REMARK VINA RESULT:      -8.1      1.037      1.758
REMARK  Name = 
REMARK  6 active torsions:
REMARK  status: ('A' for Active; 'I' for Inactive)
REMARK    1  A    between atoms: N_1  and  S_2
REMARK    2  A    between atoms: S_2  and  C_5
REMARK    3  A    between atoms: C_8  and  C_9
REMARK    4  A    between atoms: C_9  and  N_10
REMARK    5  A    between atoms: N_10  and  C_11
REMARK    6  A    between atoms: C_18  and  C_19
REMARK                            x       y       z     vdW  Elec       q    Type
REMARK                         _______ _______ _______ _____ _____    ______ ____
ROOT
ATOM      1  C   UNL     1       2.445   5.215  19.829  0.00  0.00    +0.000 A 
ATOM      2  N   UNL     1       1.299   4.933  20.489  0.00  0.00    +0.000 NA
ATOM      3  C   UNL     1       0.847   3.676  20.536  0.00  0.00    +0.000 A 
ATOM      4  N   UNL     1       1.402   2.606  19.977  0.00  0.00    +0.000 NA
ATOM      5  C   UNL     1       2.528   2.898  19.311  0.00  0.00    +0.000 A 
ATOM      6  S   UNL     1       3.365   1.651  18.515  0.00  0.00    +0.000 S 
ATOM      7  C   UNL     1       4.570   2.724  17.977  0.00  0.00    +0.000 A 
ATOM      8  C   UNL     1       4.366   4.033  18.387  0.00  0.00    +0.000 A 
ATOM      9  C   UNL     1       3.133   4.146  19.177  0.00  0.00    +0.000 A 
ENDROOT
BRANCH   8  10
ATOM     10  C   UNL     1       5.367   5.056  18.032  0.00  0.00    +0.000 A 
ATOM     11  C   UNL     1       5.196   5.895  16.922  0.00  0.00    +0.000 A 
ATOM     12  C   UNL     1       6.065   6.965  16.685  0.00  0.00    +0.000 A 
ATOM     13  C   UNL     1       7.188   7.121  17.482  0.00  0.00    +0.000 A 
ATOM     14  F   UNL     1       8.041   8.124  17.235  0.00  0.00    +0.000 F 
ATOM     15  C   UNL     1       7.445   6.242  18.524  0.00  0.00    +0.000 A 
ATOM     16  C   UNL     1       6.525   5.229  18.814  0.00  0.00    +0.000 A 
ENDBRANCH   8  10
BRANCH   1  17
ATOM     17  N   UNL     1       2.875   6.536  19.773  0.00  0.00    +0.000 N 
ATOM     18  H   UNL     1       2.658   7.025  20.630  0.00  0.00    +0.000 HD
BRANCH  17  19
ATOM     19  C   UNL     1       2.528   7.341  18.619  0.00  0.00    +0.000 C 
BRANCH  19  23
ATOM     20  C   UNL     1       0.368  10.900  19.782  0.00  0.00    +0.000 A 
ATOM     21  C   UNL     1       0.993  10.871  18.531  0.00  0.00    +0.000 A 
ATOM     22  C   UNL     1       1.727   9.739  18.153  0.00  0.00    +0.000 A 
ATOM     23  C   UNL     1       1.860   8.644  19.029  0.00  0.00    +0.000 A 
ATOM     24  C   UNL     1       1.242   8.710  20.287  0.00  0.00    +0.000 A 
ATOM     25  C   UNL     1       0.503   9.828  20.668  0.00  0.00    +0.000 A 
BRANCH  20  26
ATOM     26  S   UNL     1      -0.644  12.272  20.253  0.00  0.00    +0.000 S 
ATOM     27  O   UNL     1       0.197  13.403  20.535  0.00  0.00    +0.000 OA
ATOM     28  O   UNL     1      -1.677  11.820  21.159  0.00  0.00    +0.000 OA
BRANCH  26  29
ATOM     29  N   UNL     1      -1.455  12.623  18.815  0.00  0.00    +0.000 NA
ATOM     30  H   UNL     1      -2.396  12.965  19.037  0.00  0.00    +0.000 HD
ATOM     31  H   UNL     1      -1.451  11.812  18.201  0.00  0.00    +0.000 HD
ENDBRANCH  26  29
ENDBRANCH  20  26
ENDBRANCH  19  23
ENDBRANCH  17  19
ENDBRANCH   1  17
TORSDOF 6
ENDMDL
MODEL 8
REMARK VINA RESULT:      -8.0      1.629      2.035
REMARK  Name = 
REMARK  6 active torsions:
REMARK  status: ('A' for Active; 'I' for Inactive)
REMARK    1  A    between atoms: N_1  and  S_2
REMARK    2  A    between atoms: S_2  and  C_5
REMARK    3  A    between atoms: C_8  and  C_9
REMARK    4  A    between atoms: C_9  and  N_10
REMARK    5  A    between atoms: N_10  and  C_11
REMARK    6  A    between atoms: C_18  and  C_19
REMARK                            x       y       z     vdW  Elec       q    Type
REMARK                         _______ _______ _______ _____ _____    ______ ____
ROOT
ATOM      1  C   UNL     1       2.288   5.218  19.787  0.00  0.00    +0.000 A 
ATOM      2  N   UNL     1       1.150   4.891  20.441  0.00  0.00    +0.000 NA
ATOM      3  C   UNL     1       0.694   3.635  20.399  0.00  0.00    +0.000 A 
ATOM      4  N   UNL     1       1.236   2.609  19.753  0.00  0.00    +0.000 NA
ATOM      5  C   UNL     1       2.354   2.947  19.095  0.00  0.00    +0.000 A 
ATOM      6  S   UNL     1       3.174   1.761  18.195  0.00  0.00    +0.000 S 
ATOM      7  C   UNL     1       4.376   2.867  17.723  0.00  0.00    +0.000 A 
ATOM      8  C   UNL     1       4.184   4.143  18.233  0.00  0.00    +0.000 A 
ATOM      9  C   UNL     1       2.962   4.200  19.047  0.00  0.00    +0.000 A 
ENDROOT
BRANCH   8  10
ATOM     10  C   UNL     1       5.184   5.186  17.941  0.00  0.00    +0.000 A 
ATOM     11  C   UNL     1       4.914   6.231  17.047  0.00  0.00    +0.000 A 
ATOM     12  C   UNL     1       5.801   7.301  16.898  0.00  0.00    +0.000 A 
ATOM     13  C   UNL     1       7.027   7.266  17.543  0.00  0.00    +0.000 A 
ATOM     14  F   UNL     1       7.894   8.272  17.374  0.00  0.00    +0.000 F 
ATOM     15  C   UNL     1       7.371   6.193  18.353  0.00  0.00    +0.000 A 
ATOM     16  C   UNL     1       6.443   5.169  18.571  0.00  0.00    +0.000 A 
ENDBRANCH   8  10
BRANCH   1  17
ATOM     17  N   UNL     1       2.722   6.539  19.825  0.00  0.00    +0.000 N 
ATOM     18  H   UNL     1       3.730   6.591  19.783  0.00  0.00    +0.000 HD
BRANCH  17  19
ATOM     19  C   UNL     1       2.202   7.422  20.849  0.00  0.00    +0.000 C 
BRANCH  19  23
ATOM     20  C   UNL     1      -0.251  10.562  19.172  0.00  0.00    +0.000 A 
ATOM     21  C   UNL     1      -0.518  10.122  20.473  0.00  0.00    +0.000 A 
ATOM     22  C   UNL     1       0.245   9.081  21.018  0.00  0.00    +0.000 A 
ATOM     23  C   UNL     1       1.258   8.459  20.261  0.00  0.00    +0.000 A 
ATOM     24  C   UNL     1       1.488   8.906  18.951  0.00  0.00    +0.000 A 
ATOM     25  C   UNL     1       0.740   9.946  18.403  0.00  0.00    +0.000 A 
BRANCH  20  26
ATOM     26  S   UNL     1      -1.130  11.935  18.486  0.00  0.00    +0.000 S 
ATOM     27  O   UNL     1      -0.199  12.989  18.188  0.00  0.00    +0.000 OA
ATOM     28  O   UNL     1      -2.344  12.154  19.241  0.00  0.00    +0.000 OA
BRANCH  26  29
ATOM     29  N   UNL     1      -1.649  11.319  17.003  0.00  0.00    +0.000 NA
ATOM     30  H   UNL     1      -1.190  10.417  16.837  0.00  0.00    +0.000 HD
ATOM     31  H   UNL     1      -1.489  11.999  16.264  0.00  0.00    +0.000 HD
ENDBRANCH  26  29
ENDBRANCH  20  26
ENDBRANCH  19  23
ENDBRANCH  17  19
ENDBRANCH   1  17
TORSDOF 6
ENDMDL
MODEL 9
REMARK VINA RESULT:      -7.9      1.439      1.905
REMARK  Name = 
REMARK  6 active torsions:
REMARK  status: ('A' for Active; 'I' for Inactive)
REMARK    1  A    between atoms: N_1  and  S_2
REMARK    2  A    between atoms: S_2  and  C_5
REMARK    3  A    between atoms: C_8  and  C_9
REMARK    4  A    between atoms: C_9  and  N_10
REMARK    5  A    between atoms: N_10  and  C_11
REMARK    6  A    between atoms: C_18  and  C_19
REMARK                            x       y       z     vdW  Elec       q    Type
REMARK                         _______ _______ _______ _____ _____    ______ ____
ROOT
ATOM      1  C   UNL     1       2.451   5.373  19.960  0.00  0.00    +0.000 A 
ATOM      2  N   UNL     1       1.274   5.059  20.545  0.00  0.00    +0.000 NA
ATOM      3  C   UNL     1       0.919   3.778  20.688  0.00  0.00    +0.000 A 
ATOM      4  N   UNL     1       1.607   2.710  20.297  0.00  0.00    +0.000 NA
ATOM      5  C   UNL     1       2.764   3.032  19.703  0.00  0.00    +0.000 A 
ATOM      6  S   UNL     1       3.769   1.791  19.121  0.00  0.00    +0.000 S 
ATOM      7  C   UNL     1       4.931   2.906  18.578  0.00  0.00    +0.000 A 
ATOM      8  C   UNL     1       4.588   4.226  18.825  0.00  0.00    +0.000 A 
ATOM      9  C   UNL     1       3.279   4.309  19.489  0.00  0.00    +0.000 A 
ENDROOT
BRANCH   8  10
ATOM     10  C   UNL     1       5.534   5.292  18.449  0.00  0.00    +0.000 A 
ATOM     11  C   UNL     1       6.731   5.490  19.152  0.00  0.00    +0.000 A 
ATOM     12  C   UNL     1       7.696   6.394  18.695  0.00  0.00    +0.000 A 
ATOM     13  C   UNL     1       7.412   7.201  17.604  0.00  0.00    +0.000 A 
ATOM     14  F   UNL     1       8.320   8.092  17.186  0.00  0.00    +0.000 F 
ATOM     15  C   UNL     1       6.192   7.106  16.950  0.00  0.00    +0.000 A 
ATOM     16  C   UNL     1       5.267   6.138  17.355  0.00  0.00    +0.000 A 
ENDBRANCH   8  10
BRANCH   1  17
ATOM     17  N   UNL     1       2.779   6.715  19.800  0.00  0.00    +0.000 N 
ATOM     18  H   UNL     1       2.452   7.264  20.582  0.00  0.00    +0.000 HD
BRANCH  17  19
ATOM     19  C   UNL     1       2.472   7.370  18.544  0.00  0.00    +0.000 C 
BRANCH  19  23
ATOM     20  C   UNL     1       0.684  11.268  19.085  0.00  0.00    +0.000 A 
ATOM     21  C   UNL     1       1.659  11.106  18.095  0.00  0.00    +0.000 A 
ATOM     22  C   UNL     1       2.274   9.859  17.931  0.00  0.00    +0.000 A 
ATOM     23  C   UNL     1       1.937   8.776  18.766  0.00  0.00    +0.000 A 
ATOM     24  C   UNL     1       0.972   8.973  19.766  0.00  0.00    +0.000 A 
ATOM     25  C   UNL     1       0.349  10.208  19.931  0.00  0.00    +0.000 A 
BRANCH  20  26
ATOM     26  S   UNL     1      -0.180  12.802  19.258  0.00  0.00    +0.000 S 
ATOM     27  O   UNL     1       0.767  13.883  19.223  0.00  0.00    +0.000 OA
ATOM     28  O   UNL     1      -1.185  12.674  20.290  0.00  0.00    +0.000 OA
BRANCH  26  29
ATOM     29  N   UNL     1      -1.052  12.881  17.815  0.00  0.00    +0.000 NA
ATOM     30  H   UNL     1      -1.702  13.673  17.860  0.00  0.00    +0.000 HD
ATOM     31  H   UNL     1      -1.507  11.991  17.628  0.00  0.00    +0.000 HD
ENDBRANCH  26  29
ENDBRANCH  20  26
ENDBRANCH  19  23
ENDBRANCH  17  19
ENDBRANCH   1  17
TORSDOF 6
ENDMDL
