MODEL 1
REMARK VINA RESULT:      -8.4      0.000      0.000
REMARK  Name = 
REMARK  5 active torsions:
REMARK  status: ('A' for Active; 'I' for Inactive)
REMARK    1  A    between atoms: C_2  and  C_4
REMARK    2  A    between atoms: N_7  and  C_8
REMARK    3  A    between atoms: C_12  and  C_14
REMARK    4  A    between atoms: C_16  and  C_17
REMARK    5  A    between atoms: C_29  and  N_30
REMARK                            x       y       z     vdW  Elec       q    Type
REMARK                         _______ _______ _______ _____ _____    ______ ____
ROOT
ATOM      1  C   UNL     1      -1.329  12.352  21.699  0.00  0.00    +0.000 C 
ATOM      2  C   UNL     1      -0.496  12.739  20.454  0.00  0.00    +0.000 C 
ATOM      3  C   UNL     1      -0.150  11.599  19.477  0.00  0.00    +0.000 C 
ATOM      4  N   UNL     1       0.185  10.357  20.170  0.00  0.00    +0.000 N 
ATOM      5  C   UNL     1       1.232   9.467  19.865  0.00  0.00    +0.000 C 
ATOM      6  O   UNL     1       1.539   8.553  20.627  0.00  0.00    +0.000 OA
ATOM      7  C   UNL     1      -0.799   9.941  21.164  0.00  0.00    +0.000 C 
ATOM      8  C   UNL     1      -0.919  10.984  22.259  0.00  0.00    +0.000 C 
ENDROOT
BRANCH   1  12
ATOM      9  C   UNL     1      -4.899  12.810  22.168  0.00  0.00    +0.000 A 
ATOM     10  N   UNL     1      -4.818  12.872  20.781  0.00  0.00    +0.000 NA
ATOM     11  C   UNL     1      -3.547  12.677  20.493  0.00  0.00    +0.000 A 
ATOM     12  N   UNL     1      -2.783  12.496  21.613  0.00  0.00    +0.000 N 
ATOM     13  C   UNL     1      -3.649  12.540  22.692  0.00  0.00    +0.000 A 
BRANCH   9  15
ATOM     14  N   UNL     1      -6.948  13.979  22.487  0.00  0.00    +0.000 N 
ATOM     15  C   UNL     1      -6.139  12.971  22.924  0.00  0.00    +0.000 C 
ATOM     16  O   UNL     1      -6.466  12.265  23.876  0.00  0.00    +0.000 OA
ATOM     17  H   UNL     1      -7.832  14.132  22.947  0.00  0.00    +0.000 HD
ATOM     18  H   UNL     1      -6.682  14.518  21.672  0.00  0.00    +0.000 HD
ENDBRANCH   9  15
BRANCH  13  19
ATOM     19  N   UNL     1      -3.243  12.365  23.975  0.00  0.00    +0.000 N 
ATOM     20  H   UNL     1      -3.799  12.699  24.756  0.00  0.00    +0.000 HD
ATOM     21  H   UNL     1      -2.239  12.511  24.154  0.00  0.00    +0.000 HD
ENDBRANCH  13  19
ENDBRANCH   1  12
BRANCH   5  22
ATOM     22  C   UNL     1       1.887   9.553  18.519  0.00  0.00    +0.000 C 
ATOM     23  C   UNL     1       1.167   8.822  17.388  0.00  0.00    +0.000 C 
ATOM     24  C   UNL     1       2.603   8.513  17.677  0.00  0.00    +0.000 C 
BRANCH  24  25
ATOM     25  C   UNL     1       3.080   7.109  18.004  0.00  0.00    +0.000 A 
ATOM     26  C   UNL     1       4.366   6.625  17.760  0.00  0.00    +0.000 A 
ATOM     27  C   UNL     1       4.635   5.246  17.736  0.00  0.00    +0.000 A 
ATOM     28  C   UNL     1       3.621   4.297  17.952  0.00  0.00    +0.000 A 
ATOM     29  C   UNL     1       3.829   2.919  17.748  0.00  0.00    +0.000 A 
ATOM     30  C   UNL     1       2.796   1.998  17.934  0.00  0.00    +0.000 A 
ATOM     31  C   UNL     1       1.554   2.437  18.380  0.00  0.00    +0.000 A 
ATOM     32  C   UNL     1       1.336   3.801  18.595  0.00  0.00    +0.000 A 
ATOM     33  C   UNL     1       2.348   4.749  18.343  0.00  0.00    +0.000 A 
ATOM     34  C   UNL     1       2.114   6.143  18.393  0.00  0.00    +0.000 A 
ENDBRANCH  24  25
ENDBRANCH   5  22
TORSDOF 5
ENDMDL
MODEL 2
REMARK VINA RESULT:      -8.1      3.959     10.287
REMARK  Name = 
REMARK  5 active torsions:
REMARK  status: ('A' for Active; 'I' for Inactive)
REMARK    1  A    between atoms: C_2  and  C_4
REMARK    2  A    between atoms: N_7  and  C_8
REMARK    3  A    between atoms: C_12  and  C_14
REMARK    4  A    between atoms: C_16  and  C_17
REMARK    5  A    between atoms: C_29  and  N_30
REMARK                            x       y       z     vdW  Elec       q    Type
REMARK                         _______ _______ _______ _____ _____    ______ ____
ROOT
ATOM      1  C   UNL     1       2.486   5.621  18.292  0.00  0.00    +0.000 C 
ATOM      2  C   UNL     1       2.355   7.039  17.684  0.00  0.00    +0.000 C 
ATOM      3  C   UNL     1       2.447   8.220  18.668  0.00  0.00    +0.000 C 
ATOM      4  N   UNL     1       1.761   7.946  19.929  0.00  0.00    +0.000 N 
ATOM      5  C   UNL     1       0.933   8.823  20.656  0.00  0.00    +0.000 C 
ATOM      6  O   UNL     1       0.257   8.428  21.602  0.00  0.00    +0.000 OA
ATOM      7  C   UNL     1       2.140   6.685  20.556  0.00  0.00    +0.000 C 
ATOM      8  C   UNL     1       1.788   5.517  19.654  0.00  0.00    +0.000 C 
ENDROOT
BRANCH   1  12
ATOM      9  C   UNL     1       5.938   4.587  17.861  0.00  0.00    +0.000 A 
ATOM     10  N   UNL     1       5.599   3.860  18.997  0.00  0.00    +0.000 NA
ATOM     11  C   UNL     1       4.331   4.136  19.226  0.00  0.00    +0.000 A 
ATOM     12  N   UNL     1       3.816   5.011  18.308  0.00  0.00    +0.000 N 
ATOM     13  C   UNL     1       4.830   5.275  17.404  0.00  0.00    +0.000 A 
BRANCH   9  15
ATOM     14  N   UNL     1       8.288   4.294  18.102  0.00  0.00    +0.000 N 
ATOM     15  C   UNL     1       7.264   4.574  17.246  0.00  0.00    +0.000 C 
ATOM     16  O   UNL     1       7.475   4.782  16.053  0.00  0.00    +0.000 OA
ATOM     17  H   UNL     1       9.229   4.244  17.741  0.00  0.00    +0.000 HD
ATOM     18  H   UNL     1       8.087   4.079  19.071  0.00  0.00    +0.000 HD
ENDBRANCH   9  15
BRANCH  13  19
ATOM     19  N   UNL     1       4.670   6.085  16.327  0.00  0.00    +0.000 N 
ATOM     20  H   UNL     1       4.942   5.788  15.396  0.00  0.00    +0.000 HD
ATOM     21  H   UNL     1       4.897   7.080  16.474  0.00  0.00    +0.000 HD
ENDBRANCH  13  19
ENDBRANCH   1  12
BRANCH   5  22
ATOM     22  C   UNL     1       0.991  10.290  20.356  0.00  0.00    +0.000 C 
ATOM     23  C   UNL     1       0.124  11.179  21.242  0.00  0.00    +0.000 C 
ATOM     24  C   UNL     1      -0.029  11.238  19.755  0.00  0.00    +0.000 C 
BRANCH  24  25
ATOM     25  C   UNL     1      -1.359  10.981  19.066  0.00  0.00    +0.000 A 
ATOM     26  C   UNL     1      -1.510  10.343  17.835  0.00  0.00    +0.000 A 
ATOM     27  C   UNL     1      -2.696  10.464  17.090  0.00  0.00    +0.000 A 
ATOM     28  C   UNL     1      -3.775  11.236  17.551  0.00  0.00    +0.000 A 
ATOM     29  C   UNL     1      -4.892  11.522  16.741  0.00  0.00    +0.000 A 
ATOM     30  C   UNL     1      -5.937  12.321  17.209  0.00  0.00    +0.000 A 
ATOM     31  C   UNL     1      -5.906  12.802  18.514  0.00  0.00    +0.000 A 
ATOM     32  C   UNL     1      -4.808  12.519  19.332  0.00  0.00    +0.000 A 
ATOM     33  C   UNL     1      -3.713  11.772  18.850  0.00  0.00    +0.000 A 
ATOM     34  C   UNL     1      -2.521  11.606  19.591  0.00  0.00    +0.000 A 
ENDBRANCH  24  25
ENDBRANCH   5  22
TORSDOF 5
ENDMDL
MODEL 3
REMARK VINA RESULT:      -8.0      3.925      9.861
REMARK  Name = 
REMARK  5 active torsions:
REMARK  status: ('A' for Active; 'I' for Inactive)
REMARK    1  A    between atoms: C_2  and  C_4
REMARK    2  A    between atoms: N_7  and  C_8
REMARK    3  A    between atoms: C_12  and  C_14
REMARK    4  A    between atoms: C_16  and  C_17
REMARK    5  A    between atoms: C_29  and  N_30
REMARK                            x       y       z     vdW  Elec       q    Type
REMARK                         _______ _______ _______ _____ _____    ______ ____
ROOT
ATOM      1  C   UNL     1       2.612   6.327  18.115  0.00  0.00    +0.000 C 
ATOM      2  C   UNL     1       2.747   7.859  18.292  0.00  0.00    +0.000 C 
ATOM      3  C   UNL     1       2.590   8.403  19.724  0.00  0.00    +0.000 C 
ATOM      4  N   UNL     1       1.536   7.715  20.466  0.00  0.00    +0.000 N 
ATOM      5  C   UNL     1       0.570   8.297  21.309  0.00  0.00    +0.000 C 
ATOM      6  O   UNL     1      -0.385   7.649  21.731  0.00  0.00    +0.000 OA
ATOM      7  C   UNL     1       1.639   6.260  20.445  0.00  0.00    +0.000 C 
ATOM      8  C   UNL     1       1.524   5.741  19.024  0.00  0.00    +0.000 C 
ENDROOT
BRANCH   1  12
ATOM      9  C   UNL     1       5.885   4.809  17.723  0.00  0.00    +0.000 A 
ATOM     10  N   UNL     1       5.427   4.130  18.848  0.00  0.00    +0.000 NA
ATOM     11  C   UNL     1       4.209   4.585  19.062  0.00  0.00    +0.000 A 
ATOM     12  N   UNL     1       3.840   5.531  18.145  0.00  0.00    +0.000 N 
ATOM     13  C   UNL     1       4.895   5.652  17.257  0.00  0.00    +0.000 A 
BRANCH   9  15
ATOM     14  N   UNL     1       8.187   4.271  18.012  0.00  0.00    +0.000 N 
ATOM     15  C   UNL     1       7.205   4.608  17.127  0.00  0.00    +0.000 C 
ATOM     16  O   UNL     1       7.444   4.715  15.926  0.00  0.00    +0.000 OA
ATOM     17  H   UNL     1       9.117   4.093  17.666  0.00  0.00    +0.000 HD
ATOM     18  H   UNL     1       7.957   4.142  18.990  0.00  0.00    +0.000 HD
ENDBRANCH   9  15
BRANCH  13  19
ATOM     19  N   UNL     1       4.870   6.485  16.186  0.00  0.00    +0.000 N 
ATOM     20  H   UNL     1       4.761   7.487  16.297  0.00  0.00    +0.000 HD
ATOM     21  H   UNL     1       4.342   6.149  15.367  0.00  0.00    +0.000 HD
ENDBRANCH  13  19
ENDBRANCH   1  12
BRANCH   5  22
ATOM     22  C   UNL     1       0.792   9.691  21.811  0.00  0.00    +0.000 C 
ATOM     23  C   UNL     1      -0.331  10.270  22.667  0.00  0.00    +0.000 C 
ATOM     24  C   UNL     1       0.133  11.010  21.452  0.00  0.00    +0.000 C 
BRANCH  24  25
ATOM     25  C   UNL     1      -0.811  11.389  20.324  0.00  0.00    +0.000 A 
ATOM     26  C   UNL     1      -1.919  12.226  20.457  0.00  0.00    +0.000 A 
ATOM     27  C   UNL     1      -2.944  12.240  19.494  0.00  0.00    +0.000 A 
ATOM     28  C   UNL     1      -2.896  11.410  18.361  0.00  0.00    +0.000 A 
ATOM     29  C   UNL     1      -3.993  11.273  17.487  0.00  0.00    +0.000 A 
ATOM     30  C   UNL     1      -3.935  10.414  16.387  0.00  0.00    +0.000 A 
ATOM     31  C   UNL     1      -2.761   9.722  16.115  0.00  0.00    +0.000 A 
ATOM     32  C   UNL     1      -1.662   9.855  16.968  0.00  0.00    +0.000 A 
ATOM     33  C   UNL     1      -1.729  10.663  18.122  0.00  0.00    +0.000 A 
ATOM     34  C   UNL     1      -0.699  10.694  19.090  0.00  0.00    +0.000 A 
ENDBRANCH  24  25
ENDBRANCH   5  22
TORSDOF 5
ENDMDL
MODEL 4
REMARK VINA RESULT:      -7.7      8.582     11.862
REMARK  Name = 
REMARK  5 active torsions:
REMARK  status: ('A' for Active; 'I' for Inactive)
REMARK    1  A    between atoms: C_2  and  C_4
REMARK    2  A    between atoms: N_7  and  C_8
REMARK    3  A    between atoms: C_12  and  C_14
REMARK    4  A    between atoms: C_16  and  C_17
REMARK    5  A    between atoms: C_29  and  N_30
REMARK                            x       y       z     vdW  Elec       q    Type
REMARK                         _______ _______ _______ _____ _____    ______ ____
ROOT
ATOM      1  C   UNL     1       6.642   5.186  17.348  0.00  0.00    +0.000 C 
ATOM      2  C   UNL     1       7.937   5.352  18.181  0.00  0.00    +0.000 C 
ATOM      3  C   UNL     1       8.098   6.679  18.945  0.00  0.00    +0.000 C 
ATOM      4  N   UNL     1       7.627   7.826  18.171  0.00  0.00    +0.000 N 
ATOM      5  C   UNL     1       8.247   9.083  18.048  0.00  0.00    +0.000 C 
ATOM      6  O   UNL     1       7.864   9.908  17.222  0.00  0.00    +0.000 OA
ATOM      7  C   UNL     1       6.282   7.670  17.628  0.00  0.00    +0.000 C 
ATOM      8  C   UNL     1       6.230   6.498  16.668  0.00  0.00    +0.000 C 
ENDROOT
BRANCH   1  12
ATOM      9  C   UNL     1       3.743   3.229  18.313  0.00  0.00    +0.000 A 
ATOM     10  N   UNL     1       4.173   3.670  19.560  0.00  0.00    +0.000 NA
ATOM     11  C   UNL     1       5.219   4.435  19.321  0.00  0.00    +0.000 A 
ATOM     12  N   UNL     1       5.507   4.518  17.986  0.00  0.00    +0.000 N 
ATOM     13  C   UNL     1       4.540   3.778  17.327  0.00  0.00    +0.000 A 
BRANCH   9  15
ATOM     14  N   UNL     1       2.141   1.726  19.234  0.00  0.00    +0.000 N 
ATOM     15  C   UNL     1       2.594   2.349  18.108  0.00  0.00    +0.000 C 
ATOM     16  O   UNL     1       2.045   2.169  17.022  0.00  0.00    +0.000 OA
ATOM     17  H   UNL     1       1.336   1.123  19.171  0.00  0.00    +0.000 HD
ATOM     18  H   UNL     1       2.578   1.926  20.126  0.00  0.00    +0.000 HD
ENDBRANCH   9  15
BRANCH  13  19
ATOM     19  N   UNL     1       4.490   3.660  15.976  0.00  0.00    +0.000 N 
ATOM     20  H   UNL     1       4.803   2.816  15.507  0.00  0.00    +0.000 HD
ATOM     21  H   UNL     1       4.762   4.497  15.440  0.00  0.00    +0.000 HD
ENDBRANCH  13  19
ENDBRANCH   1  12
BRANCH   5  22
ATOM     22  C   UNL     1       9.302   9.471  19.040  0.00  0.00    +0.000 C 
ATOM     23  C   UNL     1       8.905  10.561  20.032  0.00  0.00    +0.000 C 
ATOM     24  C   UNL     1      10.130  10.733  19.190  0.00  0.00    +0.000 C 
BRANCH  24  25
ATOM     25  C   UNL     1      10.321  11.927  18.271  0.00  0.00    +0.000 A 
ATOM     26  C   UNL     1      11.417  12.119  17.429  0.00  0.00    +0.000 A 
ATOM     27  C   UNL     1      11.716  13.386  16.897  0.00  0.00    +0.000 A 
ATOM     28  C   UNL     1      10.927  14.510  17.193  0.00  0.00    +0.000 A 
ATOM     29  C   UNL     1      11.314  15.814  16.826  0.00  0.00    +0.000 A 
ATOM     30  C   UNL     1      10.531  16.920  17.162  0.00  0.00    +0.000 A 
ATOM     31  C   UNL     1       9.323  16.733  17.825  0.00  0.00    +0.000 A 
ATOM     32  C   UNL     1       8.922  15.444  18.189  0.00  0.00    +0.000 A 
ATOM     33  C   UNL     1       9.736  14.325  17.918  0.00  0.00    +0.000 A 
ATOM     34  C   UNL     1       9.442  13.033  18.412  0.00  0.00    +0.000 A 
ENDBRANCH  24  25
ENDBRANCH   5  22
TORSDOF 5
ENDMDL
MODEL 5
REMARK VINA RESULT:      -7.7      3.685     10.648
REMARK  Name = 
REMARK  5 active torsions:
REMARK  status: ('A' for Active; 'I' for Inactive)
REMARK    1  A    between atoms: C_2  and  C_4
REMARK    2  A    between atoms: N_7  and  C_8
REMARK    3  A    between atoms: C_12  and  C_14
REMARK    4  A    between atoms: C_16  and  C_17
REMARK    5  A    between atoms: C_29  and  N_30
REMARK                            x       y       z     vdW  Elec       q    Type
REMARK                         _______ _______ _______ _____ _____    ______ ____
ROOT
ATOM      1  C   UNL     1       2.491   5.825  18.265  0.00  0.00    +0.000 C 
ATOM      2  C   UNL     1       2.405   7.167  17.499  0.00  0.00    +0.000 C 
ATOM      3  C   UNL     1       2.448   8.449  18.352  0.00  0.00    +0.000 C 
ATOM      4  N   UNL     1       1.688   8.315  19.593  0.00  0.00    +0.000 N 
ATOM      5  C   UNL     1       0.826   9.266  20.171  0.00  0.00    +0.000 C 
ATOM      6  O   UNL     1       0.093   8.976  21.114  0.00  0.00    +0.000 OA
ATOM      7  C   UNL     1       2.022   7.130  20.375  0.00  0.00    +0.000 C 
ATOM      8  C   UNL     1       1.715   5.870  19.587  0.00  0.00    +0.000 C 
ENDROOT
BRANCH   1  12
ATOM      9  C   UNL     1       5.958   4.758  18.159  0.00  0.00    +0.000 A 
ATOM     10  N   UNL     1       5.542   4.139  19.333  0.00  0.00    +0.000 NA
ATOM     11  C   UNL     1       4.263   4.434  19.451  0.00  0.00    +0.000 A 
ATOM     12  N   UNL     1       3.814   5.219  18.425  0.00  0.00    +0.000 N 
ATOM     13  C   UNL     1       4.887   5.400  17.569  0.00  0.00    +0.000 A 
BRANCH   9  15
ATOM     14  N   UNL     1       8.298   4.643  18.589  0.00  0.00    +0.000 N 
ATOM     15  C   UNL     1       7.322   4.689  17.637  0.00  0.00    +0.000 C 
ATOM     16  O   UNL     1       7.604   4.662  16.440  0.00  0.00    +0.000 OA
ATOM     17  H   UNL     1       9.261   4.570  18.301  0.00  0.00    +0.000 HD
ATOM     18  H   UNL     1       8.041   4.618  19.569  0.00  0.00    +0.000 HD
ENDBRANCH   9  15
BRANCH  13  19
ATOM     19  N   UNL     1       4.802   6.108  16.414  0.00  0.00    +0.000 N 
ATOM     20  H   UNL     1       5.199   5.758  15.549  0.00  0.00    +0.000 HD
ATOM     21  H   UNL     1       4.948   7.125  16.497  0.00  0.00    +0.000 HD
ENDBRANCH  13  19
ENDBRANCH   1  12
BRANCH   5  22
ATOM     22  C   UNL     1       0.910  10.691  19.716  0.00  0.00    +0.000 C 
ATOM     23  C   UNL     1       1.122  11.724  20.820  0.00  0.00    +0.000 C 
ATOM     24  C   UNL     1      -0.039  11.863  19.886  0.00  0.00    +0.000 C 
BRANCH  24  25
ATOM     25  C   UNL     1      -1.474  11.932  20.379  0.00  0.00    +0.000 A 
ATOM     26  C   UNL     1      -2.573  12.278  19.593  0.00  0.00    +0.000 A 
ATOM     27  C   UNL     1      -3.789  12.681  20.173  0.00  0.00    +0.000 A 
ATOM     28  C   UNL     1      -3.946  12.756  21.567  0.00  0.00    +0.000 A 
ATOM     29  C   UNL     1      -5.085  13.332  22.162  0.00  0.00    +0.000 A 
ATOM     30  C   UNL     1      -5.203  13.429  23.551  0.00  0.00    +0.000 A 
ATOM     31  C   UNL     1      -4.207  12.901  24.365  0.00  0.00    +0.000 A 
ATOM     32  C   UNL     1      -3.075  12.318  23.789  0.00  0.00    +0.000 A 
ATOM     33  C   UNL     1      -2.909  12.277  22.389  0.00  0.00    +0.000 A 
ATOM     34  C   UNL     1      -1.710  11.845  21.777  0.00  0.00    +0.000 A 
ENDBRANCH  24  25
ENDBRANCH   5  22
TORSDOF 5
ENDMDL
MODEL 6
REMARK VINA RESULT:      -7.6      3.639     10.477
REMARK  Name = 
REMARK  5 active torsions:
REMARK  status: ('A' for Active; 'I' for Inactive)
REMARK    1  A    between atoms: C_2  and  C_4
REMARK    2  A    between atoms: N_7  and  C_8
REMARK    3  A    between atoms: C_12  and  C_14
REMARK    4  A    between atoms: C_16  and  C_17
REMARK    5  A    between atoms: C_29  and  N_30
REMARK                            x       y       z     vdW  Elec       q    Type
REMARK                         _______ _______ _______ _____ _____    ______ ____
ROOT
ATOM      1  C   UNL     1       2.483   6.054  18.497  0.00  0.00    +0.000 C 
ATOM      2  C   UNL     1       2.173   7.200  17.504  0.00  0.00    +0.000 C 
ATOM      3  C   UNL     1       2.130   8.624  18.090  0.00  0.00    +0.000 C 
ATOM      4  N   UNL     1       1.497   8.664  19.406  0.00  0.00    +0.000 N 
ATOM      5  C   UNL     1       0.577   9.617  19.880  0.00  0.00    +0.000 C 
ATOM      6  O   UNL     1      -0.036   9.449  20.931  0.00  0.00    +0.000 OA
ATOM      7  C   UNL     1       2.035   7.699  20.359  0.00  0.00    +0.000 C 
ATOM      8  C   UNL     1       1.819   6.283  19.860  0.00  0.00    +0.000 C 
ENDROOT
BRANCH   1  12
ATOM      9  C   UNL     1       6.046   5.403  18.272  0.00  0.00    +0.000 A 
ATOM     10  N   UNL     1       5.773   4.867  19.526  0.00  0.00    +0.000 NA
ATOM     11  C   UNL     1       4.475   5.019  19.698  0.00  0.00    +0.000 A 
ATOM     12  N   UNL     1       3.878   5.631  18.630  0.00  0.00    +0.000 N 
ATOM     13  C   UNL     1       4.873   5.845  17.691  0.00  0.00    +0.000 A 
BRANCH   9  15
ATOM     14  N   UNL     1       8.100   4.292  17.806  0.00  0.00    +0.000 N 
ATOM     15  C   UNL     1       7.378   5.442  17.671  0.00  0.00    +0.000 C 
ATOM     16  O   UNL     1       7.840   6.412  17.074  0.00  0.00    +0.000 OA
ATOM     17  H   UNL     1       9.019   4.239  17.394  0.00  0.00    +0.000 HD
ATOM     18  H   UNL     1       7.682   3.488  18.260  0.00  0.00    +0.000 HD
ENDBRANCH   9  15
BRANCH  13  19
ATOM     19  N   UNL     1       4.639   6.410  16.480  0.00  0.00    +0.000 N 
ATOM     20  H   UNL     1       5.311   7.038  16.051  0.00  0.00    +0.000 HD
ATOM     21  H   UNL     1       3.676   6.737  16.313  0.00  0.00    +0.000 HD
ENDBRANCH  13  19
ENDBRANCH   1  12
BRANCH   5  22
ATOM     22  C   UNL     1       0.451  10.925  19.157  0.00  0.00    +0.000 C 
ATOM     23  C   UNL     1       1.361  12.044  19.656  0.00  0.00    +0.000 C 
ATOM     24  C   UNL     1      -0.118  12.264  19.585  0.00  0.00    +0.000 C 
BRANCH  24  25
ATOM     25  C   UNL     1      -0.937  12.667  20.800  0.00  0.00    +0.000 A 
ATOM     26  C   UNL     1      -0.502  12.576  22.122  0.00  0.00    +0.000 A 
ATOM     27  C   UNL     1      -1.412  12.607  23.194  0.00  0.00    +0.000 A 
ATOM     28  C   UNL     1      -2.795  12.727  22.978  0.00  0.00    +0.000 A 
ATOM     29  C   UNL     1      -3.732  12.573  24.019  0.00  0.00    +0.000 A 
ATOM     30  C   UNL     1      -5.104  12.661  23.774  0.00  0.00    +0.000 A 
ATOM     31  C   UNL     1      -5.557  12.959  22.493  0.00  0.00    +0.000 A 
ATOM     32  C   UNL     1      -4.639  13.123  21.452  0.00  0.00    +0.000 A 
ATOM     33  C   UNL     1      -3.254  12.967  21.670  0.00  0.00    +0.000 A 
ATOM     34  C   UNL     1      -2.313  12.965  20.615  0.00  0.00    +0.000 A 
ENDBRANCH  24  25
ENDBRANCH   5  22
TORSDOF 5
ENDMDL
MODEL 7
REMARK VINA RESULT:      -7.5      3.733     10.878
REMARK  Name = 
REMARK  5 active torsions:
REMARK  status: ('A' for Active; 'I' for Inactive)
REMARK    1  A    between atoms: C_2  and  C_4
REMARK    2  A    between atoms: N_7  and  C_8
REMARK    3  A    between atoms: C_12  and  C_14
REMARK    4  A    between atoms: C_16  and  C_17
REMARK    5  A    between atoms: C_29  and  N_30
REMARK                            x       y       z     vdW  Elec       q    Type
REMARK                         _______ _______ _______ _____ _____    ______ ____
ROOT
ATOM      1  C   UNL     1       2.436   6.031  18.587  0.00  0.00    +0.000 C 
ATOM      2  C   UNL     1       2.085   7.273  17.733  0.00  0.00    +0.000 C 
ATOM      3  C   UNL     1       2.067   8.628  18.464  0.00  0.00    +0.000 C 
ATOM      4  N   UNL     1       1.489   8.528  19.803  0.00  0.00    +0.000 N 
ATOM      5  C   UNL     1       0.589   9.423  20.411  0.00  0.00    +0.000 C 
ATOM      6  O   UNL     1       0.021   9.144  21.464  0.00  0.00    +0.000 OA
ATOM      7  C   UNL     1       2.066   7.472  20.627  0.00  0.00    +0.000 C 
ATOM      8  C   UNL     1       1.830   6.115  19.993  0.00  0.00    +0.000 C 
ENDROOT
BRANCH   1  12
ATOM      9  C   UNL     1       5.974   5.379  18.110  0.00  0.00    +0.000 A 
ATOM     10  N   UNL     1       5.783   4.817  19.368  0.00  0.00    +0.000 NA
ATOM     11  C   UNL     1       4.501   4.967  19.629  0.00  0.00    +0.000 A 
ATOM     12  N   UNL     1       3.835   5.603  18.617  0.00  0.00    +0.000 N 
ATOM     13  C   UNL     1       4.766   5.836  17.619  0.00  0.00    +0.000 A 
BRANCH   9  15
ATOM     14  N   UNL     1       8.073   4.353  17.646  0.00  0.00    +0.000 N 
ATOM     15  C   UNL     1       7.263   5.429  17.422  0.00  0.00    +0.000 C 
ATOM     16  O   UNL     1       7.619   6.345  16.683  0.00  0.00    +0.000 OA
ATOM     17  H   UNL     1       8.968   4.309  17.184  0.00  0.00    +0.000 HD
ATOM     18  H   UNL     1       7.741   3.587  18.220  0.00  0.00    +0.000 HD
ENDBRANCH   9  15
BRANCH  13  19
ATOM     19  N   UNL     1       4.454   6.428  16.438  0.00  0.00    +0.000 N 
ATOM     20  H   UNL     1       5.151   6.928  15.897  0.00  0.00    +0.000 HD
ATOM     21  H   UNL     1       3.547   6.915  16.405  0.00  0.00    +0.000 HD
ENDBRANCH  13  19
ENDBRANCH   1  12
BRANCH   5  22
ATOM     22  C   UNL     1       0.433  10.798  19.834  0.00  0.00    +0.000 C 
ATOM     23  C   UNL     1       1.389  11.855  20.380  0.00  0.00    +0.000 C 
ATOM     24  C   UNL     1      -0.088  12.091  20.433  0.00  0.00    +0.000 C 
BRANCH  24  25
ATOM     25  C   UNL     1      -0.818  12.374  21.735  0.00  0.00    +0.000 A 
ATOM     26  C   UNL     1      -1.961  11.704  22.171  0.00  0.00    +0.000 A 
ATOM     27  C   UNL     1      -2.788  12.245  23.171  0.00  0.00    +0.000 A 
ATOM     28  C   UNL     1      -2.500  13.484  23.768  0.00  0.00    +0.000 A 
ATOM     29  C   UNL     1      -3.409  14.128  24.631  0.00  0.00    +0.000 A 
ATOM     30  C   UNL     1      -3.117  15.377  25.185  0.00  0.00    +0.000 A 
ATOM     31  C   UNL     1      -1.888  15.974  24.927  0.00  0.00    +0.000 A 
ATOM     32  C   UNL     1      -0.973  15.342  24.080  0.00  0.00    +0.000 A 
ATOM     33  C   UNL     1      -1.283  14.116  23.457  0.00  0.00    +0.000 A 
ATOM     34  C   UNL     1      -0.453  13.531  22.473  0.00  0.00    +0.000 A 
ENDBRANCH  24  25
ENDBRANCH   5  22
TORSDOF 5
ENDMDL
MODEL 8
REMARK VINA RESULT:      -7.4      3.944      9.986
REMARK  Name = 
REMARK  5 active torsions:
REMARK  status: ('A' for Active; 'I' for Inactive)
REMARK    1  A    between atoms: C_2  and  C_4
REMARK    2  A    between atoms: N_7  and  C_8
REMARK    3  A    between atoms: C_12  and  C_14
REMARK    4  A    between atoms: C_16  and  C_17
REMARK    5  A    between atoms: C_29  and  N_30
REMARK                            x       y       z     vdW  Elec       q    Type
REMARK                         _______ _______ _______ _____ _____    ______ ____
ROOT
ATOM      1  C   UNL     1       1.906   5.310  19.122  0.00  0.00    +0.000 C 
ATOM      2  C   UNL     1       1.991   6.305  17.939  0.00  0.00    +0.000 C 
ATOM      3  C   UNL     1       2.348   7.761  18.289  0.00  0.00    +0.000 C 
ATOM      4  N   UNL     1       1.703   8.210  19.521  0.00  0.00    +0.000 N 
ATOM      5  C   UNL     1       1.088   9.454  19.755  0.00  0.00    +0.000 C 
ATOM      6  O   UNL     1       0.411   9.655  20.761  0.00  0.00    +0.000 OA
ATOM      7  C   UNL     1       1.892   7.315  20.657  0.00  0.00    +0.000 C 
ATOM      8  C   UNL     1       1.286   5.955  20.367  0.00  0.00    +0.000 C 
ENDROOT
BRANCH   1  12
ATOM      9  C   UNL     1       4.446   2.862  19.974  0.00  0.00    +0.000 A 
ATOM     10  N   UNL     1       5.248   3.925  19.572  0.00  0.00    +0.000 NA
ATOM     11  C   UNL     1       4.415   4.900  19.271  0.00  0.00    +0.000 A 
ATOM     12  N   UNL     1       3.107   4.537  19.444  0.00  0.00    +0.000 N 
ATOM     13  C   UNL     1       3.118   3.242  19.934  0.00  0.00    +0.000 A 
BRANCH   9  15
ATOM     14  N   UNL     1       4.817   0.559  19.491  0.00  0.00    +0.000 N 
ATOM     15  C   UNL     1       4.963   1.563  20.404  0.00  0.00    +0.000 C 
ATOM     16  O   UNL     1       5.502   1.359  21.489  0.00  0.00    +0.000 OA
ATOM     17  H   UNL     1       5.174  -0.358  19.712  0.00  0.00    +0.000 HD
ATOM     18  H   UNL     1       4.413   0.761  18.585  0.00  0.00    +0.000 HD
ENDBRANCH   9  15
BRANCH  13  19
ATOM     19  N   UNL     1       1.989   2.562  20.255  0.00  0.00    +0.000 N 
ATOM     20  H   UNL     1       2.030   1.649  20.695  0.00  0.00    +0.000 HD
ATOM     21  H   UNL     1       1.227   2.600  19.563  0.00  0.00    +0.000 HD
ENDBRANCH  13  19
ENDBRANCH   1  12
BRANCH   5  22
ATOM     22  C   UNL     1       1.385  10.595  18.829  0.00  0.00    +0.000 C 
ATOM     23  C   UNL     1       1.678  11.932  19.504  0.00  0.00    +0.000 C 
ATOM     24  C   UNL     1       0.594  11.841  18.477  0.00  0.00    +0.000 C 
BRANCH  24  25
ATOM     25  C   UNL     1      -0.842  12.240  18.776  0.00  0.00    +0.000 A 
ATOM     26  C   UNL     1      -1.280  12.803  19.974  0.00  0.00    +0.000 A 
ATOM     27  C   UNL     1      -2.642  12.804  20.326  0.00  0.00    +0.000 A 
ATOM     28  C   UNL     1      -3.615  12.234  19.488  0.00  0.00    +0.000 A 
ATOM     29  C   UNL     1      -4.950  12.057  19.903  0.00  0.00    +0.000 A 
ATOM     30  C   UNL     1      -5.892  11.455  19.066  0.00  0.00    +0.000 A 
ATOM     31  C   UNL     1      -5.525  11.069  17.781  0.00  0.00    +0.000 A 
ATOM     32  C   UNL     1      -4.206  11.246  17.352  0.00  0.00    +0.000 A 
ATOM     33  C   UNL     1      -3.228  11.788  18.211  0.00  0.00    +0.000 A 
ATOM     34  C   UNL     1      -1.856  11.831  17.870  0.00  0.00    +0.000 A 
ENDBRANCH  24  25
ENDBRANCH   5  22
TORSDOF 5
ENDMDL
MODEL 9
REMARK VINA RESULT:      -7.4      3.080      5.526
REMARK  Name = 
REMARK  5 active torsions:
REMARK  status: ('A' for Active; 'I' for Inactive)
REMARK    1  A    between atoms: C_2  and  C_4
REMARK    2  A    between atoms: N_7  and  C_8
REMARK    3  A    between atoms: C_12  and  C_14
REMARK    4  A    between atoms: C_16  and  C_17
REMARK    5  A    between atoms: C_29  and  N_30
REMARK                            x       y       z     vdW  Elec       q    Type
REMARK                         _______ _______ _______ _____ _____    ______ ____
ROOT
ATOM      1  C   UNL     1       1.477   7.772  18.830  0.00  0.00    +0.000 C 
ATOM      2  C   UNL     1       2.218   6.439  19.093  0.00  0.00    +0.000 C 
ATOM      3  C   UNL     1       3.722   6.412  18.763  0.00  0.00    +0.000 C 
ATOM      4  N   UNL     1       4.035   7.142  17.536  0.00  0.00    +0.000 N 
ATOM      5  C   UNL     1       4.916   6.748  16.512  0.00  0.00    +0.000 C 
ATOM      6  O   UNL     1       4.959   7.346  15.439  0.00  0.00    +0.000 OA
ATOM      7  C   UNL     1       3.492   8.495  17.490  0.00  0.00    +0.000 C 
ATOM      8  C   UNL     1       1.977   8.462  17.554  0.00  0.00    +0.000 C 
ENDROOT
BRANCH   1  12
ATOM      9  C   UNL     1       0.733  10.434  21.182  0.00  0.00    +0.000 A 
ATOM     10  N   UNL     1       1.390   9.538  22.018  0.00  0.00    +0.000 NA
ATOM     11  C   UNL     1       1.744   8.531  21.246  0.00  0.00    +0.000 A 
ATOM     12  N   UNL     1       1.352   8.710  19.947  0.00  0.00    +0.000 N 
ATOM     13  C   UNL     1       0.736   9.948  19.888  0.00  0.00    +0.000 A 
BRANCH   9  15
ATOM     14  N   UNL     1      -1.112  11.636  22.089  0.00  0.00    +0.000 N 
ATOM     15  C   UNL     1       0.170  11.707  21.628  0.00  0.00    +0.000 C 
ATOM     16  O   UNL     1       0.778  12.776  21.614  0.00  0.00    +0.000 OA
ATOM     17  H   UNL     1      -1.556  12.472  22.436  0.00  0.00    +0.000 HD
ATOM     18  H   UNL     1      -1.578  10.737  22.136  0.00  0.00    +0.000 HD
ENDBRANCH   9  15
BRANCH  13  19
ATOM     19  N   UNL     1       0.245  10.477  18.740  0.00  0.00    +0.000 N 
ATOM     20  H   UNL     1      -0.722  10.777  18.667  0.00  0.00    +0.000 HD
ATOM     21  H   UNL     1       0.553  10.024  17.867  0.00  0.00    +0.000 HD
ENDBRANCH  13  19
ENDBRANCH   1  12
BRANCH   5  22
ATOM     22  C   UNL     1       5.917   5.669  16.792  0.00  0.00    +0.000 C 
ATOM     23  C   UNL     1       5.940   4.515  15.794  0.00  0.00    +0.000 C 
ATOM     24  C   UNL     1       5.751   4.232  17.251  0.00  0.00    +0.000 C 
BRANCH  24  25
ATOM     25  C   UNL     1       4.543   3.479  17.781  0.00  0.00    +0.000 A 
ATOM     26  C   UNL     1       3.394   3.193  17.044  0.00  0.00    +0.000 A 
ATOM     27  C   UNL     1       2.190   2.835  17.676  0.00  0.00    +0.000 A 
ATOM     28  C   UNL     1       2.093   2.755  19.075  0.00  0.00    +0.000 A 
ATOM     29  C   UNL     1       0.858   2.582  19.732  0.00  0.00    +0.000 A 
ATOM     30  C   UNL     1       0.782   2.542  21.126  0.00  0.00    +0.000 A 
ATOM     31  C   UNL     1       1.946   2.618  21.882  0.00  0.00    +0.000 A 
ATOM     32  C   UNL     1       3.180   2.781  21.244  0.00  0.00    +0.000 A 
ATOM     33  C   UNL     1       3.265   2.894  19.841  0.00  0.00    +0.000 A 
ATOM     34  C   UNL     1       4.469   3.220  19.176  0.00  0.00    +0.000 A 
ENDBRANCH  24  25
ENDBRANCH   5  22
TORSDOF 5
ENDMDL
