MODEL 1
REMARK VINA RESULT:      -9.0      0.000      0.000
REMARK  Name = 
REMARK  2 active torsions:
REMARK  status: ('A' for Active; 'I' for Inactive)
REMARK    1  A    between atoms: C_2  and  C_3
REMARK    2  A    between atoms: C_6  and  C_8
REMARK                            x       y       z     vdW  Elec       q    Type
REMARK                         _______ _______ _______ _____ _____    ______ ____
ROOT
ATOM      1  C   UNL     1       0.915  10.628  18.583  0.00  0.00    +0.000 C 
ATOM      2  C   UNL     1       1.876   9.499  18.958  0.00  0.00    +0.000 C 
ATOM      3  N   UNL     1       1.443   8.683  20.106  0.00  0.00    +0.000 N 
ATOM      4  C   UNL     1       1.851   7.325  20.263  0.00  0.00    +0.000 C 
ATOM      5  O   UNL     1       1.553   6.669  21.268  0.00  0.00    +0.000 OA
ATOM      6  C   UNL     1       0.628   9.419  21.065  0.00  0.00    +0.000 A 
ATOM      7  C   UNL     1       0.091   8.876  22.241  0.00  0.00    +0.000 A 
ATOM      8  C   UNL     1      -0.671   9.653  23.139  0.00  0.00    +0.000 A 
ATOM      9  C   UNL     1      -0.893  11.002  22.900  0.00  0.00    +0.000 A 
ATOM     10  C   UNL     1      -0.381  11.569  21.742  0.00  0.00    +0.000 A 
ATOM     11  C   UNL     1       0.330  10.780  20.826  0.00  0.00    +0.000 A 
ATOM     12  O   UNL     1       0.703  11.467  19.700  0.00  0.00    +0.000 OA
ENDROOT
BRANCH   4  13
ATOM     13  C   UNL     1       2.577   6.607  19.189  0.00  0.00    +0.000 A 
ATOM     14  C   UNL     1       3.296   7.209  18.165  0.00  0.00    +0.000 A 
ATOM     15  C   UNL     1       3.999   6.288  17.318  0.00  0.00    +0.000 A 
ATOM     16  C   UNL     1       4.953   6.511  16.293  0.00  0.00    +0.000 A 
ATOM     17  C   UNL     1       5.460   5.435  15.566  0.00  0.00    +0.000 A 
ATOM     18  F   UNL     1       6.357   5.659  14.595  0.00  0.00    +0.000 F 
ATOM     19  C   UNL     1       5.051   4.138  15.824  0.00  0.00    +0.000 A 
ATOM     20  C   UNL     1       4.135   3.887  16.851  0.00  0.00    +0.000 A 
ATOM     21  C   UNL     1       3.617   4.973  17.591  0.00  0.00    +0.000 A 
ATOM     22  S   UNL     1       2.460   4.920  18.871  0.00  0.00    +0.000 S 
ENDBRANCH   4  13
BRANCH   1  24
ATOM     23  O   UNL     1      -0.238   8.938  17.288  0.00  0.00    +0.000 OA
ATOM     24  C   UNL     1      -0.302  10.063  17.800  0.00  0.00    +0.000 C 
ATOM     25  N   UNL     1      -1.409  10.873  17.579  0.00  0.00    +0.000 N 
ATOM     26  C   UNL     1      -1.670  12.175  18.191  0.00  0.00    +0.000 C 
ATOM     27  C   UNL     1      -2.881  12.076  19.121  0.00  0.00    +0.000 C 
ATOM     28  C   UNL     1      -4.099  11.547  18.357  0.00  0.00    +0.000 C 
ATOM     29  C   UNL     1      -3.770  10.203  17.706  0.00  0.00    +0.000 C 
ATOM     30  C   UNL     1      -2.536  10.332  16.814  0.00  0.00    +0.000 C 
ENDBRANCH   1  24
TORSDOF 2
ENDMDL
MODEL 2
REMARK VINA RESULT:      -8.3      3.789      8.348
REMARK  Name = 
REMARK  2 active torsions:
REMARK  status: ('A' for Active; 'I' for Inactive)
REMARK    1  A    between atoms: C_2  and  C_3
REMARK    2  A    between atoms: C_6  and  C_8
REMARK                            x       y       z     vdW  Elec       q    Type
REMARK                         _______ _______ _______ _____ _____    ______ ____
ROOT
ATOM      1  C   UNL     1       4.987   4.472  19.093  0.00  0.00    +0.000 C 
ATOM      2  C   UNL     1       4.591   5.945  18.985  0.00  0.00    +0.000 C 
ATOM      3  N   UNL     1       4.467   6.446  17.605  0.00  0.00    +0.000 N 
ATOM      4  C   UNL     1       3.613   7.539  17.273  0.00  0.00    +0.000 C 
ATOM      5  O   UNL     1       3.573   8.009  16.130  0.00  0.00    +0.000 OA
ATOM      6  C   UNL     1       5.340   5.760  16.660  0.00  0.00    +0.000 A 
ATOM      7  C   UNL     1       5.414   6.044  15.288  0.00  0.00    +0.000 A 
ATOM      8  C   UNL     1       6.300   5.356  14.433  0.00  0.00    +0.000 A 
ATOM      9  C   UNL     1       7.155   4.382  14.930  0.00  0.00    +0.000 A 
ATOM     10  C   UNL     1       7.102   4.072  16.281  0.00  0.00    +0.000 A 
ATOM     11  C   UNL     1       6.183   4.721  17.118  0.00  0.00    +0.000 A 
ATOM     12  O   UNL     1       6.201   4.251  18.404  0.00  0.00    +0.000 OA
ENDROOT
BRANCH   4  13
ATOM     13  C   UNL     1       2.664   8.106  18.260  0.00  0.00    +0.000 A 
ATOM     14  C   UNL     1       2.322   7.522  19.473  0.00  0.00    +0.000 A 
ATOM     15  C   UNL     1       1.469   8.329  20.296  0.00  0.00    +0.000 A 
ATOM     16  C   UNL     1       1.045   8.163  21.639  0.00  0.00    +0.000 A 
ATOM     17  C   UNL     1       0.156   9.074  22.209  0.00  0.00    +0.000 A 
ATOM     18  F   UNL     1      -0.241   8.902  23.477  0.00  0.00    +0.000 F 
ATOM     19  C   UNL     1      -0.328  10.151  21.486  0.00  0.00    +0.000 A 
ATOM     20  C   UNL     1       0.098  10.356  20.170  0.00  0.00    +0.000 A 
ATOM     21  C   UNL     1       0.999   9.436  19.587  0.00  0.00    +0.000 A 
ATOM     22  S   UNL     1       1.636   9.458  17.983  0.00  0.00    +0.000 S 
ENDBRANCH   4  13
BRANCH   1  24
ATOM     23  O   UNL     1       3.765   2.811  17.824  0.00  0.00    +0.000 OA
ATOM     24  C   UNL     1       3.760   3.561  18.808  0.00  0.00    +0.000 C 
ATOM     25  N   UNL     1       2.620   3.684  19.592  0.00  0.00    +0.000 N 
ATOM     26  C   UNL     1       2.496   4.448  20.833  0.00  0.00    +0.000 C 
ATOM     27  C   UNL     1       2.277   3.495  22.009  0.00  0.00    +0.000 C 
ATOM     28  C   UNL     1       1.053   2.608  21.756  0.00  0.00    +0.000 C 
ATOM     29  C   UNL     1       1.211   1.856  20.434  0.00  0.00    +0.000 C 
ATOM     30  C   UNL     1       1.464   2.837  19.291  0.00  0.00    +0.000 C 
ENDBRANCH   1  24
TORSDOF 2
ENDMDL
MODEL 3
REMARK VINA RESULT:      -8.0      0.911      1.260
REMARK  Name = 
REMARK  2 active torsions:
REMARK  status: ('A' for Active; 'I' for Inactive)
REMARK    1  A    between atoms: C_2  and  C_3
REMARK    2  A    between atoms: C_6  and  C_8
REMARK                            x       y       z     vdW  Elec       q    Type
REMARK                         _______ _______ _______ _____ _____    ______ ____
ROOT
ATOM      1  C   UNL     1       0.849  10.803  18.712  0.00  0.00    +0.000 C 
ATOM      2  C   UNL     1       1.914   9.751  19.025  0.00  0.00    +0.000 C 
ATOM      3  N   UNL     1       1.540   8.797  20.084  0.00  0.00    +0.000 N 
ATOM      4  C   UNL     1       2.086   7.481  20.140  0.00  0.00    +0.000 C 
ATOM      5  O   UNL     1       1.833   6.712  21.075  0.00  0.00    +0.000 OA
ATOM      6  C   UNL     1       0.626   9.358  21.072  0.00  0.00    +0.000 A 
ATOM      7  C   UNL     1       0.118   8.661  22.178  0.00  0.00    +0.000 A 
ATOM      8  C   UNL     1      -0.746   9.273  23.109  0.00  0.00    +0.000 A 
ATOM      9  C   UNL     1      -1.105  10.607  22.977  0.00  0.00    +0.000 A 
ATOM     10  C   UNL     1      -0.625  11.323  21.891  0.00  0.00    +0.000 A 
ATOM     11  C   UNL     1       0.191  10.696  20.937  0.00  0.00    +0.000 A 
ATOM     12  O   UNL     1       0.518  11.514  19.888  0.00  0.00    +0.000 OA
ENDROOT
BRANCH   4  13
ATOM     13  C   UNL     1       2.912   6.939  19.036  0.00  0.00    +0.000 A 
ATOM     14  C   UNL     1       3.463   5.664  18.996  0.00  0.00    +0.000 A 
ATOM     15  C   UNL     1       4.126   5.347  17.764  0.00  0.00    +0.000 A 
ATOM     16  C   UNL     1       4.656   4.123  17.282  0.00  0.00    +0.000 A 
ATOM     17  C   UNL     1       5.312   4.083  16.052  0.00  0.00    +0.000 A 
ATOM     18  F   UNL     1       5.813   2.921  15.611  0.00  0.00    +0.000 F 
ATOM     19  C   UNL     1       5.461   5.222  15.281  0.00  0.00    +0.000 A 
ATOM     20  C   UNL     1       4.921   6.436  15.718  0.00  0.00    +0.000 A 
ATOM     21  C   UNL     1       4.254   6.484  16.963  0.00  0.00    +0.000 A 
ATOM     22  S   UNL     1       3.541   7.859  17.724  0.00  0.00    +0.000 S 
ENDBRANCH   4  13
BRANCH   1  24
ATOM     23  O   UNL     1      -0.108   9.087  17.297  0.00  0.00    +0.000 OA
ATOM     24  C   UNL     1      -0.280  10.185  17.841  0.00  0.00    +0.000 C 
ATOM     25  N   UNL     1      -1.427  10.925  17.581  0.00  0.00    +0.000 N 
ATOM     26  C   UNL     1      -1.813  12.183  18.220  0.00  0.00    +0.000 C 
ATOM     27  C   UNL     1      -3.064  11.969  19.073  0.00  0.00    +0.000 C 
ATOM     28  C   UNL     1      -4.196  11.386  18.222  0.00  0.00    +0.000 C 
ATOM     29  C   UNL     1      -3.738  10.093  17.548  0.00  0.00    +0.000 C 
ATOM     30  C   UNL     1      -2.468  10.338  16.735  0.00  0.00    +0.000 C 
ENDBRANCH   1  24
TORSDOF 2
ENDMDL
MODEL 4
REMARK VINA RESULT:      -7.9      5.395      9.109
REMARK  Name = 
REMARK  2 active torsions:
REMARK  status: ('A' for Active; 'I' for Inactive)
REMARK    1  A    between atoms: C_2  and  C_3
REMARK    2  A    between atoms: C_6  and  C_8
REMARK                            x       y       z     vdW  Elec       q    Type
REMARK                         _______ _______ _______ _____ _____    ______ ____
ROOT
ATOM      1  C   UNL     1      -0.061  12.189  18.979  0.00  0.00    +0.000 C 
ATOM      2  C   UNL     1      -1.080  12.044  20.110  0.00  0.00    +0.000 C 
ATOM      3  N   UNL     1      -0.664  11.139  21.196  0.00  0.00    +0.000 N 
ATOM      4  C   UNL     1      -1.153  11.285  22.528  0.00  0.00    +0.000 C 
ATOM      5  O   UNL     1      -0.866  10.476  23.418  0.00  0.00    +0.000 OA
ATOM      6  C   UNL     1       0.228  10.074  20.753  0.00  0.00    +0.000 A 
ATOM      7  C   UNL     1       0.767   9.084  21.587  0.00  0.00    +0.000 A 
ATOM      8  C   UNL     1       1.606   8.066  21.087  0.00  0.00    +0.000 A 
ATOM      9  C   UNL     1       1.907   7.994  19.733  0.00  0.00    +0.000 A 
ATOM     10  C   UNL     1       1.395   8.962  18.883  0.00  0.00    +0.000 A 
ATOM     11  C   UNL     1       0.605  10.003  19.392  0.00  0.00    +0.000 A 
ATOM     12  O   UNL     1       0.242  10.918  18.440  0.00  0.00    +0.000 OA
ENDROOT
BRANCH   4  13
ATOM     13  C   UNL     1      -1.958  12.462  22.931  0.00  0.00    +0.000 A 
ATOM     14  C   UNL     1      -3.329  12.596  22.756  0.00  0.00    +0.000 A 
ATOM     15  C   UNL     1      -3.884  13.785  23.336  0.00  0.00    +0.000 A 
ATOM     16  C   UNL     1      -5.231  14.192  23.512  0.00  0.00    +0.000 A 
ATOM     17  C   UNL     1      -5.517  15.439  24.065  0.00  0.00    +0.000 A 
ATOM     18  F   UNL     1      -6.794  15.814  24.221  0.00  0.00    +0.000 F 
ATOM     19  C   UNL     1      -4.505  16.302  24.451  0.00  0.00    +0.000 A 
ATOM     20  C   UNL     1      -3.168  15.913  24.317  0.00  0.00    +0.000 A 
ATOM     21  C   UNL     1      -2.872  14.649  23.758  0.00  0.00    +0.000 A 
ATOM     22  S   UNL     1      -1.314  13.967  23.463  0.00  0.00    +0.000 S 
ENDBRANCH   4  13
BRANCH   1  24
ATOM     23  O   UNL     1       2.234  12.689  19.567  0.00  0.00    +0.000 OA
ATOM     24  C   UNL     1       1.092  13.139  19.410  0.00  0.00    +0.000 C 
ATOM     25  N   UNL     1       0.806  14.460  19.731  0.00  0.00    +0.000 N 
ATOM     26  C   UNL     1      -0.462  15.154  19.508  0.00  0.00    +0.000 C 
ATOM     27  C   UNL     1      -0.275  16.249  18.456  0.00  0.00    +0.000 C 
ATOM     28  C   UNL     1       0.840  17.211  18.880  0.00  0.00    +0.000 C 
ATOM     29  C   UNL     1       2.135  16.438  19.134  0.00  0.00    +0.000 C 
ATOM     30  C   UNL     1       1.901  15.333  20.162  0.00  0.00    +0.000 C 
ENDBRANCH   1  24
TORSDOF 2
ENDMDL
MODEL 5
REMARK VINA RESULT:      -7.9      5.435      9.155
REMARK  Name = 
REMARK  2 active torsions:
REMARK  status: ('A' for Active; 'I' for Inactive)
REMARK    1  A    between atoms: C_2  and  C_3
REMARK    2  A    between atoms: C_6  and  C_8
REMARK                            x       y       z     vdW  Elec       q    Type
REMARK                         _______ _______ _______ _____ _____    ______ ____
ROOT
ATOM      1  C   UNL     1      -0.242  12.585  19.003  0.00  0.00    +0.000 C 
ATOM      2  C   UNL     1      -1.184  12.378  20.189  0.00  0.00    +0.000 C 
ATOM      3  N   UNL     1      -0.704  11.408  21.189  0.00  0.00    +0.000 N 
ATOM      4  C   UNL     1      -1.103  11.477  22.557  0.00  0.00    +0.000 C 
ATOM      5  O   UNL     1      -0.764  10.614  23.376  0.00  0.00    +0.000 OA
ATOM      6  C   UNL     1       0.145  10.367  20.625  0.00  0.00    +0.000 A 
ATOM      7  C   UNL     1       0.730   9.325  21.361  0.00  0.00    +0.000 A 
ATOM      8  C   UNL     1       1.524   8.335  20.745  0.00  0.00    +0.000 A 
ATOM      9  C   UNL     1       1.733   8.343  19.373  0.00  0.00    +0.000 A 
ATOM     10  C   UNL     1       1.175   9.362  18.618  0.00  0.00    +0.000 A 
ATOM     11  C   UNL     1       0.430  10.375  19.240  0.00  0.00    +0.000 A 
ATOM     12  O   UNL     1       0.012  11.347  18.370  0.00  0.00    +0.000 OA
ENDROOT
BRANCH   4  13
ATOM     13  C   UNL     1      -1.867  12.632  23.083  0.00  0.00    +0.000 A 
ATOM     14  C   UNL     1      -1.314  13.755  23.684  0.00  0.00    +0.000 A 
ATOM     15  C   UNL     1      -2.264  14.781  24.004  0.00  0.00    +0.000 A 
ATOM     16  C   UNL     1      -2.078  16.111  24.460  0.00  0.00    +0.000 A 
ATOM     17  C   UNL     1      -3.182  16.909  24.755  0.00  0.00    +0.000 A 
ATOM     18  F   UNL     1      -2.992  18.162  25.191  0.00  0.00    +0.000 F 
ATOM     19  C   UNL     1      -4.472  16.429  24.612  0.00  0.00    +0.000 A 
ATOM     20  C   UNL     1      -4.686  15.131  24.134  0.00  0.00    +0.000 A 
ATOM     21  C   UNL     1      -3.570  14.318  23.832  0.00  0.00    +0.000 A 
ATOM     22  S   UNL     1      -3.578  12.688  23.267  0.00  0.00    +0.000 S 
ENDBRANCH   4  13
BRANCH   1  24
ATOM     23  O   UNL     1       2.063  13.009  19.612  0.00  0.00    +0.000 OA
ATOM     24  C   UNL     1       0.946  13.502  19.410  0.00  0.00    +0.000 C 
ATOM     25  N   UNL     1       0.716  14.849  19.661  0.00  0.00    +0.000 N 
ATOM     26  C   UNL     1      -0.514  15.588  19.379  0.00  0.00    +0.000 C 
ATOM     27  C   UNL     1      -0.257  16.620  18.279  0.00  0.00    +0.000 C 
ATOM     28  C   UNL     1       0.893  17.550  18.679  0.00  0.00    +0.000 C 
ATOM     29  C   UNL     1       2.146  16.733  18.997  0.00  0.00    +0.000 C 
ATOM     30  C   UNL     1       1.842  15.691  20.072  0.00  0.00    +0.000 C 
ENDBRANCH   1  24
TORSDOF 2
ENDMDL
MODEL 6
REMARK VINA RESULT:      -7.8      5.601      9.427
REMARK  Name = 
REMARK  2 active torsions:
REMARK  status: ('A' for Active; 'I' for Inactive)
REMARK    1  A    between atoms: C_2  and  C_3
REMARK    2  A    between atoms: C_6  and  C_8
REMARK                            x       y       z     vdW  Elec       q    Type
REMARK                         _______ _______ _______ _____ _____    ______ ____
ROOT
ATOM      1  C   UNL     1       0.631  12.576  19.458  0.00  0.00    +0.000 C 
ATOM      2  C   UNL     1      -0.615  12.453  20.335  0.00  0.00    +0.000 C 
ATOM      3  N   UNL     1      -0.569  11.352  21.314  0.00  0.00    +0.000 N 
ATOM      4  C   UNL     1      -1.307  11.396  22.534  0.00  0.00    +0.000 C 
ATOM      5  O   UNL     1      -1.330  10.437  23.314  0.00  0.00    +0.000 OA
ATOM      6  C   UNL     1       0.241  10.222  20.875  0.00  0.00    +0.000 A 
ATOM      7  C   UNL     1       0.448   9.051  21.619  0.00  0.00    +0.000 A 
ATOM      8  C   UNL     1       1.227   7.984  21.124  0.00  0.00    +0.000 A 
ATOM      9  C   UNL     1       1.796   8.046  19.859  0.00  0.00    +0.000 A 
ATOM     10  C   UNL     1       1.616   9.193  19.101  0.00  0.00    +0.000 A 
ATOM     11  C   UNL     1       0.886  10.273  19.619  0.00  0.00    +0.000 A 
ATOM     12  O   UNL     1       0.864  11.358  18.782  0.00  0.00    +0.000 OA
ENDROOT
BRANCH   4  13
ATOM     13  C   UNL     1      -2.009  12.627  22.969  0.00  0.00    +0.000 A 
ATOM     14  C   UNL     1      -3.351  12.905  22.748  0.00  0.00    +0.000 A 
ATOM     15  C   UNL     1      -3.812  14.114  23.369  0.00  0.00    +0.000 A 
ATOM     16  C   UNL     1      -5.119  14.644  23.515  0.00  0.00    +0.000 A 
ATOM     17  C   UNL     1      -5.305  15.885  24.123  0.00  0.00    +0.000 A 
ATOM     18  F   UNL     1      -6.545  16.377  24.249  0.00  0.00    +0.000 F 
ATOM     19  C   UNL     1      -4.232  16.621  24.594  0.00  0.00    +0.000 A 
ATOM     20  C   UNL     1      -2.935  16.108  24.491  0.00  0.00    +0.000 A 
ATOM     21  C   UNL     1      -2.740  14.850  23.877  0.00  0.00    +0.000 A 
ATOM     22  S   UNL     1      -1.245  14.031  23.605  0.00  0.00    +0.000 S 
ENDBRANCH   4  13
BRANCH   1  24
ATOM     23  O   UNL     1       2.172  12.754  21.318  0.00  0.00    +0.000 OA
ATOM     24  C   UNL     1       1.785  13.250  20.252  0.00  0.00    +0.000 C 
ATOM     25  N   UNL     1       2.291  14.470  19.821  0.00  0.00    +0.000 N 
ATOM     26  C   UNL     1       2.006  15.128  18.546  0.00  0.00    +0.000 C 
ATOM     27  C   UNL     1       3.271  15.163  17.687  0.00  0.00    +0.000 C 
ATOM     28  C   UNL     1       4.411  15.851  18.445  0.00  0.00    +0.000 C 
ATOM     29  C   UNL     1       4.651  15.152  19.784  0.00  0.00    +0.000 C 
ATOM     30  C   UNL     1       3.359  15.104  20.597  0.00  0.00    +0.000 C 
ENDBRANCH   1  24
TORSDOF 2
ENDMDL
MODEL 7
REMARK VINA RESULT:      -7.8      5.519      9.339
REMARK  Name = 
REMARK  2 active torsions:
REMARK  status: ('A' for Active; 'I' for Inactive)
REMARK    1  A    between atoms: C_2  and  C_3
REMARK    2  A    between atoms: C_6  and  C_8
REMARK                            x       y       z     vdW  Elec       q    Type
REMARK                         _______ _______ _______ _____ _____    ______ ____
ROOT
ATOM      1  C   UNL     1       0.564  12.720  19.484  0.00  0.00    +0.000 C 
ATOM      2  C   UNL     1      -0.647  12.541  20.400  0.00  0.00    +0.000 C 
ATOM      3  N   UNL     1      -0.550  11.397  21.325  0.00  0.00    +0.000 N 
ATOM      4  C   UNL     1      -1.242  11.377  22.573  0.00  0.00    +0.000 C 
ATOM      5  O   UNL     1      -1.224  10.383  23.308  0.00  0.00    +0.000 OA
ATOM      6  C   UNL     1       0.256  10.299  20.806  0.00  0.00    +0.000 A 
ATOM      7  C   UNL     1       0.506   9.099  21.487  0.00  0.00    +0.000 A 
ATOM      8  C   UNL     1       1.277   8.066  20.915  0.00  0.00    +0.000 A 
ATOM      9  C   UNL     1       1.798   8.193  19.635  0.00  0.00    +0.000 A 
ATOM     10  C   UNL     1       1.575   9.370  18.937  0.00  0.00    +0.000 A 
ATOM     11  C   UNL     1       0.853  10.416  19.529  0.00  0.00    +0.000 A 
ATOM     12  O   UNL     1       0.785  11.537  18.744  0.00  0.00    +0.000 OA
ENDROOT
BRANCH   4  13
ATOM     13  C   UNL     1      -1.942  12.577  23.089  0.00  0.00    +0.000 A 
ATOM     14  C   UNL     1      -1.329  13.662  23.701  0.00  0.00    +0.000 A 
ATOM     15  C   UNL     1      -2.218  14.745  24.008  0.00  0.00    +0.000 A 
ATOM     16  C   UNL     1      -1.957  16.060  24.471  0.00  0.00    +0.000 A 
ATOM     17  C   UNL     1      -3.015  16.924  24.750  0.00  0.00    +0.000 A 
ATOM     18  F   UNL     1      -2.754  18.162  25.192  0.00  0.00    +0.000 F 
ATOM     19  C   UNL     1      -4.330  16.526  24.586  0.00  0.00    +0.000 A 
ATOM     20  C   UNL     1      -4.615  15.245  24.102  0.00  0.00    +0.000 A 
ATOM     21  C   UNL     1      -3.548  14.364  23.815  0.00  0.00    +0.000 A 
ATOM     22  S   UNL     1      -3.648  12.738  23.245  0.00  0.00    +0.000 S 
ENDBRANCH   4  13
BRANCH   1  24
ATOM     23  O   UNL     1       2.114  12.884  21.337  0.00  0.00    +0.000 OA
ATOM     24  C   UNL     1       1.739  13.374  20.264  0.00  0.00    +0.000 C 
ATOM     25  N   UNL     1       2.279  14.571  19.811  0.00  0.00    +0.000 N 
ATOM     26  C   UNL     1       2.009  15.216  18.527  0.00  0.00    +0.000 C 
ATOM     27  C   UNL     1       3.272  15.201  17.664  0.00  0.00    +0.000 C 
ATOM     28  C   UNL     1       4.433  15.868  18.408  0.00  0.00    +0.000 C 
ATOM     29  C   UNL     1       4.657  15.184  19.758  0.00  0.00    +0.000 C 
ATOM     30  C   UNL     1       3.366  15.187  20.575  0.00  0.00    +0.000 C 
ENDBRANCH   1  24
TORSDOF 2
ENDMDL
MODEL 8
REMARK VINA RESULT:      -7.7      8.269     11.058
REMARK  Name = 
REMARK  2 active torsions:
REMARK  status: ('A' for Active; 'I' for Inactive)
REMARK    1  A    between atoms: C_2  and  C_3
REMARK    2  A    between atoms: C_6  and  C_8
REMARK                            x       y       z     vdW  Elec       q    Type
REMARK                         _______ _______ _______ _____ _____    ______ ____
ROOT
ATOM      1  C   UNL     1       8.495  14.248  20.747  0.00  0.00    +0.000 C 
ATOM      2  C   UNL     1       7.104  14.883  20.740  0.00  0.00    +0.000 C 
ATOM      3  N   UNL     1       6.968  16.052  19.853  0.00  0.00    +0.000 N 
ATOM      4  C   UNL     1       5.715  16.424  19.283  0.00  0.00    +0.000 C 
ATOM      5  O   UNL     1       5.589  17.451  18.605  0.00  0.00    +0.000 OA
ATOM      6  C   UNL     1       8.210  16.795  19.682  0.00  0.00    +0.000 A 
ATOM      7  C   UNL     1       8.351  17.945  18.890  0.00  0.00    +0.000 A 
ATOM      8  C   UNL     1       9.580  18.630  18.787  0.00  0.00    +0.000 A 
ATOM      9  C   UNL     1      10.694  18.203  19.496  0.00  0.00    +0.000 A 
ATOM     10  C   UNL     1      10.590  17.066  20.283  0.00  0.00    +0.000 A 
ATOM     11  C   UNL     1       9.382  16.356  20.340  0.00  0.00    +0.000 A 
ATOM     12  O   UNL     1       9.462  15.217  21.098  0.00  0.00    +0.000 OA
ENDROOT
BRANCH   4  13
ATOM     13  C   UNL     1       4.522  15.552  19.400  0.00  0.00    +0.000 A 
ATOM     14  C   UNL     1       4.132  14.596  18.471  0.00  0.00    +0.000 A 
ATOM     15  C   UNL     1       3.004  13.808  18.876  0.00  0.00    +0.000 A 
ATOM     16  C   UNL     1       2.422  12.651  18.296  0.00  0.00    +0.000 A 
ATOM     17  C   UNL     1       1.277  12.090  18.858  0.00  0.00    +0.000 A 
ATOM     18  F   UNL     1       0.734  11.000  18.298  0.00  0.00    +0.000 F 
ATOM     19  C   UNL     1       0.686  12.640  19.982  0.00  0.00    +0.000 A 
ATOM     20  C   UNL     1       1.256  13.762  20.592  0.00  0.00    +0.000 A 
ATOM     21  C   UNL     1       2.418  14.335  20.028  0.00  0.00    +0.000 A 
ATOM     22  S   UNL     1       3.277  15.729  20.575  0.00  0.00    +0.000 S 
ENDBRANCH   4  13
BRANCH   1  24
ATOM     23  O   UNL     1       7.982  13.565  18.481  0.00  0.00    +0.000 OA
ATOM     24  C   UNL     1       8.698  13.381  19.474  0.00  0.00    +0.000 C 
ATOM     25  N   UNL     1       9.601  12.325  19.502  0.00  0.00    +0.000 N 
ATOM     26  C   UNL     1      10.575  12.042  20.556  0.00  0.00    +0.000 C 
ATOM     27  C   UNL     1      11.993  12.242  20.017  0.00  0.00    +0.000 C 
ATOM     28  C   UNL     1      12.219  11.371  18.777  0.00  0.00    +0.000 C 
ATOM     29  C   UNL     1      11.160  11.675  17.718  0.00  0.00    +0.000 C 
ATOM     30  C   UNL     1       9.759  11.501  18.302  0.00  0.00    +0.000 C 
ENDBRANCH   1  24
TORSDOF 2
ENDMDL
MODEL 9
REMARK VINA RESULT:      -7.6      3.639      5.170
REMARK  Name = 
REMARK  2 active torsions:
REMARK  status: ('A' for Active; 'I' for Inactive)
REMARK    1  A    between atoms: C_2  and  C_3
REMARK    2  A    between atoms: C_6  and  C_8
REMARK                            x       y       z     vdW  Elec       q    Type
REMARK                         _______ _______ _______ _____ _____    ______ ____
ROOT
ATOM      1  C   UNL     1       1.865  13.253  20.943  0.00  0.00    +0.000 C 
ATOM      2  C   UNL     1       1.511  11.769  20.853  0.00  0.00    +0.000 C 
ATOM      3  N   UNL     1       0.157  11.491  20.342  0.00  0.00    +0.000 N 
ATOM      4  C   UNL     1      -0.162  10.272  19.674  0.00  0.00    +0.000 C 
ATOM      5  O   UNL     1      -1.317  10.009  19.319  0.00  0.00    +0.000 OA
ATOM      6  C   UNL     1      -0.802  12.547  20.644  0.00  0.00    +0.000 A 
ATOM      7  C   UNL     1      -2.154  12.529  20.270  0.00  0.00    +0.000 A 
ATOM      8  C   UNL     1      -3.035  13.575  20.616  0.00  0.00    +0.000 A 
ATOM      9  C   UNL     1      -2.595  14.655  21.370  0.00  0.00    +0.000 A 
ATOM     10  C   UNL     1      -1.263  14.706  21.750  0.00  0.00    +0.000 A 
ATOM     11  C   UNL     1      -0.378  13.691  21.358  0.00  0.00    +0.000 A 
ATOM     12  O   UNL     1       0.915  13.924  21.746  0.00  0.00    +0.000 OA
ENDROOT
BRANCH   4  13
ATOM     13  C   UNL     1       0.890   9.300  19.294  0.00  0.00    +0.000 A 
ATOM     14  C   UNL     1       1.340   8.253  20.087  0.00  0.00    +0.000 A 
ATOM     15  C   UNL     1       2.285   7.389  19.441  0.00  0.00    +0.000 A 
ATOM     16  C   UNL     1       2.838   6.147  19.846  0.00  0.00    +0.000 A 
ATOM     17  C   UNL     1       3.795   5.517  19.052  0.00  0.00    +0.000 A 
ATOM     18  F   UNL     1       4.313   4.346  19.449  0.00  0.00    +0.000 F 
ATOM     19  C   UNL     1       4.226   6.081  17.864  0.00  0.00    +0.000 A 
ATOM     20  C   UNL     1       3.676   7.290  17.426  0.00  0.00    +0.000 A 
ATOM     21  C   UNL     1       2.704   7.933  18.225  0.00  0.00    +0.000 A 
ATOM     22  S   UNL     1       1.911   9.434  17.915  0.00  0.00    +0.000 S 
ENDBRANCH   4  13
BRANCH   1  24
ATOM     23  O   UNL     1       1.449  13.614  18.585  0.00  0.00    +0.000 OA
ATOM     24  C   UNL     1       2.217  13.810  19.535  0.00  0.00    +0.000 C 
ATOM     25  N   UNL     1       3.448  14.420  19.329  0.00  0.00    +0.000 N 
ATOM     26  C   UNL     1       4.412  14.804  20.360  0.00  0.00    +0.000 C 
ATOM     27  C   UNL     1       4.524  16.328  20.422  0.00  0.00    +0.000 C 
ATOM     28  C   UNL     1       4.899  16.892  19.048  0.00  0.00    +0.000 C 
ATOM     29  C   UNL     1       3.885  16.437  17.997  0.00  0.00    +0.000 C 
ATOM     30  C   UNL     1       3.774  14.914  17.989  0.00  0.00    +0.000 C 
ENDBRANCH   1  24
TORSDOF 2
ENDMDL
