MODEL 1
REMARK VINA RESULT:      -8.6      0.000      0.000
REMARK  Name = 
REMARK  5 active torsions:
REMARK  status: ('A' for Active; 'I' for Inactive)
REMARK    1  A    between atoms: C_1  and  C_2
REMARK    2  A    between atoms: N_4  and  C_5
REMARK    3  A    between atoms: C_5  and  C_6
REMARK    4  A    between atoms: C_5  and  C_16
REMARK    5  A    between atoms: C_6  and  C_7
REMARK                            x       y       z     vdW  Elec       q    Type
REMARK                         _______ _______ _______ _____ _____    ______ ____
ROOT
ATOM      1  C   UNL     1       3.945   6.513  17.447  0.00  0.00    +0.000 C 
ENDROOT
BRANCH   1   2
ATOM      2  C   UNL     1       2.932   7.385  18.248  0.00  0.00    +0.000 C 
ATOM      3  O   UNL     1       2.663   7.113  19.423  0.00  0.00    +0.000 OA
ATOM      4  N   UNL     1       2.421   8.482  17.585  0.00  0.00    +0.000 N 
ATOM      5  C   UNL     1       1.440   9.247  18.164  0.00  0.00    +0.000 A 
ATOM      6  N   UNL     1       0.355   9.620  17.534  0.00  0.00    +0.000 NA
ATOM      7  C   UNL     1      -0.374  10.324  18.457  0.00  0.00    +0.000 A 
ATOM      8  C   UNL     1      -1.673  10.840  18.363  0.00  0.00    +0.000 A 
ATOM      9  C   UNL     1      -2.175  11.582  19.438  0.00  0.00    +0.000 A 
ATOM     10  C   UNL     1      -1.389  11.826  20.567  0.00  0.00    +0.000 A 
ATOM     11  C   UNL     1      -0.098  11.295  20.688  0.00  0.00    +0.000 A 
ATOM     12  C   UNL     1       0.359  10.515  19.623  0.00  0.00    +0.000 A 
ATOM     13  N   UNL     1       1.498   9.773  19.426  0.00  0.00    +0.000 N 
ATOM     14  H   UNL     1       2.246   8.372  16.598  0.00  0.00    +0.000 HD
ATOM     15  H   UNL     1       2.257   9.643  20.080  0.00  0.00    +0.000 HD
ENDBRANCH   1   2
BRANCH   1  19
ATOM     16  C   UNL     1       7.673   6.609  18.242  0.00  0.00    +0.000 C 
ATOM     17  C   UNL     1       6.436   6.653  17.388  0.00  0.00    +0.000 C 
ATOM     18  O   UNL     1       6.488   6.692  16.162  0.00  0.00    +0.000 OA
ATOM     19  N   UNL     1       5.259   6.626  18.094  0.00  0.00    +0.000 N 
ATOM     20  H   UNL     1       5.268   6.754  19.101  0.00  0.00    +0.000 HD
ENDBRANCH   1  19
BRANCH   1  21
ATOM     21  C   UNL     1       3.530   5.046  17.183  0.00  0.00    +0.000 C 
BRANCH  21  22
ATOM     22  C   UNL     1       3.782   4.104  18.329  0.00  0.00    +0.000 A 
ATOM     23  C   UNL     1       4.975   3.462  18.615  0.00  0.00    +0.000 A 
ATOM     24  N   UNL     1       4.821   2.749  19.769  0.00  0.00    +0.000 N 
ATOM     25  C   UNL     1       3.530   2.868  20.231  0.00  0.00    +0.000 A 
ATOM     26  C   UNL     1       2.933   2.318  21.370  0.00  0.00    +0.000 A 
ATOM     27  C   UNL     1       1.585   2.609  21.594  0.00  0.00    +0.000 A 
ATOM     28  C   UNL     1       0.862   3.400  20.708  0.00  0.00    +0.000 A 
ATOM     29  C   UNL     1       1.472   3.933  19.566  0.00  0.00    +0.000 A 
ATOM     30  C   UNL     1       2.843   3.678  19.328  0.00  0.00    +0.000 A 
ATOM     31  H   UNL     1       5.545   2.211  20.224  0.00  0.00    +0.000 HD
ENDBRANCH  21  22
ENDBRANCH   1  21
TORSDOF 4
ENDMDL
MODEL 2
REMARK VINA RESULT:      -8.5      2.520      4.622
REMARK  Name = 
REMARK  5 active torsions:
REMARK  status: ('A' for Active; 'I' for Inactive)
REMARK    1  A    between atoms: C_1  and  C_2
REMARK    2  A    between atoms: N_4  and  C_5
REMARK    3  A    between atoms: C_5  and  C_6
REMARK    4  A    between atoms: C_5  and  C_16
REMARK    5  A    between atoms: C_6  and  C_7
REMARK                            x       y       z     vdW  Elec       q    Type
REMARK                         _______ _______ _______ _____ _____    ______ ____
ROOT
ATOM      1  C   UNL     1       3.499   5.413  18.830  0.00  0.00    +0.000 C 
ENDROOT
BRANCH   1   2
ATOM      2  C   UNL     1       2.526   6.196  19.763  0.00  0.00    +0.000 C 
ATOM      3  O   UNL     1       1.779   5.591  20.539  0.00  0.00    +0.000 OA
ATOM      4  N   UNL     1       2.604   7.572  19.700  0.00  0.00    +0.000 N 
ATOM      5  C   UNL     1       1.715   8.349  20.398  0.00  0.00    +0.000 A 
ATOM      6  N   UNL     1       1.079   9.365  19.869  0.00  0.00    +0.000 NA
ATOM      7  C   UNL     1       0.271   9.843  20.867  0.00  0.00    +0.000 A 
ATOM      8  C   UNL     1      -0.717  10.836  20.818  0.00  0.00    +0.000 A 
ATOM      9  C   UNL     1      -1.369  11.188  22.004  0.00  0.00    +0.000 A 
ATOM     10  C   UNL     1      -1.025  10.582  23.215  0.00  0.00    +0.000 A 
ATOM     11  C   UNL     1      -0.058   9.570  23.278  0.00  0.00    +0.000 A 
ATOM     12  C   UNL     1       0.541   9.202  22.072  0.00  0.00    +0.000 A 
ATOM     13  N   UNL     1       1.435   8.217  21.730  0.00  0.00    +0.000 N 
ATOM     14  H   UNL     1       2.786   7.973  18.792  0.00  0.00    +0.000 HD
ATOM     15  H   UNL     1       1.834   7.522  22.346  0.00  0.00    +0.000 HD
ENDBRANCH   1   2
BRANCH   1  19
ATOM     16  C   UNL     1       3.531   1.605  19.025  0.00  0.00    +0.000 C 
ATOM     17  C   UNL     1       4.060   3.006  19.171  0.00  0.00    +0.000 C 
ATOM     18  O   UNL     1       5.221   3.236  19.497  0.00  0.00    +0.000 OA
ATOM     19  N   UNL     1       3.145   3.988  18.890  0.00  0.00    +0.000 N 
ATOM     20  H   UNL     1       2.163   3.753  18.780  0.00  0.00    +0.000 HD
ENDBRANCH   1  19
BRANCH   1  21
ATOM     21  C   UNL     1       3.631   5.938  17.381  0.00  0.00    +0.000 C 
BRANCH  21  22
ATOM     22  C   UNL     1       5.028   5.902  16.822  0.00  0.00    +0.000 A 
ATOM     23  C   UNL     1       6.146   6.507  17.370  0.00  0.00    +0.000 A 
ATOM     24  N   UNL     1       7.232   6.187  16.608  0.00  0.00    +0.000 N 
ATOM     25  C   UNL     1       6.849   5.417  15.534  0.00  0.00    +0.000 A 
ATOM     26  C   UNL     1       7.622   4.865  14.507  0.00  0.00    +0.000 A 
ATOM     27  C   UNL     1       6.957   4.118  13.532  0.00  0.00    +0.000 A 
ATOM     28  C   UNL     1       5.578   3.947  13.573  0.00  0.00    +0.000 A 
ATOM     29  C   UNL     1       4.817   4.517  14.600  0.00  0.00    +0.000 A 
ATOM     30  C   UNL     1       5.467   5.255  15.617  0.00  0.00    +0.000 A 
ATOM     31  H   UNL     1       8.183   6.470  16.800  0.00  0.00    +0.000 HD
ENDBRANCH  21  22
ENDBRANCH   1  21
TORSDOF 4
ENDMDL
MODEL 3
REMARK VINA RESULT:      -8.5      2.726      8.380
REMARK  Name = 
REMARK  5 active torsions:
REMARK  status: ('A' for Active; 'I' for Inactive)
REMARK    1  A    between atoms: C_1  and  C_2
REMARK    2  A    between atoms: N_4  and  C_5
REMARK    3  A    between atoms: C_5  and  C_6
REMARK    4  A    between atoms: C_5  and  C_16
REMARK    5  A    between atoms: C_6  and  C_7
REMARK                            x       y       z     vdW  Elec       q    Type
REMARK                         _______ _______ _______ _____ _____    ______ ____
ROOT
ATOM      1  C   UNL     1       0.623   9.740  19.321  0.00  0.00    +0.000 C 
ENDROOT
BRANCH   1   2
ATOM      2  C   UNL     1       1.645   8.942  18.456  0.00  0.00    +0.000 C 
ATOM      3  O   UNL     1       1.983   9.357  17.343  0.00  0.00    +0.000 OA
ATOM      4  N   UNL     1       2.171   7.805  19.035  0.00  0.00    +0.000 N 
ATOM      5  C   UNL     1       2.991   6.976  18.314  0.00  0.00    +0.000 A 
ATOM      6  N   UNL     1       2.846   5.675  18.279  0.00  0.00    +0.000 NA
ATOM      7  C   UNL     1       3.824   5.226  17.430  0.00  0.00    +0.000 A 
ATOM      8  C   UNL     1       4.049   3.937  16.929  0.00  0.00    +0.000 A 
ATOM      9  C   UNL     1       5.165   3.723  16.114  0.00  0.00    +0.000 A 
ATOM     10  C   UNL     1       6.052   4.765  15.829  0.00  0.00    +0.000 A 
ATOM     11  C   UNL     1       5.828   6.066  16.301  0.00  0.00    +0.000 A 
ATOM     12  C   UNL     1       4.679   6.262  17.069  0.00  0.00    +0.000 A 
ATOM     13  N   UNL     1       4.093   7.381  17.611  0.00  0.00    +0.000 N 
ATOM     14  H   UNL     1       1.548   7.267  19.618  0.00  0.00    +0.000 HD
ATOM     15  H   UNL     1       4.415   8.334  17.525  0.00  0.00    +0.000 HD
ENDBRANCH   1   2
BRANCH   1  19
ATOM     16  C   UNL     1       0.850   9.269  23.099  0.00  0.00    +0.000 C 
ATOM     17  C   UNL     1       0.301   9.091  21.709  0.00  0.00    +0.000 C 
ATOM     18  O   UNL     1      -0.746   8.489  21.492  0.00  0.00    +0.000 OA
ATOM     19  N   UNL     1       1.058   9.672  20.723  0.00  0.00    +0.000 N 
ATOM     20  H   UNL     1       1.989  10.019  20.934  0.00  0.00    +0.000 HD
ENDBRANCH   1  19
BRANCH   1  21
ATOM     21  C   UNL     1       0.311  11.183  18.859  0.00  0.00    +0.000 C 
BRANCH  21  22
ATOM     22  C   UNL     1      -1.154  11.497  18.716  0.00  0.00    +0.000 A 
ATOM     23  C   UNL     1      -1.901  12.316  19.546  0.00  0.00    +0.000 A 
ATOM     24  N   UNL     1      -3.168  12.401  19.047  0.00  0.00    +0.000 N 
ATOM     25  C   UNL     1      -3.291  11.614  17.924  0.00  0.00    +0.000 A 
ATOM     26  C   UNL     1      -4.398  11.404  17.095  0.00  0.00    +0.000 A 
ATOM     27  C   UNL     1      -4.235  10.539  16.012  0.00  0.00    +0.000 A 
ATOM     28  C   UNL     1      -3.023   9.898  15.779  0.00  0.00    +0.000 A 
ATOM     29  C   UNL     1      -1.929  10.109  16.625  0.00  0.00    +0.000 A 
ATOM     30  C   UNL     1      -2.057  11.002  17.715  0.00  0.00    +0.000 A 
ATOM     31  H   UNL     1      -3.913  12.960  19.439  0.00  0.00    +0.000 HD
ENDBRANCH  21  22
ENDBRANCH   1  21
TORSDOF 4
ENDMDL
MODEL 4
REMARK VINA RESULT:      -8.5      2.837      5.048
REMARK  Name = 
REMARK  5 active torsions:
REMARK  status: ('A' for Active; 'I' for Inactive)
REMARK    1  A    between atoms: C_1  and  C_2
REMARK    2  A    between atoms: N_4  and  C_5
REMARK    3  A    between atoms: C_5  and  C_6
REMARK    4  A    between atoms: C_5  and  C_16
REMARK    5  A    between atoms: C_6  and  C_7
REMARK                            x       y       z     vdW  Elec       q    Type
REMARK                         _______ _______ _______ _____ _____    ______ ____
ROOT
ATOM      1  C   UNL     1       4.159   5.047  18.043  0.00  0.00    +0.000 C 
ENDROOT
BRANCH   1   2
ATOM      2  C   UNL     1       3.550   6.474  18.193  0.00  0.00    +0.000 C 
ATOM      3  O   UNL     1       4.018   7.425  17.558  0.00  0.00    +0.000 OA
ATOM      4  N   UNL     1       2.449   6.578  19.018  0.00  0.00    +0.000 N 
ATOM      5  C   UNL     1       1.910   7.807  19.303  0.00  0.00    +0.000 A 
ATOM      6  N   UNL     1       1.600   8.192  20.515  0.00  0.00    +0.000 NA
ATOM      7  C   UNL     1       1.136   9.474  20.379  0.00  0.00    +0.000 A 
ATOM      8  C   UNL     1       0.788  10.408  21.364  0.00  0.00    +0.000 A 
ATOM      9  C   UNL     1       0.278  11.646  20.961  0.00  0.00    +0.000 A 
ATOM     10  C   UNL     1       0.093  11.935  19.606  0.00  0.00    +0.000 A 
ATOM     11  C   UNL     1       0.460  11.023  18.607  0.00  0.00    +0.000 A 
ATOM     12  C   UNL     1       1.014   9.816  19.036  0.00  0.00    +0.000 A 
ATOM     13  N   UNL     1       1.563   8.747  18.370  0.00  0.00    +0.000 N 
ATOM     14  H   UNL     1       2.442   5.992  19.838  0.00  0.00    +0.000 HD
ATOM     15  H   UNL     1       1.681   8.652  17.372  0.00  0.00    +0.000 HD
ENDBRANCH   1   2
BRANCH   1  19
ATOM     16  C   UNL     1       3.204   2.272  20.479  0.00  0.00    +0.000 C 
ATOM     17  C   UNL     1       4.115   3.185  19.703  0.00  0.00    +0.000 C 
ATOM     18  O   UNL     1       5.335   3.052  19.713  0.00  0.00    +0.000 OA
ATOM     19  N   UNL     1       3.465   4.152  18.980  0.00  0.00    +0.000 N 
ATOM     20  H   UNL     1       2.474   4.319  19.129  0.00  0.00    +0.000 HD
ENDBRANCH   1  19
BRANCH   1  21
ATOM     21  C   UNL     1       4.225   4.477  16.607  0.00  0.00    +0.000 C 
BRANCH  21  22
ATOM     22  C   UNL     1       5.475   4.829  15.845  0.00  0.00    +0.000 A 
ATOM     23  C   UNL     1       6.536   5.584  16.317  0.00  0.00    +0.000 A 
ATOM     24  N   UNL     1       7.504   5.622  15.355  0.00  0.00    +0.000 N 
ATOM     25  C   UNL     1       7.085   4.945  14.232  0.00  0.00    +0.000 A 
ATOM     26  C   UNL     1       7.747   4.727  13.020  0.00  0.00    +0.000 A 
ATOM     27  C   UNL     1       7.071   3.996  12.040  0.00  0.00    +0.000 A 
ATOM     28  C   UNL     1       5.783   3.520  12.258  0.00  0.00    +0.000 A 
ATOM     29  C   UNL     1       5.129   3.758  13.473  0.00  0.00    +0.000 A 
ATOM     30  C   UNL     1       5.800   4.471  14.493  0.00  0.00    +0.000 A 
ATOM     31  H   UNL     1       8.401   6.078  15.448  0.00  0.00    +0.000 HD
ENDBRANCH  21  22
ENDBRANCH   1  21
TORSDOF 4
ENDMDL
MODEL 5
REMARK VINA RESULT:      -8.5      1.025      1.531
REMARK  Name = 
REMARK  5 active torsions:
REMARK  status: ('A' for Active; 'I' for Inactive)
REMARK    1  A    between atoms: C_1  and  C_2
REMARK    2  A    between atoms: N_4  and  C_5
REMARK    3  A    between atoms: C_5  and  C_6
REMARK    4  A    between atoms: C_5  and  C_16
REMARK    5  A    between atoms: C_6  and  C_7
REMARK                            x       y       z     vdW  Elec       q    Type
REMARK                         _______ _______ _______ _____ _____    ______ ____
ROOT
ATOM      1  C   UNL     1       4.458   6.171  17.237  0.00  0.00    +0.000 C 
ENDROOT
BRANCH   1   2
ATOM      2  C   UNL     1       3.534   7.367  17.619  0.00  0.00    +0.000 C 
ATOM      3  O   UNL     1       3.614   8.440  17.011  0.00  0.00    +0.000 OA
ATOM      4  N   UNL     1       2.610   7.125  18.615  0.00  0.00    +0.000 N 
ATOM      5  C   UNL     1       1.829   8.143  19.098  0.00  0.00    +0.000 A 
ATOM      6  N   UNL     1       1.651   8.367  20.376  0.00  0.00    +0.000 NA
ATOM      7  C   UNL     1       0.850   9.478  20.439  0.00  0.00    +0.000 A 
ATOM      8  C   UNL     1       0.453  10.230  21.552  0.00  0.00    +0.000 A 
ATOM      9  C   UNL     1      -0.428  11.299  21.355  0.00  0.00    +0.000 A 
ATOM     10  C   UNL     1      -0.922  11.593  20.082  0.00  0.00    +0.000 A 
ATOM     11  C   UNL     1      -0.514  10.867  18.954  0.00  0.00    +0.000 A 
ATOM     12  C   UNL     1       0.405   9.839  19.172  0.00  0.00    +0.000 A 
ATOM     13  N   UNL     1       1.086   8.995  18.327  0.00  0.00    +0.000 N 
ATOM     14  H   UNL     1       2.904   6.519  19.365  0.00  0.00    +0.000 HD
ATOM     15  H   UNL     1       1.044   8.986  17.318  0.00  0.00    +0.000 HD
ENDBRANCH   1   2
BRANCH   1  19
ATOM     16  C   UNL     1       7.912   6.149  18.853  0.00  0.00    +0.000 C 
ATOM     17  C   UNL     1       6.886   6.372  17.775  0.00  0.00    +0.000 C 
ATOM     18  O   UNL     1       7.197   6.708  16.636  0.00  0.00    +0.000 OA
ATOM     19  N   UNL     1       5.591   6.151  18.172  0.00  0.00    +0.000 N 
ATOM     20  H   UNL     1       5.374   6.031  19.157  0.00  0.00    +0.000 HD
ENDBRANCH   1  19
BRANCH   1  21
ATOM     21  C   UNL     1       3.772   4.792  17.096  0.00  0.00    +0.000 C 
BRANCH  21  22
ATOM     22  C   UNL     1       3.904   3.895  18.298  0.00  0.00    +0.000 A 
ATOM     23  C   UNL     1       5.026   3.167  18.657  0.00  0.00    +0.000 A 
ATOM     24  N   UNL     1       4.774   2.536  19.841  0.00  0.00    +0.000 N 
ATOM     25  C   UNL     1       3.487   2.795  20.253  0.00  0.00    +0.000 A 
ATOM     26  C   UNL     1       2.810   2.363  21.399  0.00  0.00    +0.000 A 
ATOM     27  C   UNL     1       1.488   2.784  21.562  0.00  0.00    +0.000 A 
ATOM     28  C   UNL     1       0.866   3.586  20.612  0.00  0.00    +0.000 A 
ATOM     29  C   UNL     1       1.553   3.999  19.464  0.00  0.00    +0.000 A 
ATOM     30  C   UNL     1       2.902   3.611  19.286  0.00  0.00    +0.000 A 
ATOM     31  H   UNL     1       5.434   1.962  20.348  0.00  0.00    +0.000 HD
ENDBRANCH  21  22
ENDBRANCH   1  21
TORSDOF 4
ENDMDL
MODEL 6
REMARK VINA RESULT:      -8.4      3.001      5.350
REMARK  Name = 
REMARK  5 active torsions:
REMARK  status: ('A' for Active; 'I' for Inactive)
REMARK    1  A    between atoms: C_1  and  C_2
REMARK    2  A    between atoms: N_4  and  C_5
REMARK    3  A    between atoms: C_5  and  C_6
REMARK    4  A    between atoms: C_5  and  C_16
REMARK    5  A    between atoms: C_6  and  C_7
REMARK                            x       y       z     vdW  Elec       q    Type
REMARK                         _______ _______ _______ _____ _____    ______ ____
ROOT
ATOM      1  C   UNL     1       4.429   4.443  17.977  0.00  0.00    +0.000 C 
ENDROOT
BRANCH   1   2
ATOM      2  C   UNL     1       3.852   5.866  18.244  0.00  0.00    +0.000 C 
ATOM      3  O   UNL     1       4.410   6.866  17.780  0.00  0.00    +0.000 OA
ATOM      4  N   UNL     1       2.677   5.917  18.966  0.00  0.00    +0.000 N 
ATOM      5  C   UNL     1       2.150   7.124  19.348  0.00  0.00    +0.000 A 
ATOM      6  N   UNL     1       1.731   7.372  20.564  0.00  0.00    +0.000 NA
ATOM      7  C   UNL     1       1.322   8.680  20.544  0.00  0.00    +0.000 A 
ATOM      8  C   UNL     1       0.905   9.501  21.600  0.00  0.00    +0.000 A 
ATOM      9  C   UNL     1       0.476  10.800  21.307  0.00  0.00    +0.000 A 
ATOM     10  C   UNL     1       0.437  11.258  19.987  0.00  0.00    +0.000 A 
ATOM     11  C   UNL     1       0.875  10.459  18.922  0.00  0.00    +0.000 A 
ATOM     12  C   UNL     1       1.346   9.186  19.249  0.00  0.00    +0.000 A 
ATOM     13  N   UNL     1       1.927   8.183  18.511  0.00  0.00    +0.000 N 
ATOM     14  H   UNL     1       2.570   5.236  19.701  0.00  0.00    +0.000 HD
ATOM     15  H   UNL     1       2.142   8.205  17.525  0.00  0.00    +0.000 HD
ENDBRANCH   1   2
BRANCH   1  19
ATOM     16  C   UNL     1       1.858   2.137  19.593  0.00  0.00    +0.000 C 
ATOM     17  C   UNL     1       2.491   2.965  18.507  0.00  0.00    +0.000 C 
ATOM     18  O   UNL     1       1.939   3.159  17.428  0.00  0.00    +0.000 OA
ATOM     19  N   UNL     1       3.715   3.490  18.837  0.00  0.00    +0.000 N 
ATOM     20  H   UNL     1       4.196   3.173  19.672  0.00  0.00    +0.000 HD
ENDBRANCH   1  19
BRANCH   1  21
ATOM     21  C   UNL     1       4.485   3.992  16.498  0.00  0.00    +0.000 C 
BRANCH  21  22
ATOM     22  C   UNL     1       5.670   4.506  15.726  0.00  0.00    +0.000 A 
ATOM     23  C   UNL     1       6.687   5.305  16.221  0.00  0.00    +0.000 A 
ATOM     24  N   UNL     1       7.608   5.500  15.233  0.00  0.00    +0.000 N 
ATOM     25  C   UNL     1       7.198   4.882  14.073  0.00  0.00    +0.000 A 
ATOM     26  C   UNL     1       7.825   4.817  12.824  0.00  0.00    +0.000 A 
ATOM     27  C   UNL     1       7.169   4.113  11.811  0.00  0.00    +0.000 A 
ATOM     28  C   UNL     1       5.933   3.517  12.033  0.00  0.00    +0.000 A 
ATOM     29  C   UNL     1       5.313   3.602  13.286  0.00  0.00    +0.000 A 
ATOM     30  C   UNL     1       5.967   4.285  14.338  0.00  0.00    +0.000 A 
ATOM     31  H   UNL     1       8.468   6.020  15.332  0.00  0.00    +0.000 HD
ENDBRANCH  21  22
ENDBRANCH   1  21
TORSDOF 4
ENDMDL
MODEL 7
REMARK VINA RESULT:      -8.4      2.171      4.263
REMARK  Name = 
REMARK  5 active torsions:
REMARK  status: ('A' for Active; 'I' for Inactive)
REMARK    1  A    between atoms: C_1  and  C_2
REMARK    2  A    between atoms: N_4  and  C_5
REMARK    3  A    between atoms: C_5  and  C_6
REMARK    4  A    between atoms: C_5  and  C_16
REMARK    5  A    between atoms: C_6  and  C_7
REMARK                            x       y       z     vdW  Elec       q    Type
REMARK                         _______ _______ _______ _____ _____    ______ ____
ROOT
ATOM      1  C   UNL     1       2.608   6.395  19.706  0.00  0.00    +0.000 C 
ENDROOT
BRANCH   1   2
ATOM      2  C   UNL     1       1.739   7.569  20.250  0.00  0.00    +0.000 C 
ATOM      3  O   UNL     1       1.280   7.531  21.396  0.00  0.00    +0.000 OA
ATOM      4  N   UNL     1       1.578   8.646  19.401  0.00  0.00    +0.000 N 
ATOM      5  C   UNL     1       0.741   9.678  19.742  0.00  0.00    +0.000 A 
ATOM      6  N   UNL     1      -0.147  10.183  18.924  0.00  0.00    +0.000 NA
ATOM      7  C   UNL     1      -0.794  11.151  19.647  0.00  0.00    +0.000 A 
ATOM      8  C   UNL     1      -1.917  11.917  19.309  0.00  0.00    +0.000 A 
ATOM      9  C   UNL     1      -2.355  12.894  20.209  0.00  0.00    +0.000 A 
ATOM     10  C   UNL     1      -1.670  13.120  21.406  0.00  0.00    +0.000 A 
ATOM     11  C   UNL     1      -0.560  12.346  21.772  0.00  0.00    +0.000 A 
ATOM     12  C   UNL     1      -0.177  11.343  20.879  0.00  0.00    +0.000 A 
ATOM     13  N   UNL     1       0.774  10.353  20.932  0.00  0.00    +0.000 N 
ATOM     14  H   UNL     1       1.498   8.437  18.418  0.00  0.00    +0.000 HD
ATOM     15  H   UNL     1       1.400  10.157  21.700  0.00  0.00    +0.000 HD
ENDBRANCH   1   2
BRANCH   1  19
ATOM     16  C   UNL     1       0.956   2.997  20.224  0.00  0.00    +0.000 C 
ATOM     17  C   UNL     1       1.775   4.210  20.575  0.00  0.00    +0.000 C 
ATOM     18  O   UNL     1       2.412   4.287  21.622  0.00  0.00    +0.000 OA
ATOM     19  N   UNL     1       1.760   5.198  19.624  0.00  0.00    +0.000 N 
ATOM     20  H   UNL     1       1.098   5.154  18.856  0.00  0.00    +0.000 HD
ENDBRANCH   1  19
BRANCH   1  21
ATOM     21  C   UNL     1       3.390   6.667  18.400  0.00  0.00    +0.000 C 
BRANCH  21  22
ATOM     22  C   UNL     1       4.608   5.805  18.201  0.00  0.00    +0.000 A 
ATOM     23  C   UNL     1       5.290   5.112  19.187  0.00  0.00    +0.000 A 
ATOM     24  N   UNL     1       6.293   4.396  18.600  0.00  0.00    +0.000 N 
ATOM     25  C   UNL     1       6.320   4.637  17.245  0.00  0.00    +0.000 A 
ATOM     26  C   UNL     1       7.168   4.120  16.261  0.00  0.00    +0.000 A 
ATOM     27  C   UNL     1       6.965   4.549  14.947  0.00  0.00    +0.000 A 
ATOM     28  C   UNL     1       5.969   5.468  14.636  0.00  0.00    +0.000 A 
ATOM     29  C   UNL     1       5.137   5.986  15.635  0.00  0.00    +0.000 A 
ATOM     30  C   UNL     1       5.302   5.549  16.971  0.00  0.00    +0.000 A 
ATOM     31  H   UNL     1       6.927   3.775  19.084  0.00  0.00    +0.000 HD
ENDBRANCH  21  22
ENDBRANCH   1  21
TORSDOF 4
ENDMDL
MODEL 8
REMARK VINA RESULT:      -8.3      2.327      4.380
REMARK  Name = 
REMARK  5 active torsions:
REMARK  status: ('A' for Active; 'I' for Inactive)
REMARK    1  A    between atoms: C_1  and  C_2
REMARK    2  A    between atoms: N_4  and  C_5
REMARK    3  A    between atoms: C_5  and  C_6
REMARK    4  A    between atoms: C_5  and  C_16
REMARK    5  A    between atoms: C_6  and  C_7
REMARK                            x       y       z     vdW  Elec       q    Type
REMARK                         _______ _______ _______ _____ _____    ______ ____
ROOT
ATOM      1  C   UNL     1       2.822   5.839  19.646  0.00  0.00    +0.000 C 
ENDROOT
BRANCH   1   2
ATOM      2  C   UNL     1       1.791   6.760  20.366  0.00  0.00    +0.000 C 
ATOM      3  O   UNL     1       0.884   6.272  21.048  0.00  0.00    +0.000 OA
ATOM      4  N   UNL     1       1.998   8.118  20.235  0.00  0.00    +0.000 N 
ATOM      5  C   UNL     1       1.085   9.010  20.737  0.00  0.00    +0.000 A 
ATOM      6  N   UNL     1       0.629  10.031  20.056  0.00  0.00    +0.000 NA
ATOM      7  C   UNL     1      -0.276  10.641  20.884  0.00  0.00    +0.000 A 
ATOM      8  C   UNL     1      -1.154  11.702  20.621  0.00  0.00    +0.000 A 
ATOM      9  C   UNL     1      -1.946  12.187  21.666  0.00  0.00    +0.000 A 
ATOM     10  C   UNL     1      -1.846  11.645  22.950  0.00  0.00    +0.000 A 
ATOM     11  C   UNL     1      -0.993  10.568  23.224  0.00  0.00    +0.000 A 
ATOM     12  C   UNL     1      -0.251  10.069  22.151  0.00  0.00    +0.000 A 
ATOM     13  N   UNL     1       0.595   8.995  22.014  0.00  0.00    +0.000 N 
ATOM     14  H   UNL     1       2.351   8.437  19.346  0.00  0.00    +0.000 HD
ATOM     15  H   UNL     1       0.832   8.318  22.725  0.00  0.00    +0.000 HD
ENDBRANCH   1   2
BRANCH   1  19
ATOM     16  C   UNL     1       1.568   2.398  18.584  0.00  0.00    +0.000 C 
ATOM     17  C   UNL     1       2.295   3.410  19.428  0.00  0.00    +0.000 C 
ATOM     18  O   UNL     1       3.019   3.083  20.363  0.00  0.00    +0.000 OA
ATOM     19  N   UNL     1       2.092   4.713  19.048  0.00  0.00    +0.000 N 
ATOM     20  H   UNL     1       1.366   4.939  18.375  0.00  0.00    +0.000 HD
ENDBRANCH   1  19
BRANCH   1  21
ATOM     21  C   UNL     1       3.780   6.531  18.648  0.00  0.00    +0.000 C 
BRANCH  21  22
ATOM     22  C   UNL     1       4.994   5.722  18.275  0.00  0.00    +0.000 A 
ATOM     23  C   UNL     1       5.857   5.088  19.153  0.00  0.00    +0.000 A 
ATOM     24  N   UNL     1       6.791   4.406  18.428  0.00  0.00    +0.000 N 
ATOM     25  C   UNL     1       6.592   4.614  17.081  0.00  0.00    +0.000 A 
ATOM     26  C   UNL     1       7.301   4.113  15.984  0.00  0.00    +0.000 A 
ATOM     27  C   UNL     1       6.872   4.498  14.712  0.00  0.00    +0.000 A 
ATOM     28  C   UNL     1       5.795   5.360  14.546  0.00  0.00    +0.000 A 
ATOM     29  C   UNL     1       5.104   5.863  15.655  0.00  0.00    +0.000 A 
ATOM     30  C   UNL     1       5.498   5.468  16.955  0.00  0.00    +0.000 A 
ATOM     31  H   UNL     1       7.524   3.829  18.816  0.00  0.00    +0.000 HD
ENDBRANCH  21  22
ENDBRANCH   1  21
TORSDOF 4
ENDMDL
MODEL 9
REMARK VINA RESULT:      -8.3      2.915      5.046
REMARK  Name = 
REMARK  5 active torsions:
REMARK  status: ('A' for Active; 'I' for Inactive)
REMARK    1  A    between atoms: C_1  and  C_2
REMARK    2  A    between atoms: N_4  and  C_5
REMARK    3  A    between atoms: C_5  and  C_6
REMARK    4  A    between atoms: C_5  and  C_16
REMARK    5  A    between atoms: C_6  and  C_7
REMARK                            x       y       z     vdW  Elec       q    Type
REMARK                         _______ _______ _______ _____ _____    ______ ____
ROOT
ATOM      1  C   UNL     1       4.827   4.763  18.155  0.00  0.00    +0.000 C 
ENDROOT
BRANCH   1   2
ATOM      2  C   UNL     1       3.658   5.654  18.676  0.00  0.00    +0.000 C 
ATOM      3  O   UNL     1       2.830   5.200  19.472  0.00  0.00    +0.000 OA
ATOM      4  N   UNL     1       3.654   6.963  18.239  0.00  0.00    +0.000 N 
ATOM      5  C   UNL     1       2.609   7.795  18.550  0.00  0.00    +0.000 A 
ATOM      6  N   UNL     1       2.008   8.554  17.669  0.00  0.00    +0.000 NA
ATOM      7  C   UNL     1       1.011   9.190  18.362  0.00  0.00    +0.000 A 
ATOM      8  C   UNL     1      -0.017  10.017  17.890  0.00  0.00    +0.000 A 
ATOM      9  C   UNL     1      -0.886  10.598  18.819  0.00  0.00    +0.000 A 
ATOM     10  C   UNL     1      -0.716  10.381  20.189  0.00  0.00    +0.000 A 
ATOM     11  C   UNL     1       0.290   9.536  20.676  0.00  0.00    +0.000 A 
ATOM     12  C   UNL     1       1.111   8.928  19.724  0.00  0.00    +0.000 A 
ATOM     13  N   UNL     1       2.114   7.993  19.810  0.00  0.00    +0.000 N 
ATOM     14  H   UNL     1       3.963   7.124  17.292  0.00  0.00    +0.000 HD
ATOM     15  H   UNL     1       2.446   7.538  20.648  0.00  0.00    +0.000 HD
ENDBRANCH   1   2
BRANCH   1  19
ATOM     16  C   UNL     1       4.590   1.634  20.321  0.00  0.00    +0.000 C 
ATOM     17  C   UNL     1       4.309   2.534  19.148  0.00  0.00    +0.000 C 
ATOM     18  O   UNL     1       3.471   2.255  18.296  0.00  0.00    +0.000 OA
ATOM     19  N   UNL     1       5.052   3.687  19.130  0.00  0.00    +0.000 N 
ATOM     20  H   UNL     1       5.837   3.796  19.764  0.00  0.00    +0.000 HD
ENDBRANCH   1  19
BRANCH   1  21
ATOM     21  C   UNL     1       4.698   4.242  16.704  0.00  0.00    +0.000 C 
BRANCH  21  22
ATOM     22  C   UNL     1       5.799   4.679  15.776  0.00  0.00    +0.000 A 
ATOM     23  C   UNL     1       6.850   5.523  16.093  0.00  0.00    +0.000 A 
ATOM     24  N   UNL     1       7.671   5.622  15.007  0.00  0.00    +0.000 N 
ATOM     25  C   UNL     1       7.159   4.895  13.957  0.00  0.00    +0.000 A 
ATOM     26  C   UNL     1       7.665   4.710  12.666  0.00  0.00    +0.000 A 
ATOM     27  C   UNL     1       6.923   3.912  11.792  0.00  0.00    +0.000 A 
ATOM     28  C   UNL     1       5.719   3.339  12.188  0.00  0.00    +0.000 A 
ATOM     29  C   UNL     1       5.220   3.544  13.480  0.00  0.00    +0.000 A 
ATOM     30  C   UNL     1       5.965   4.326  14.394  0.00  0.00    +0.000 A 
ATOM     31  H   UNL     1       8.532   6.150  14.973  0.00  0.00    +0.000 HD
ENDBRANCH  21  22
ENDBRANCH   1  21
TORSDOF 4
ENDMDL
