MODEL 1
REMARK VINA RESULT:      -8.9      0.000      0.000
REMARK  Name = 
REMARK  7 active torsions:
REMARK  status: ('A' for Active; 'I' for Inactive)
REMARK    1  A    between atoms: C_2  and  C_21
REMARK    2  A    between atoms: N_3  and  C_4
REMARK    3  A    between atoms: C_8  and  C_9
REMARK    4  A    between atoms: C_16  and  C_17
REMARK    5  A    between atoms: C_17  and  O_19
REMARK    6  A    between atoms: N_25  and  C_26
REMARK    7  A    between atoms: C_26  and  C_27
REMARK                            x       y       z     vdW  Elec       q    Type
REMARK                         _______ _______ _______ _____ _____    ______ ____
ROOT
ATOM      1  C   UNL     1       2.624   8.278  17.602  0.00  0.00    +0.000 A 
ATOM      2  C   UNL     1       3.987   8.135  17.297  0.00  0.00    +0.000 A 
ATOM      3  C   UNL     1       4.616   6.892  17.220  0.00  0.00    +0.000 A 
ATOM      4  C   UNL     1       3.894   5.744  17.487  0.00  0.00    +0.000 A 
ATOM      5  C   UNL     1       2.536   5.832  17.810  0.00  0.00    +0.000 A 
ATOM      6  C   UNL     1       1.889   7.095  17.831  0.00  0.00    +0.000 A 
ENDROOT
BRANCH   5   7
ATOM      7  C   UNL     1       1.881   4.499  18.016  0.00  0.00    +0.000 C 
ATOM      8  O   UNL     1       0.926   4.252  17.279  0.00  0.00    +0.000 OA
ATOM      9  N   UNL     1       2.420   3.532  18.861  0.00  0.00    +0.000 N 
ATOM     10  C   UNL     1       1.736   2.222  18.914  0.00  0.00    +0.000 C 
ATOM     11  C   UNL     1       0.886   2.090  20.176  0.00  0.00    +0.000 C 
ATOM     12  C   UNL     1       1.703   2.407  21.429  0.00  0.00    +0.000 C 
ATOM     13  C   UNL     1       2.425   3.751  21.300  0.00  0.00    +0.000 C 
ATOM     14  C   UNL     1       3.283   3.813  20.031  0.00  0.00    +0.000 C 
BRANCH  14  15
ATOM     15  C   UNL     1       4.525   2.915  20.096  0.00  0.00    +0.000 C 
ATOM     16  O   UNL     1       4.712   2.052  20.944  0.00  0.00    +0.000 OA
BRANCH  15  17
ATOM     17  O   UNL     1       5.472   3.255  19.186  0.00  0.00    +0.000 OA
ATOM     18  H   UNL     1       5.713   4.202  19.280  0.00  0.00    +0.000 HD
ENDBRANCH  15  17
ENDBRANCH  14  15
ENDBRANCH   5   7
BRANCH   1  21
ATOM     19  O   UNL     1       1.240   9.387  19.844  0.00  0.00    +0.000 OA
ATOM     20  C   UNL     1       1.312  10.039  18.796  0.00  0.00    +0.000 C 
ATOM     21  N   UNL     1       1.990   9.568  17.675  0.00  0.00    +0.000 N 
ATOM     22  H   UNL     1       2.099  10.210  16.892  0.00  0.00    +0.000 HD
BRANCH  20  23
ATOM     23  C   UNL     1       0.817  11.486  18.868  0.00  0.00    +0.000 C 
ATOM     24  C   UNL     1       1.204  12.065  20.231  0.00  0.00    +0.000 C 
ATOM     25  C   UNL     1       0.485  13.382  20.309  0.00  0.00    +0.000 C 
ATOM     26  C   UNL     1      -0.653  13.246  19.317  0.00  0.00    +0.000 C 
ATOM     27  N   UNL     1      -0.596  11.876  18.712  0.00  0.00    +0.000 NA
BRANCH  27  28
ATOM     28  C   UNL     1      -1.700  11.050  19.247  0.00  0.00    +0.000 C 
BRANCH  28  29
ATOM     29  C   UNL     1      -2.603  10.658  18.058  0.00  0.00    +0.000 A 
ATOM     30  C   UNL     1      -2.029   9.877  17.038  0.00  0.00    +0.000 A 
ATOM     31  C   UNL     1      -2.514   9.948  15.734  0.00  0.00    +0.000 A 
ATOM     32  C   UNL     1      -3.649  10.704  15.456  0.00  0.00    +0.000 A 
ATOM     33  C   UNL     1      -4.330  11.344  16.493  0.00  0.00    +0.000 A 
ATOM     34  C   UNL     1      -3.812  11.327  17.794  0.00  0.00    +0.000 A 
ENDBRANCH  28  29
ENDBRANCH  27  28
ENDBRANCH  20  23
ENDBRANCH   1  21
TORSDOF 7
ENDMDL
MODEL 2
REMARK VINA RESULT:      -8.9      2.471      8.850
REMARK  Name = 
REMARK  7 active torsions:
REMARK  status: ('A' for Active; 'I' for Inactive)
REMARK    1  A    between atoms: C_2  and  C_21
REMARK    2  A    between atoms: N_3  and  C_4
REMARK    3  A    between atoms: C_8  and  C_9
REMARK    4  A    between atoms: C_16  and  C_17
REMARK    5  A    between atoms: C_17  and  O_19
REMARK    6  A    between atoms: N_25  and  C_26
REMARK    7  A    between atoms: C_26  and  C_27
REMARK                            x       y       z     vdW  Elec       q    Type
REMARK                         _______ _______ _______ _____ _____    ______ ____
ROOT
ATOM      1  C   UNL     1       2.239   7.837  18.910  0.00  0.00    +0.000 A 
ATOM      2  C   UNL     1       1.972   7.472  20.241  0.00  0.00    +0.000 A 
ATOM      3  C   UNL     1       1.083   8.178  21.051  0.00  0.00    +0.000 A 
ATOM      4  C   UNL     1       0.455   9.306  20.556  0.00  0.00    +0.000 A 
ATOM      5  C   UNL     1       0.698   9.720  19.242  0.00  0.00    +0.000 A 
ATOM      6  C   UNL     1       1.559   8.965  18.404  0.00  0.00    +0.000 A 
ENDROOT
BRANCH   5   7
ATOM      7  C   UNL     1      -0.099  10.924  18.836  0.00  0.00    +0.000 C 
ATOM      8  O   UNL     1      -0.986  10.725  18.006  0.00  0.00    +0.000 OA
ATOM      9  N   UNL     1       0.035  12.152  19.480  0.00  0.00    +0.000 N 
ATOM     10  C   UNL     1      -0.868  13.242  19.053  0.00  0.00    +0.000 C 
ATOM     11  C   UNL     1      -0.147  14.238  18.147  0.00  0.00    +0.000 C 
ATOM     12  C   UNL     1       1.150  14.731  18.789  0.00  0.00    +0.000 C 
ATOM     13  C   UNL     1       2.023  13.562  19.252  0.00  0.00    +0.000 C 
ATOM     14  C   UNL     1       1.255  12.614  20.180  0.00  0.00    +0.000 C 
BRANCH  14  15
ATOM     15  C   UNL     1       0.968  13.219  21.561  0.00  0.00    +0.000 C 
ATOM     16  O   UNL     1       1.599  14.144  22.056  0.00  0.00    +0.000 OA
BRANCH  15  17
ATOM     17  O   UNL     1       0.014  12.541  22.248  0.00  0.00    +0.000 OA
ATOM     18  H   UNL     1       0.415  11.798  22.748  0.00  0.00    +0.000 HD
ENDBRANCH  15  17
ENDBRANCH  14  15
ENDBRANCH   5   7
BRANCH   1  21
ATOM     19  O   UNL     1       4.098   5.845  19.777  0.00  0.00    +0.000 OA
ATOM     20  C   UNL     1       4.054   6.151  18.580  0.00  0.00    +0.000 C 
ATOM     21  N   UNL     1       3.157   7.095  18.087  0.00  0.00    +0.000 N 
ATOM     22  H   UNL     1       3.107   7.208  17.076  0.00  0.00    +0.000 HD
BRANCH  20  23
ATOM     23  C   UNL     1       4.875   5.273  17.631  0.00  0.00    +0.000 C 
ATOM     24  C   UNL     1       5.007   5.997  16.289  0.00  0.00    +0.000 C 
ATOM     25  C   UNL     1       5.610   4.981  15.360  0.00  0.00    +0.000 C 
ATOM     26  C   UNL     1       5.286   3.648  16.004  0.00  0.00    +0.000 C 
ATOM     27  N   UNL     1       4.496   3.900  17.252  0.00  0.00    +0.000 NA
BRANCH  27  28
ATOM     28  C   UNL     1       3.086   3.509  17.035  0.00  0.00    +0.000 C 
BRANCH  28  29
ATOM     29  C   UNL     1       2.497   3.123  18.408  0.00  0.00    +0.000 A 
ATOM     30  C   UNL     1       1.279   3.720  18.783  0.00  0.00    +0.000 A 
ATOM     31  C   UNL     1       0.965   3.904  20.127  0.00  0.00    +0.000 A 
ATOM     32  C   UNL     1       1.801   3.388  21.113  0.00  0.00    +0.000 A 
ATOM     33  C   UNL     1       2.924   2.641  20.751  0.00  0.00    +0.000 A 
ATOM     34  C   UNL     1       3.279   2.507  19.403  0.00  0.00    +0.000 A 
ENDBRANCH  28  29
ENDBRANCH  27  28
ENDBRANCH  20  23
ENDBRANCH   1  21
TORSDOF 7
ENDMDL
MODEL 3
REMARK VINA RESULT:      -8.5      4.977      9.158
REMARK  Name = 
REMARK  7 active torsions:
REMARK  status: ('A' for Active; 'I' for Inactive)
REMARK    1  A    between atoms: C_2  and  C_21
REMARK    2  A    between atoms: N_3  and  C_4
REMARK    3  A    between atoms: C_8  and  C_9
REMARK    4  A    between atoms: C_16  and  C_17
REMARK    5  A    between atoms: C_17  and  O_19
REMARK    6  A    between atoms: N_25  and  C_26
REMARK    7  A    between atoms: C_26  and  C_27
REMARK                            x       y       z     vdW  Elec       q    Type
REMARK                         _______ _______ _______ _____ _____    ______ ____
ROOT
ATOM      1  C   UNL     1      -2.263  10.390  17.922  0.00  0.00    +0.000 A 
ATOM      2  C   UNL     1      -2.148  10.041  16.566  0.00  0.00    +0.000 A 
ATOM      3  C   UNL     1      -3.096  10.409  15.610  0.00  0.00    +0.000 A 
ATOM      4  C   UNL     1      -4.219  11.117  15.999  0.00  0.00    +0.000 A 
ATOM      5  C   UNL     1      -4.388  11.477  17.340  0.00  0.00    +0.000 A 
ATOM      6  C   UNL     1      -3.392  11.149  18.297  0.00  0.00    +0.000 A 
ENDROOT
BRANCH   5   7
ATOM      7  C   UNL     1      -5.624  12.288  17.592  0.00  0.00    +0.000 C 
ATOM      8  O   UNL     1      -5.857  13.177  16.773  0.00  0.00    +0.000 OA
ATOM      9  N   UNL     1      -6.541  11.951  18.585  0.00  0.00    +0.000 N 
ATOM     10  C   UNL     1      -7.767  12.771  18.680  0.00  0.00    +0.000 C 
ATOM     11  C   UNL     1      -7.682  13.763  19.838  0.00  0.00    +0.000 C 
ATOM     12  C   UNL     1      -7.311  13.059  21.143  0.00  0.00    +0.000 C 
ATOM     13  C   UNL     1      -6.063  12.190  20.974  0.00  0.00    +0.000 C 
ATOM     14  C   UNL     1      -6.218  11.196  19.817  0.00  0.00    +0.000 C 
BRANCH  14  15
ATOM     15  C   UNL     1      -7.217  10.070  20.116  0.00  0.00    +0.000 C 
ATOM     16  O   UNL     1      -7.617   9.779  21.236  0.00  0.00    +0.000 OA
BRANCH  15  17
ATOM     17  O   UNL     1      -7.527   9.332  19.020  0.00  0.00    +0.000 OA
ATOM     18  H   UNL     1      -6.716   8.934  18.635  0.00  0.00    +0.000 HD
ENDBRANCH  15  17
ENDBRANCH  14  15
ENDBRANCH   5   7
BRANCH   1  21
ATOM     19  O   UNL     1      -0.287  12.072  19.121  0.00  0.00    +0.000 OA
ATOM     20  C   UNL     1      -0.324  10.873  19.423  0.00  0.00    +0.000 C 
ATOM     21  N   UNL     1      -1.274  10.004  18.894  0.00  0.00    +0.000 N 
ATOM     22  H   UNL     1      -1.309   9.061  19.277  0.00  0.00    +0.000 HD
BRANCH  20  23
ATOM     23  C   UNL     1       0.580  10.443  20.582  0.00  0.00    +0.000 C 
ATOM     24  C   UNL     1       0.784   8.928  20.503  0.00  0.00    +0.000 C 
ATOM     25  C   UNL     1       1.473   8.564  21.788  0.00  0.00    +0.000 C 
ATOM     26  C   UNL     1       1.139   9.706  22.727  0.00  0.00    +0.000 C 
ATOM     27  N   UNL     1       0.261  10.679  22.001  0.00  0.00    +0.000 NA
BRANCH  27  28
ATOM     28  C   UNL     1      -1.122  10.583  22.519  0.00  0.00    +0.000 C 
BRANCH  28  29
ATOM     29  C   UNL     1      -1.546  11.998  22.968  0.00  0.00    +0.000 A 
ATOM     30  C   UNL     1      -2.864  12.162  23.434  0.00  0.00    +0.000 A 
ATOM     31  C   UNL     1      -3.507  13.392  23.317  0.00  0.00    +0.000 A 
ATOM     32  C   UNL     1      -2.808  14.500  22.848  0.00  0.00    +0.000 A 
ATOM     33  C   UNL     1      -1.449  14.389  22.547  0.00  0.00    +0.000 A 
ATOM     34  C   UNL     1      -0.813  13.142  22.602  0.00  0.00    +0.000 A 
ENDBRANCH  28  29
ENDBRANCH  27  28
ENDBRANCH  20  23
ENDBRANCH   1  21
TORSDOF 7
ENDMDL
MODEL 4
REMARK VINA RESULT:      -8.5      2.144      8.813
REMARK  Name = 
REMARK  7 active torsions:
REMARK  status: ('A' for Active; 'I' for Inactive)
REMARK    1  A    between atoms: C_2  and  C_21
REMARK    2  A    between atoms: N_3  and  C_4
REMARK    3  A    between atoms: C_8  and  C_9
REMARK    4  A    between atoms: C_16  and  C_17
REMARK    5  A    between atoms: C_17  and  O_19
REMARK    6  A    between atoms: N_25  and  C_26
REMARK    7  A    between atoms: C_26  and  C_27
REMARK                            x       y       z     vdW  Elec       q    Type
REMARK                         _______ _______ _______ _____ _____    ______ ____
ROOT
ATOM      1  C   UNL     1       2.498   7.840  18.703  0.00  0.00    +0.000 A 
ATOM      2  C   UNL     1       1.908   7.368  19.887  0.00  0.00    +0.000 A 
ATOM      3  C   UNL     1       1.114   8.172  20.705  0.00  0.00    +0.000 A 
ATOM      4  C   UNL     1       0.917   9.500  20.374  0.00  0.00    +0.000 A 
ATOM      5  C   UNL     1       1.494  10.023  19.212  0.00  0.00    +0.000 A 
ATOM      6  C   UNL     1       2.253   9.185  18.354  0.00  0.00    +0.000 A 
ENDROOT
BRANCH   5   7
ATOM      7  C   UNL     1       1.141  11.459  18.961  0.00  0.00    +0.000 C 
ATOM      8  O   UNL     1       2.091  12.238  18.879  0.00  0.00    +0.000 OA
ATOM      9  N   UNL     1      -0.160  11.860  18.665  0.00  0.00    +0.000 N 
ATOM     10  C   UNL     1      -0.371  13.288  18.347  0.00  0.00    +0.000 C 
ATOM     11  C   UNL     1      -0.975  14.039  19.532  0.00  0.00    +0.000 C 
ATOM     12  C   UNL     1      -2.227  13.333  20.053  0.00  0.00    +0.000 C 
ATOM     13  C   UNL     1      -1.962  11.850  20.322  0.00  0.00    +0.000 C 
ATOM     14  C   UNL     1      -1.385  11.145  19.089  0.00  0.00    +0.000 C 
BRANCH  14  15
ATOM     15  C   UNL     1      -2.407  10.972  17.957  0.00  0.00    +0.000 C 
ATOM     16  O   UNL     1      -3.615  10.872  18.124  0.00  0.00    +0.000 OA
BRANCH  15  17
ATOM     17  O   UNL     1      -1.827  10.812  16.741  0.00  0.00    +0.000 OA
ATOM     18  H   UNL     1      -2.421  10.310  16.143  0.00  0.00    +0.000 HD
ENDBRANCH  15  17
ENDBRANCH  14  15
ENDBRANCH   5   7
BRANCH   1  21
ATOM     19  O   UNL     1       4.414   5.903  19.571  0.00  0.00    +0.000 OA
ATOM     20  C   UNL     1       4.244   6.085  18.360  0.00  0.00    +0.000 C 
ATOM     21  N   UNL     1       3.313   6.996  17.869  0.00  0.00    +0.000 N 
ATOM     22  H   UNL     1       3.155   7.005  16.863  0.00  0.00    +0.000 HD
BRANCH  20  23
ATOM     23  C   UNL     1       4.947   5.095  17.427  0.00  0.00    +0.000 C 
ATOM     24  C   UNL     1       5.071   5.735  16.042  0.00  0.00    +0.000 C 
ATOM     25  C   UNL     1       5.547   4.627  15.146  0.00  0.00    +0.000 C 
ATOM     26  C   UNL     1       5.149   3.359  15.877  0.00  0.00    +0.000 C 
ATOM     27  N   UNL     1       4.442   3.740  17.141  0.00  0.00    +0.000 NA
BRANCH  27  28
ATOM     28  C   UNL     1       2.997   3.455  17.008  0.00  0.00    +0.000 C 
BRANCH  28  29
ATOM     29  C   UNL     1       2.464   3.101  18.413  0.00  0.00    +0.000 A 
ATOM     30  C   UNL     1       1.251   3.690  18.814  0.00  0.00    +0.000 A 
ATOM     31  C   UNL     1       0.983   3.909  20.163  0.00  0.00    +0.000 A 
ATOM     32  C   UNL     1       1.863   3.436  21.132  0.00  0.00    +0.000 A 
ATOM     33  C   UNL     1       2.984   2.696  20.752  0.00  0.00    +0.000 A 
ATOM     34  C   UNL     1       3.291   2.526  19.396  0.00  0.00    +0.000 A 
ENDBRANCH  28  29
ENDBRANCH  27  28
ENDBRANCH  20  23
ENDBRANCH   1  21
TORSDOF 7
ENDMDL
MODEL 5
REMARK VINA RESULT:      -8.3      5.471      7.837
REMARK  Name = 
REMARK  7 active torsions:
REMARK  status: ('A' for Active; 'I' for Inactive)
REMARK    1  A    between atoms: C_2  and  C_21
REMARK    2  A    between atoms: N_3  and  C_4
REMARK    3  A    between atoms: C_8  and  C_9
REMARK    4  A    between atoms: C_16  and  C_17
REMARK    5  A    between atoms: C_17  and  O_19
REMARK    6  A    between atoms: N_25  and  C_26
REMARK    7  A    between atoms: C_26  and  C_27
REMARK                            x       y       z     vdW  Elec       q    Type
REMARK                         _______ _______ _______ _____ _____    ______ ____
ROOT
ATOM      1  C   UNL     1       7.553   7.850  17.960  0.00  0.00    +0.000 A 
ATOM      2  C   UNL     1       8.355   7.017  18.758  0.00  0.00    +0.000 A 
ATOM      3  C   UNL     1       8.056   5.672  18.980  0.00  0.00    +0.000 A 
ATOM      4  C   UNL     1       6.911   5.127  18.430  0.00  0.00    +0.000 A 
ATOM      5  C   UNL     1       6.071   5.918  17.639  0.00  0.00    +0.000 A 
ATOM      6  C   UNL     1       6.410   7.270  17.371  0.00  0.00    +0.000 A 
ENDROOT
BRANCH   5   7
ATOM      7  C   UNL     1       4.902   5.169  17.070  0.00  0.00    +0.000 C 
ATOM      8  O   UNL     1       4.745   5.267  15.853  0.00  0.00    +0.000 OA
ATOM      9  N   UNL     1       4.148   4.283  17.835  0.00  0.00    +0.000 N 
ATOM     10  C   UNL     1       3.078   3.534  17.143  0.00  0.00    +0.000 C 
ATOM     11  C   UNL     1       1.702   4.129  17.439  0.00  0.00    +0.000 C 
ATOM     12  C   UNL     1       1.476   4.276  18.944  0.00  0.00    +0.000 C 
ATOM     13  C   UNL     1       2.635   5.018  19.614  0.00  0.00    +0.000 C 
ATOM     14  C   UNL     1       3.984   4.358  19.305  0.00  0.00    +0.000 C 
BRANCH  14  15
ATOM     15  C   UNL     1       4.170   3.005  20.004  0.00  0.00    +0.000 C 
ATOM     16  O   UNL     1       3.479   2.604  20.932  0.00  0.00    +0.000 OA
BRANCH  15  17
ATOM     17  O   UNL     1       5.270   2.335  19.576  0.00  0.00    +0.000 OA
ATOM     18  H   UNL     1       5.039   1.408  19.351  0.00  0.00    +0.000 HD
ENDBRANCH  15  17
ENDBRANCH  14  15
ENDBRANCH   5   7
BRANCH   1  21
ATOM     19  O   UNL     1       9.309   9.472  19.528  0.00  0.00    +0.000 OA
ATOM     20  C   UNL     1       8.727   9.973  18.559  0.00  0.00    +0.000 C 
ATOM     21  N   UNL     1       7.877   9.235  17.740  0.00  0.00    +0.000 N 
ATOM     22  H   UNL     1       7.527   9.691  16.900  0.00  0.00    +0.000 HD
BRANCH  20  23
ATOM     23  C   UNL     1       9.168  11.387  18.168  0.00  0.00    +0.000 C 
ATOM     24  C   UNL     1      10.559  11.305  17.533  0.00  0.00    +0.000 C 
ATOM     25  C   UNL     1      11.008  12.732  17.400  0.00  0.00    +0.000 C 
ATOM     26  C   UNL     1      10.169  13.483  18.416  0.00  0.00    +0.000 C 
ATOM     27  N   UNL     1       9.287  12.501  19.125  0.00  0.00    +0.000 NA
BRANCH  27  28
ATOM     28  C   UNL     1       9.778  12.299  20.505  0.00  0.00    +0.000 C 
BRANCH  28  29
ATOM     29  C   UNL     1       8.585  12.524  21.458  0.00  0.00    +0.000 A 
ATOM     30  C   UNL     1       8.015  13.811  21.491  0.00  0.00    +0.000 A 
ATOM     31  C   UNL     1       7.377  14.272  22.639  0.00  0.00    +0.000 A 
ATOM     32  C   UNL     1       7.193  13.418  23.723  0.00  0.00    +0.000 A 
ATOM     33  C   UNL     1       7.599  12.086  23.636  0.00  0.00    +0.000 A 
ATOM     34  C   UNL     1       8.297  11.633  22.509  0.00  0.00    +0.000 A 
ENDBRANCH  28  29
ENDBRANCH  27  28
ENDBRANCH  20  23
ENDBRANCH   1  21
TORSDOF 7
ENDMDL
MODEL 6
REMARK VINA RESULT:      -8.3      2.653      4.610
REMARK  Name = 
REMARK  7 active torsions:
REMARK  status: ('A' for Active; 'I' for Inactive)
REMARK    1  A    between atoms: C_2  and  C_21
REMARK    2  A    between atoms: N_3  and  C_4
REMARK    3  A    between atoms: C_8  and  C_9
REMARK    4  A    between atoms: C_16  and  C_17
REMARK    5  A    between atoms: C_17  and  O_19
REMARK    6  A    between atoms: N_25  and  C_26
REMARK    7  A    between atoms: C_26  and  C_27
REMARK                            x       y       z     vdW  Elec       q    Type
REMARK                         _______ _______ _______ _____ _____    ______ ____
ROOT
ATOM      1  C   UNL     1       1.709   5.163  20.467  0.00  0.00    +0.000 A 
ATOM      2  C   UNL     1       1.313   3.916  20.979  0.00  0.00    +0.000 A 
ATOM      3  C   UNL     1       1.544   2.717  20.304  0.00  0.00    +0.000 A 
ATOM      4  C   UNL     1       2.155   2.738  19.063  0.00  0.00    +0.000 A 
ATOM      5  C   UNL     1       2.555   3.956  18.503  0.00  0.00    +0.000 A 
ATOM      6  C   UNL     1       2.369   5.166  19.220  0.00  0.00    +0.000 A 
ENDROOT
BRANCH   5   7
ATOM      7  C   UNL     1       3.252   3.808  17.183  0.00  0.00    +0.000 C 
ATOM      8  O   UNL     1       2.763   2.985  16.408  0.00  0.00    +0.000 OA
ATOM      9  N   UNL     1       4.276   4.664  16.787  0.00  0.00    +0.000 N 
ATOM     10  C   UNL     1       4.825   4.478  15.427  0.00  0.00    +0.000 C 
ATOM     11  C   UNL     1       6.168   3.750  15.465  0.00  0.00    +0.000 C 
ATOM     12  C   UNL     1       7.138   4.429  16.432  0.00  0.00    +0.000 C 
ATOM     13  C   UNL     1       6.501   4.637  17.808  0.00  0.00    +0.000 C 
ATOM     14  C   UNL     1       5.174   5.397  17.709  0.00  0.00    +0.000 C 
BRANCH  14  15
ATOM     15  C   UNL     1       5.349   6.875  17.335  0.00  0.00    +0.000 C 
ATOM     16  O   UNL     1       6.428   7.413  17.126  0.00  0.00    +0.000 OA
BRANCH  15  17
ATOM     17  O   UNL     1       4.187   7.574  17.381  0.00  0.00    +0.000 OA
ATOM     18  H   UNL     1       3.476   7.030  17.784  0.00  0.00    +0.000 HD
ENDBRANCH  15  17
ENDBRANCH  14  15
ENDBRANCH   5   7
BRANCH   1  21
ATOM     19  O   UNL     1       2.012   7.820  19.459  0.00  0.00    +0.000 OA
ATOM     20  C   UNL     1       1.654   7.656  20.631  0.00  0.00    +0.000 C 
ATOM     21  N   UNL     1       1.465   6.390  21.178  0.00  0.00    +0.000 N 
ATOM     22  H   UNL     1       1.062   6.341  22.112  0.00  0.00    +0.000 HD
BRANCH  20  23
ATOM     23  C   UNL     1       1.206   8.915  21.380  0.00  0.00    +0.000 C 
ATOM     24  C   UNL     1      -0.049   8.579  22.189  0.00  0.00    +0.000 C 
ATOM     25  C   UNL     1      -0.549   9.903  22.693  0.00  0.00    +0.000 C 
ATOM     26  C   UNL     1       0.061  10.917  21.745  0.00  0.00    +0.000 C 
ATOM     27  N   UNL     1       0.864  10.184  20.714  0.00  0.00    +0.000 NA
BRANCH  27  28
ATOM     28  C   UNL     1       0.157  10.222  19.415  0.00  0.00    +0.000 C 
BRANCH  28  29
ATOM     29  C   UNL     1       0.459  11.589  18.764  0.00  0.00    +0.000 A 
ATOM     30  C   UNL     1       1.810  11.962  18.637  0.00  0.00    +0.000 A 
ATOM     31  C   UNL     1       2.173  13.306  18.617  0.00  0.00    +0.000 A 
ATOM     32  C   UNL     1       1.191  14.292  18.601  0.00  0.00    +0.000 A 
ATOM     33  C   UNL     1      -0.157  13.930  18.551  0.00  0.00    +0.000 A 
ATOM     34  C   UNL     1      -0.529  12.582  18.634  0.00  0.00    +0.000 A 
ENDBRANCH  28  29
ENDBRANCH  27  28
ENDBRANCH  20  23
ENDBRANCH   1  21
TORSDOF 7
ENDMDL
MODEL 7
REMARK VINA RESULT:      -8.3      2.506      8.954
REMARK  Name = 
REMARK  7 active torsions:
REMARK  status: ('A' for Active; 'I' for Inactive)
REMARK    1  A    between atoms: C_2  and  C_21
REMARK    2  A    between atoms: N_3  and  C_4
REMARK    3  A    between atoms: C_8  and  C_9
REMARK    4  A    between atoms: C_16  and  C_17
REMARK    5  A    between atoms: C_17  and  O_19
REMARK    6  A    between atoms: N_25  and  C_26
REMARK    7  A    between atoms: C_26  and  C_27
REMARK                            x       y       z     vdW  Elec       q    Type
REMARK                         _______ _______ _______ _____ _____    ______ ____
ROOT
ATOM      1  C   UNL     1       1.650   8.038  20.381  0.00  0.00    +0.000 A 
ATOM      2  C   UNL     1       0.600   7.537  21.169  0.00  0.00    +0.000 A 
ATOM      3  C   UNL     1      -0.366   8.360  21.748  0.00  0.00    +0.000 A 
ATOM      4  C   UNL     1      -0.285   9.730  21.581  0.00  0.00    +0.000 A 
ATOM      5  C   UNL     1       0.750  10.281  20.817  0.00  0.00    +0.000 A 
ATOM      6  C   UNL     1       1.696   9.434  20.184  0.00  0.00    +0.000 A 
ENDROOT
BRANCH   5   7
ATOM      7  C   UNL     1       0.668  11.773  20.683  0.00  0.00    +0.000 C 
ATOM      8  O   UNL     1       1.635  12.403  21.112  0.00  0.00    +0.000 OA
ATOM      9  N   UNL     1      -0.351  12.396  19.967  0.00  0.00    +0.000 N 
ATOM     10  C   UNL     1      -0.276  13.866  19.827  0.00  0.00    +0.000 C 
ATOM     11  C   UNL     1      -1.244  14.564  20.781  0.00  0.00    +0.000 C 
ATOM     12  C   UNL     1      -2.659  14.004  20.641  0.00  0.00    +0.000 C 
ATOM     13  C   UNL     1      -2.669  12.477  20.748  0.00  0.00    +0.000 C 
ATOM     14  C   UNL     1      -1.702  11.833  19.748  0.00  0.00    +0.000 C 
BRANCH  14  15
ATOM     15  C   UNL     1      -2.175  11.942  18.293  0.00  0.00    +0.000 C 
ATOM     16  O   UNL     1      -3.234  11.491  17.873  0.00  0.00    +0.000 OA
BRANCH  15  17
ATOM     17  O   UNL     1      -1.241  12.484  17.472  0.00  0.00    +0.000 OA
ATOM     18  H   UNL     1      -0.413  12.663  17.967  0.00  0.00    +0.000 HD
ENDBRANCH  15  17
ENDBRANCH  14  15
ENDBRANCH   5   7
BRANCH   1  21
ATOM     19  O   UNL     1       2.508   8.028  17.654  0.00  0.00    +0.000 OA
ATOM     20  C   UNL     1       2.993   7.209  18.443  0.00  0.00    +0.000 C 
ATOM     21  N   UNL     1       2.637   7.174  19.788  0.00  0.00    +0.000 N 
ATOM     22  H   UNL     1       3.163   6.546  20.394  0.00  0.00    +0.000 HD
BRANCH  20  23
ATOM     23  C   UNL     1       4.174   6.387  17.917  0.00  0.00    +0.000 C 
ATOM     24  C   UNL     1       4.463   6.818  16.477  0.00  0.00    +0.000 C 
ATOM     25  C   UNL     1       5.460   5.815  15.968  0.00  0.00    +0.000 C 
ATOM     26  C   UNL     1       5.273   4.612  16.870  0.00  0.00    +0.000 C 
ATOM     27  N   UNL     1       4.180   4.915  17.849  0.00  0.00    +0.000 NA
BRANCH  27  28
ATOM     28  C   UNL     1       2.969   4.142  17.497  0.00  0.00    +0.000 C 
BRANCH  28  29
ATOM     29  C   UNL     1       2.462   3.463  18.787  0.00  0.00    +0.000 A 
ATOM     30  C   UNL     1       1.217   3.879  19.293  0.00  0.00    +0.000 A 
ATOM     31  C   UNL     1       0.940   3.786  20.655  0.00  0.00    +0.000 A 
ATOM     32  C   UNL     1       1.849   3.170  21.509  0.00  0.00    +0.000 A 
ATOM     33  C   UNL     1       3.012   2.596  20.990  0.00  0.00    +0.000 A 
ATOM     34  C   UNL     1       3.326   2.741  19.632  0.00  0.00    +0.000 A 
ENDBRANCH  28  29
ENDBRANCH  27  28
ENDBRANCH  20  23
ENDBRANCH   1  21
TORSDOF 7
ENDMDL
MODEL 8
REMARK VINA RESULT:      -8.2      2.504      8.799
REMARK  Name = 
REMARK  7 active torsions:
REMARK  status: ('A' for Active; 'I' for Inactive)
REMARK    1  A    between atoms: C_2  and  C_21
REMARK    2  A    between atoms: N_3  and  C_4
REMARK    3  A    between atoms: C_8  and  C_9
REMARK    4  A    between atoms: C_16  and  C_17
REMARK    5  A    between atoms: C_17  and  O_19
REMARK    6  A    between atoms: N_25  and  C_26
REMARK    7  A    between atoms: C_26  and  C_27
REMARK                            x       y       z     vdW  Elec       q    Type
REMARK                         _______ _______ _______ _____ _____    ______ ____
ROOT
ATOM      1  C   UNL     1       2.322   7.816  18.720  0.00  0.00    +0.000 A 
ATOM      2  C   UNL     1       2.096   7.428  20.052  0.00  0.00    +0.000 A 
ATOM      3  C   UNL     1       1.226   8.115  20.899  0.00  0.00    +0.000 A 
ATOM      4  C   UNL     1       0.576   9.246  20.440  0.00  0.00    +0.000 A 
ATOM      5  C   UNL     1       0.778   9.683  19.127  0.00  0.00    +0.000 A 
ATOM      6  C   UNL     1       1.620   8.948  18.253  0.00  0.00    +0.000 A 
ENDROOT
BRANCH   5   7
ATOM      7  C   UNL     1      -0.038  10.888  18.763  0.00  0.00    +0.000 C 
ATOM      8  O   UNL     1      -0.931  10.700  17.936  0.00  0.00    +0.000 OA
ATOM      9  N   UNL     1       0.087  12.098  19.441  0.00  0.00    +0.000 N 
ATOM     10  C   UNL     1      -0.835  13.188  19.055  0.00  0.00    +0.000 C 
ATOM     11  C   UNL     1      -0.135  14.219  18.171  0.00  0.00    +0.000 C 
ATOM     12  C   UNL     1       1.162  14.710  18.814  0.00  0.00    +0.000 C 
ATOM     13  C   UNL     1       2.054  13.540  19.235  0.00  0.00    +0.000 C 
ATOM     14  C   UNL     1       1.308  12.556  20.143  0.00  0.00    +0.000 C 
BRANCH  14  15
ATOM     15  C   UNL     1       1.027  13.117  21.542  0.00  0.00    +0.000 C 
ATOM     16  O   UNL     1       0.042  12.842  22.215  0.00  0.00    +0.000 OA
BRANCH  15  17
ATOM     17  O   UNL     1       1.925  14.060  21.924  0.00  0.00    +0.000 OA
ATOM     18  H   UNL     1       2.833  13.792  21.667  0.00  0.00    +0.000 HD
ENDBRANCH  15  17
ENDBRANCH  14  15
ENDBRANCH   5   7
BRANCH   1  21
ATOM     19  O   UNL     1       4.540   6.201  19.522  0.00  0.00    +0.000 OA
ATOM     20  C   UNL     1       4.299   6.342  18.317  0.00  0.00    +0.000 C 
ATOM     21  N   UNL     1       3.222   7.095  17.859  0.00  0.00    +0.000 N 
ATOM     22  H   UNL     1       3.025   7.069  16.860  0.00  0.00    +0.000 HD
BRANCH  20  23
ATOM     23  C   UNL     1       5.106   5.458  17.362  0.00  0.00    +0.000 C 
ATOM     24  C   UNL     1       5.063   6.083  15.966  0.00  0.00    +0.000 C 
ATOM     25  C   UNL     1       5.667   5.048  15.060  0.00  0.00    +0.000 C 
ATOM     26  C   UNL     1       5.510   3.747  15.823  0.00  0.00    +0.000 C 
ATOM     27  N   UNL     1       4.811   4.035  17.117  0.00  0.00    +0.000 NA
BRANCH  27  28
ATOM     28  C   UNL     1       3.424   3.522  17.057  0.00  0.00    +0.000 C 
BRANCH  28  29
ATOM     29  C   UNL     1       2.845   3.589  18.486  0.00  0.00    +0.000 A 
ATOM     30  C   UNL     1       3.545   2.912  19.502  0.00  0.00    +0.000 A 
ATOM     31  C   UNL     1       2.875   2.432  20.624  0.00  0.00    +0.000 A 
ATOM     32  C   UNL     1       1.526   2.723  20.805  0.00  0.00    +0.000 A 
ATOM     33  C   UNL     1       0.862   3.542  19.890  0.00  0.00    +0.000 A 
ATOM     34  C   UNL     1       1.514   3.976  18.728  0.00  0.00    +0.000 A 
ENDBRANCH  28  29
ENDBRANCH  27  28
ENDBRANCH  20  23
ENDBRANCH   1  21
TORSDOF 7
ENDMDL
MODEL 9
REMARK VINA RESULT:      -8.2      2.751      8.873
REMARK  Name = 
REMARK  7 active torsions:
REMARK  status: ('A' for Active; 'I' for Inactive)
REMARK    1  A    between atoms: C_2  and  C_21
REMARK    2  A    between atoms: N_3  and  C_4
REMARK    3  A    between atoms: C_8  and  C_9
REMARK    4  A    between atoms: C_16  and  C_17
REMARK    5  A    between atoms: C_17  and  O_19
REMARK    6  A    between atoms: N_25  and  C_26
REMARK    7  A    between atoms: C_26  and  C_27
REMARK                            x       y       z     vdW  Elec       q    Type
REMARK                         _______ _______ _______ _____ _____    ______ ____
ROOT
ATOM      1  C   UNL     1       1.511   9.564  18.411  0.00  0.00    +0.000 A 
ATOM      2  C   UNL     1       2.466  10.537  18.072  0.00  0.00    +0.000 A 
ATOM      3  C   UNL     1       2.204  11.906  18.141  0.00  0.00    +0.000 A 
ATOM      4  C   UNL     1       0.949  12.343  18.523  0.00  0.00    +0.000 A 
ATOM      5  C   UNL     1      -0.042  11.414  18.857  0.00  0.00    +0.000 A 
ATOM      6  C   UNL     1       0.248  10.025  18.840  0.00  0.00    +0.000 A 
ENDROOT
BRANCH   5   7
ATOM      7  C   UNL     1      -1.328  12.044  19.304  0.00  0.00    +0.000 C 
ATOM      8  O   UNL     1      -2.115  12.349  18.408  0.00  0.00    +0.000 OA
ATOM      9  N   UNL     1      -1.686  12.121  20.648  0.00  0.00    +0.000 N 
ATOM     10  C   UNL     1      -3.018  12.680  20.962  0.00  0.00    +0.000 C 
ATOM     11  C   UNL     1      -2.912  14.122  21.456  0.00  0.00    +0.000 C 
ATOM     12  C   UNL     1      -1.909  14.241  22.604  0.00  0.00    +0.000 C 
ATOM     13  C   UNL     1      -0.566  13.605  22.240  0.00  0.00    +0.000 C 
ATOM     14  C   UNL     1      -0.732  12.152  21.780  0.00  0.00    +0.000 C 
BRANCH  14  15
ATOM     15  C   UNL     1      -1.113  11.197  22.919  0.00  0.00    +0.000 C 
ATOM     16  O   UNL     1      -2.170  11.240  23.535  0.00  0.00    +0.000 OA
BRANCH  15  17
ATOM     17  O   UNL     1      -0.102  10.363  23.270  0.00  0.00    +0.000 OA
ATOM     18  H   UNL     1      -0.232  10.034  24.186  0.00  0.00    +0.000 HD
ENDBRANCH  15  17
ENDBRANCH  14  15
ENDBRANCH   5   7
BRANCH   1  21
ATOM     19  O   UNL     1       2.040   7.802  20.599  0.00  0.00    +0.000 OA
ATOM     20  C   UNL     1       2.069   7.358  19.445  0.00  0.00    +0.000 C 
ATOM     21  N   UNL     1       1.799   8.156  18.336  0.00  0.00    +0.000 N 
ATOM     22  H   UNL     1       1.733   7.692  17.433  0.00  0.00    +0.000 HD
BRANCH  20  23
ATOM     23  C   UNL     1       2.190   5.837  19.312  0.00  0.00    +0.000 C 
ATOM     24  C   UNL     1       1.900   5.205  20.676  0.00  0.00    +0.000 C 
ATOM     25  C   UNL     1       2.268   3.757  20.516  0.00  0.00    +0.000 C 
ATOM     26  C   UNL     1       3.224   3.743  19.340  0.00  0.00    +0.000 C 
ATOM     27  N   UNL     1       3.414   5.150  18.863  0.00  0.00    +0.000 NA
BRANCH  27  28
ATOM     28  C   UNL     1       4.763   5.626  19.241  0.00  0.00    +0.000 C 
BRANCH  28  29
ATOM     29  C   UNL     1       5.621   5.650  17.958  0.00  0.00    +0.000 A 
ATOM     30  C   UNL     1       5.030   6.173  16.793  0.00  0.00    +0.000 A 
ATOM     31  C   UNL     1       5.447   5.744  15.535  0.00  0.00    +0.000 A 
ATOM     32  C   UNL     1       6.534   4.882  15.420  0.00  0.00    +0.000 A 
ATOM     33  C   UNL     1       7.239   4.495  16.561  0.00  0.00    +0.000 A 
ATOM     34  C   UNL     1       6.787   4.873  17.832  0.00  0.00    +0.000 A 
ENDBRANCH  28  29
ENDBRANCH  27  28
ENDBRANCH  20  23
ENDBRANCH   1  21
TORSDOF 7
ENDMDL
