MODEL 1
REMARK VINA RESULT:      -8.5      0.000      0.000
REMARK  Name = 
REMARK  4 active torsions:
REMARK  status: ('A' for Active; 'I' for Inactive)
REMARK    1  A    between atoms: C_1  and  N_2
REMARK    2  A    between atoms: C_7  and  N_8
REMARK    3  A    between atoms: C_9  and  C_11
REMARK    4  A    between atoms: C_11  and  C_12
REMARK                            x       y       z     vdW  Elec       q    Type
REMARK                         _______ _______ _______ _____ _____    ______ ____
ROOT
ATOM      1  N   UNL     1       3.527   6.063  18.478  0.00  0.00    +0.000 N 
ATOM      2  C   UNL     1       3.115   4.857  17.923  0.00  0.00    +0.000 C 
ATOM      3  O   UNL     1       1.955   4.552  17.652  0.00  0.00    +0.000 OA
ATOM      4  H   UNL     1       4.476   6.109  18.828  0.00  0.00    +0.000 HD
ENDROOT
BRANCH   1  11
ATOM      5  C   UNL     1      -1.253  11.803  21.108  0.00  0.00    +0.000 C 
ATOM      6  N   UNL     1      -0.330  10.708  20.875  0.00  0.00    +0.000 N 
ATOM      7  C   UNL     1      -0.458   9.501  21.683  0.00  0.00    +0.000 C 
ATOM      8  C   UNL     1       0.866   8.747  21.745  0.00  0.00    +0.000 C 
ATOM      9  C   UNL     1       1.373   8.500  20.352  0.00  0.00    +0.000 A 
ATOM     10  C   UNL     1       2.185   7.389  20.073  0.00  0.00    +0.000 A 
ATOM     11  C   UNL     1       2.683   7.157  18.788  0.00  0.00    +0.000 A 
ATOM     12  C   UNL     1       2.333   8.044  17.761  0.00  0.00    +0.000 A 
ATOM     13  C   UNL     1       1.554   9.172  18.035  0.00  0.00    +0.000 A 
ATOM     14  C   UNL     1       1.081   9.411  19.330  0.00  0.00    +0.000 A 
ATOM     15  C   UNL     1       0.282  10.637  19.621  0.00  0.00    +0.000 C 
ATOM     16  O   UNL     1       0.190  11.523  18.776  0.00  0.00    +0.000 OA
ENDBRANCH   1  11
BRANCH   2  17
ATOM     17  C   UNL     1       4.238   3.856  17.694  0.00  0.00    +0.000 C 
BRANCH  17  18
ATOM     18  C   UNL     1       5.112   4.219  16.516  0.00  0.00    +0.000 A 
ATOM     19  C   UNL     1       6.329   4.904  16.718  0.00  0.00    +0.000 A 
ATOM     20  C   UNL     1       7.187   5.182  15.648  0.00  0.00    +0.000 A 
ATOM     21  C   UNL     1       6.826   4.752  14.384  0.00  0.00    +0.000 A 
ATOM     22  C   UNL     1       5.606   4.105  14.167  0.00  0.00    +0.000 A 
ATOM     23  C   UNL     1       4.729   3.863  15.210  0.00  0.00    +0.000 A 
ATOM     24  C   UNL     1       5.442   3.744  12.724  0.00  0.00    +0.000 C 
ATOM     25  C   UNL     1       6.897   3.825  12.238  0.00  0.00    +0.000 C 
ATOM     26  C   UNL     1       7.588   4.889  13.103  0.00  0.00    +0.000 C 
ENDBRANCH  17  18
ENDBRANCH   2  17
TORSDOF 3
ENDMDL
MODEL 2
REMARK VINA RESULT:      -8.4      3.087      4.785
REMARK  Name = 
REMARK  4 active torsions:
REMARK  status: ('A' for Active; 'I' for Inactive)
REMARK    1  A    between atoms: C_1  and  N_2
REMARK    2  A    between atoms: C_7  and  N_8
REMARK    3  A    between atoms: C_9  and  C_11
REMARK    4  A    between atoms: C_11  and  C_12
REMARK                            x       y       z     vdW  Elec       q    Type
REMARK                         _______ _______ _______ _____ _____    ______ ____
ROOT
ATOM      1  N   UNL     1       1.500   9.298  17.640  0.00  0.00    +0.000 N 
ATOM      2  C   UNL     1       2.187   8.354  18.394  0.00  0.00    +0.000 C 
ATOM      3  O   UNL     1       1.923   8.031  19.551  0.00  0.00    +0.000 OA
ATOM      4  H   UNL     1       1.937   9.606  16.780  0.00  0.00    +0.000 HD
ENDROOT
BRANCH   1  11
ATOM      5  C   UNL     1      -5.392  12.784  19.387  0.00  0.00    +0.000 C 
ATOM      6  N   UNL     1      -4.276  11.956  18.973  0.00  0.00    +0.000 N 
ATOM      7  C   UNL     1      -4.313  11.340  17.652  0.00  0.00    +0.000 C 
ATOM      8  C   UNL     1      -3.431  10.098  17.606  0.00  0.00    +0.000 C 
ATOM      9  C   UNL     1      -2.047  10.443  18.080  0.00  0.00    +0.000 A 
ATOM     10  C   UNL     1      -0.933   9.726  17.617  0.00  0.00    +0.000 A 
ATOM     11  C   UNL     1       0.358  10.019  18.065  0.00  0.00    +0.000 A 
ATOM     12  C   UNL     1       0.531  11.072  18.974  0.00  0.00    +0.000 A 
ATOM     13  C   UNL     1      -0.575  11.768  19.469  0.00  0.00    +0.000 A 
ATOM     14  C   UNL     1      -1.867  11.451  19.034  0.00  0.00    +0.000 A 
ATOM     15  C   UNL     1      -3.045  12.176  19.596  0.00  0.00    +0.000 C 
ATOM     16  O   UNL     1      -2.903  12.919  20.562  0.00  0.00    +0.000 OA
ENDBRANCH   1  11
BRANCH   2  17
ATOM     17  C   UNL     1       3.381   7.733  17.685  0.00  0.00    +0.000 C 
BRANCH  17  18
ATOM     18  C   UNL     1       3.345   6.222  17.696  0.00  0.00    +0.000 A 
ATOM     19  C   UNL     1       4.513   5.481  17.414  0.00  0.00    +0.000 A 
ATOM     20  C   UNL     1       4.518   4.084  17.493  0.00  0.00    +0.000 A 
ATOM     21  C   UNL     1       3.355   3.441  17.875  0.00  0.00    +0.000 A 
ATOM     22  C   UNL     1       2.183   4.162  18.121  0.00  0.00    +0.000 A 
ATOM     23  C   UNL     1       2.154   5.541  18.004  0.00  0.00    +0.000 A 
ATOM     24  C   UNL     1       1.064   3.248  18.512  0.00  0.00    +0.000 C 
ATOM     25  C   UNL     1       1.848   1.992  18.924  0.00  0.00    +0.000 C 
ATOM     26  C   UNL     1       3.125   1.975  18.072  0.00  0.00    +0.000 C 
ENDBRANCH  17  18
ENDBRANCH   2  17
TORSDOF 3
ENDMDL
MODEL 3
REMARK VINA RESULT:      -8.4      0.830      1.041
REMARK  Name = 
REMARK  4 active torsions:
REMARK  status: ('A' for Active; 'I' for Inactive)
REMARK    1  A    between atoms: C_1  and  N_2
REMARK    2  A    between atoms: C_7  and  N_8
REMARK    3  A    between atoms: C_9  and  C_11
REMARK    4  A    between atoms: C_11  and  C_12
REMARK                            x       y       z     vdW  Elec       q    Type
REMARK                         _______ _______ _______ _____ _____    ______ ____
ROOT
ATOM      1  N   UNL     1       3.259   6.142  19.218  0.00  0.00    +0.000 N 
ATOM      2  C   UNL     1       2.812   4.829  19.136  0.00  0.00    +0.000 C 
ATOM      3  O   UNL     1       1.641   4.462  19.229  0.00  0.00    +0.000 OA
ATOM      4  H   UNL     1       4.256   6.283  19.320  0.00  0.00    +0.000 HD
ENDROOT
BRANCH   1  11
ATOM      5  C   UNL     1      -1.431  12.246  21.075  0.00  0.00    +0.000 C 
ATOM      6  N   UNL     1      -0.531  11.112  20.989  0.00  0.00    +0.000 N 
ATOM      7  C   UNL     1      -0.706  10.007  21.922  0.00  0.00    +0.000 C 
ATOM      8  C   UNL     1       0.597   9.234  22.100  0.00  0.00    +0.000 C 
ATOM      9  C   UNL     1       1.127   8.821  20.756  0.00  0.00    +0.000 A 
ATOM     10  C   UNL     1       1.917   7.668  20.623  0.00  0.00    +0.000 A 
ATOM     11  C   UNL     1       2.437   7.283  19.384  0.00  0.00    +0.000 A 
ATOM     12  C   UNL     1       2.130   8.056  18.256  0.00  0.00    +0.000 A 
ATOM     13  C   UNL     1       1.375   9.225  18.383  0.00  0.00    +0.000 A 
ATOM     14  C   UNL     1       0.879   9.618  19.632  0.00  0.00    +0.000 A 
ATOM     15  C   UNL     1       0.105  10.887  19.765  0.00  0.00    +0.000 C 
ATOM     16  O   UNL     1       0.053  11.674  18.825  0.00  0.00    +0.000 OA
ENDBRANCH   1  11
BRANCH   2  17
ATOM     17  C   UNL     1       3.918   3.800  18.957  0.00  0.00    +0.000 C 
BRANCH  17  18
ATOM     18  C   UNL     1       4.864   4.148  17.831  0.00  0.00    +0.000 A 
ATOM     19  C   UNL     1       6.190   4.539  18.112  0.00  0.00    +0.000 A 
ATOM     20  C   UNL     1       7.102   4.793  17.081  0.00  0.00    +0.000 A 
ATOM     21  C   UNL     1       6.680   4.633  15.774  0.00  0.00    +0.000 A 
ATOM     22  C   UNL     1       5.358   4.283  15.483  0.00  0.00    +0.000 A 
ATOM     23  C   UNL     1       4.436   4.071  16.494  0.00  0.00    +0.000 A 
ATOM     24  C   UNL     1       5.145   4.176  14.006  0.00  0.00    +0.000 C 
ATOM     25  C   UNL     1       6.594   4.034  13.514  0.00  0.00    +0.000 C 
ATOM     26  C   UNL     1       7.471   4.801  14.515  0.00  0.00    +0.000 C 
ENDBRANCH  17  18
ENDBRANCH   2  17
TORSDOF 3
ENDMDL
MODEL 4
REMARK VINA RESULT:      -8.3      1.613      2.701
REMARK  Name = 
REMARK  4 active torsions:
REMARK  status: ('A' for Active; 'I' for Inactive)
REMARK    1  A    between atoms: C_1  and  N_2
REMARK    2  A    between atoms: C_7  and  N_8
REMARK    3  A    between atoms: C_9  and  C_11
REMARK    4  A    between atoms: C_11  and  C_12
REMARK                            x       y       z     vdW  Elec       q    Type
REMARK                         _______ _______ _______ _____ _____    ______ ____
ROOT
ATOM      1  N   UNL     1       2.597   6.644  20.166  0.00  0.00    +0.000 N 
ATOM      2  C   UNL     1       2.044   5.383  20.360  0.00  0.00    +0.000 C 
ATOM      3  O   UNL     1       0.848   5.141  20.518  0.00  0.00    +0.000 OA
ATOM      4  H   UNL     1       3.603   6.723  20.244  0.00  0.00    +0.000 HD
ENDROOT
BRANCH   1  11
ATOM      5  C   UNL     1      -1.657  13.308  20.622  0.00  0.00    +0.000 C 
ATOM      6  N   UNL     1      -0.860  12.108  20.794  0.00  0.00    +0.000 N 
ATOM      7  C   UNL     1      -1.210  11.182  21.863  0.00  0.00    +0.000 C 
ATOM      8  C   UNL     1      -0.002  10.350  22.279  0.00  0.00    +0.000 C 
ATOM      9  C   UNL     1       0.597   9.689  21.070  0.00  0.00    +0.000 A 
ATOM     10  C   UNL     1       1.288   8.472  21.189  0.00  0.00    +0.000 A 
ATOM     11  C   UNL     1       1.870   7.856  20.078  0.00  0.00    +0.000 A 
ATOM     12  C   UNL     1       1.729   8.462  18.822  0.00  0.00    +0.000 A 
ATOM     13  C   UNL     1       1.075   9.691  18.698  0.00  0.00    +0.000 A 
ATOM     14  C   UNL     1       0.516  10.314  19.820  0.00  0.00    +0.000 A 
ATOM     15  C   UNL     1      -0.148  11.644  19.685  0.00  0.00    +0.000 C 
ATOM     16  O   UNL     1      -0.050  12.273  18.636  0.00  0.00    +0.000 OA
ENDBRANCH   1  11
BRANCH   2  17
ATOM     17  C   UNL     1       3.062   4.254  20.415  0.00  0.00    +0.000 C 
BRANCH  17  18
ATOM     18  C   UNL     1       3.826   4.094  19.120  0.00  0.00    +0.000 A 
ATOM     19  C   UNL     1       3.163   3.661  17.952  0.00  0.00    +0.000 A 
ATOM     20  C   UNL     1       3.836   3.579  16.729  0.00  0.00    +0.000 A 
ATOM     21  C   UNL     1       5.168   3.952  16.682  0.00  0.00    +0.000 A 
ATOM     22  C   UNL     1       5.844   4.347  17.840  0.00  0.00    +0.000 A 
ATOM     23  C   UNL     1       5.199   4.390  19.065  0.00  0.00    +0.000 A 
ATOM     24  C   UNL     1       7.267   4.695  17.536  0.00  0.00    +0.000 C 
ATOM     25  C   UNL     1       7.194   4.914  16.017  0.00  0.00    +0.000 C 
ATOM     26  C   UNL     1       6.081   3.993  15.497  0.00  0.00    +0.000 C 
ENDBRANCH  17  18
ENDBRANCH   2  17
TORSDOF 3
ENDMDL
MODEL 5
REMARK VINA RESULT:      -8.2      1.423      2.145
REMARK  Name = 
REMARK  4 active torsions:
REMARK  status: ('A' for Active; 'I' for Inactive)
REMARK    1  A    between atoms: C_1  and  N_2
REMARK    2  A    between atoms: C_7  and  N_8
REMARK    3  A    between atoms: C_9  and  C_11
REMARK    4  A    between atoms: C_11  and  C_12
REMARK                            x       y       z     vdW  Elec       q    Type
REMARK                         _______ _______ _______ _____ _____    ______ ____
ROOT
ATOM      1  N   UNL     1       2.681   6.375  20.048  0.00  0.00    +0.000 N 
ATOM      2  C   UNL     1       2.162   5.087  20.105  0.00  0.00    +0.000 C 
ATOM      3  O   UNL     1       0.999   4.794  20.383  0.00  0.00    +0.000 OA
ATOM      4  H   UNL     1       3.688   6.463  19.999  0.00  0.00    +0.000 HD
ENDROOT
BRANCH   1  11
ATOM      5  C   UNL     1      -1.524  12.741  22.169  0.00  0.00    +0.000 C 
ATOM      6  N   UNL     1      -0.714  11.545  22.033  0.00  0.00    +0.000 N 
ATOM      7  C   UNL     1      -0.975  10.419  22.921  0.00  0.00    +0.000 C 
ATOM      8  C   UNL     1       0.265   9.542  23.063  0.00  0.00    +0.000 C 
ATOM      9  C   UNL     1       0.762   9.145  21.701  0.00  0.00    +0.000 A 
ATOM     10  C   UNL     1       1.460   7.941  21.518  0.00  0.00    +0.000 A 
ATOM     11  C   UNL     1       1.949   7.568  20.263  0.00  0.00    +0.000 A 
ATOM     12  C   UNL     1       1.704   8.409  19.169  0.00  0.00    +0.000 A 
ATOM     13  C   UNL     1       1.041   9.627  19.347  0.00  0.00    +0.000 A 
ATOM     14  C   UNL     1       0.577  10.005  20.612  0.00  0.00    +0.000 A 
ATOM     15  C   UNL     1      -0.097  11.323  20.799  0.00  0.00    +0.000 C 
ATOM     16  O   UNL     1      -0.087  12.150  19.893  0.00  0.00    +0.000 OA
ENDBRANCH   1  11
BRANCH   2  17
ATOM     17  C   UNL     1       3.177   3.989  19.831  0.00  0.00    +0.000 C 
BRANCH  17  18
ATOM     18  C   UNL     1       4.243   4.411  18.845  0.00  0.00    +0.000 A 
ATOM     19  C   UNL     1       5.463   4.950  19.306  0.00  0.00    +0.000 A 
ATOM     20  C   UNL     1       6.490   5.276  18.414  0.00  0.00    +0.000 A 
ATOM     21  C   UNL     1       6.292   5.041  17.065  0.00  0.00    +0.000 A 
ATOM     22  C   UNL     1       5.074   4.543  16.595  0.00  0.00    +0.000 A 
ATOM     23  C   UNL     1       4.035   4.256  17.464  0.00  0.00    +0.000 A 
ATOM     24  C   UNL     1       5.102   4.379  15.107  0.00  0.00    +0.000 C 
ATOM     25  C   UNL     1       6.615   4.384  14.844  0.00  0.00    +0.000 C 
ATOM     26  C   UNL     1       7.245   5.264  15.933  0.00  0.00    +0.000 C 
ENDBRANCH  17  18
ENDBRANCH   2  17
TORSDOF 3
ENDMDL
MODEL 6
REMARK VINA RESULT:      -8.2      1.320      1.921
REMARK  Name = 
REMARK  4 active torsions:
REMARK  status: ('A' for Active; 'I' for Inactive)
REMARK    1  A    between atoms: C_1  and  N_2
REMARK    2  A    between atoms: C_7  and  N_8
REMARK    3  A    between atoms: C_9  and  C_11
REMARK    4  A    between atoms: C_11  and  C_12
REMARK                            x       y       z     vdW  Elec       q    Type
REMARK                         _______ _______ _______ _____ _____    ______ ____
ROOT
ATOM      1  N   UNL     1       3.168   5.531  18.349  0.00  0.00    +0.000 N 
ATOM      2  C   UNL     1       4.435   5.063  18.677  0.00  0.00    +0.000 C 
ATOM      3  O   UNL     1       5.195   5.570  19.501  0.00  0.00    +0.000 OA
ATOM      4  H   UNL     1       2.732   5.139  17.524  0.00  0.00    +0.000 HD
ENDROOT
BRANCH   1  11
ATOM      5  C   UNL     1      -0.211  12.257  20.811  0.00  0.00    +0.000 C 
ATOM      6  N   UNL     1       0.385  11.126  20.125  0.00  0.00    +0.000 N 
ATOM      7  C   UNL     1       1.374  11.380  19.084  0.00  0.00    +0.000 C 
ATOM      8  C   UNL     1       1.444  10.213  18.105  0.00  0.00    +0.000 C 
ATOM      9  C   UNL     1       1.666   8.933  18.859  0.00  0.00    +0.000 A 
ATOM     10  C   UNL     1       2.331   7.854  18.256  0.00  0.00    +0.000 A 
ATOM     11  C   UNL     1       2.526   6.648  18.936  0.00  0.00    +0.000 A 
ATOM     12  C   UNL     1       2.066   6.539  20.255  0.00  0.00    +0.000 A 
ATOM     13  C   UNL     1       1.370   7.594  20.852  0.00  0.00    +0.000 A 
ATOM     14  C   UNL     1       1.158   8.789  20.156  0.00  0.00    +0.000 A 
ATOM     15  C   UNL     1       0.382   9.896  20.788  0.00  0.00    +0.000 C 
ATOM     16  O   UNL     1      -0.221   9.699  21.838  0.00  0.00    +0.000 OA
ENDBRANCH   1  11
BRANCH   2  17
ATOM     17  C   UNL     1       4.877   3.841  17.886  0.00  0.00    +0.000 C 
BRANCH  17  18
ATOM     18  C   UNL     1       5.572   4.203  16.594  0.00  0.00    +0.000 A 
ATOM     19  C   UNL     1       6.788   4.917  16.616  0.00  0.00    +0.000 A 
ATOM     20  C   UNL     1       7.484   5.195  15.435  0.00  0.00    +0.000 A 
ATOM     21  C   UNL     1       6.963   4.736  14.239  0.00  0.00    +0.000 A 
ATOM     22  C   UNL     1       5.740   4.060  14.201  0.00  0.00    +0.000 A 
ATOM     23  C   UNL     1       5.021   3.817  15.359  0.00  0.00    +0.000 A 
ATOM     24  C   UNL     1       5.387   3.670  12.800  0.00  0.00    +0.000 C 
ATOM     25  C   UNL     1       6.759   3.774  12.116  0.00  0.00    +0.000 C 
ATOM     26  C   UNL     1       7.537   4.867  12.863  0.00  0.00    +0.000 C 
ENDBRANCH  17  18
ENDBRANCH   2  17
TORSDOF 3
ENDMDL
MODEL 7
REMARK VINA RESULT:      -8.2      2.039      3.042
REMARK  Name = 
REMARK  4 active torsions:
REMARK  status: ('A' for Active; 'I' for Inactive)
REMARK    1  A    between atoms: C_1  and  N_2
REMARK    2  A    between atoms: C_7  and  N_8
REMARK    3  A    between atoms: C_9  and  C_11
REMARK    4  A    between atoms: C_11  and  C_12
REMARK                            x       y       z     vdW  Elec       q    Type
REMARK                         _______ _______ _______ _____ _____    ______ ____
ROOT
ATOM      1  N   UNL     1       2.488   6.504  20.170  0.00  0.00    +0.000 N 
ATOM      2  C   UNL     1       1.959   5.222  20.255  0.00  0.00    +0.000 C 
ATOM      3  O   UNL     1       0.804   4.943  20.577  0.00  0.00    +0.000 OA
ATOM      4  H   UNL     1       3.494   6.582  20.084  0.00  0.00    +0.000 HD
ENDROOT
BRANCH   1  11
ATOM      5  C   UNL     1      -1.626  12.899  22.381  0.00  0.00    +0.000 C 
ATOM      6  N   UNL     1      -0.838  11.691  22.228  0.00  0.00    +0.000 N 
ATOM      7  C   UNL     1      -1.136  10.548  23.082  0.00  0.00    +0.000 C 
ATOM      8  C   UNL     1       0.082   9.642  23.223  0.00  0.00    +0.000 C 
ATOM      9  C   UNL     1       0.595   9.269  21.861  0.00  0.00    +0.000 A 
ATOM     10  C   UNL     1       1.273   8.057  21.659  0.00  0.00    +0.000 A 
ATOM     11  C   UNL     1       1.777   7.706  20.403  0.00  0.00    +0.000 A 
ATOM     12  C   UNL     1       1.567   8.579  19.327  0.00  0.00    +0.000 A 
ATOM     13  C   UNL     1       0.926   9.805  19.524  0.00  0.00    +0.000 A 
ATOM     14  C   UNL     1       0.447  10.160  20.791  0.00  0.00    +0.000 A 
ATOM     15  C   UNL     1      -0.203  11.487  21.000  0.00  0.00    +0.000 C 
ATOM     16  O   UNL     1      -0.161  12.336  20.116  0.00  0.00    +0.000 OA
ENDBRANCH   1  11
BRANCH   2  17
ATOM     17  C   UNL     1       2.952   4.111  19.952  0.00  0.00    +0.000 C 
BRANCH  17  18
ATOM     18  C   UNL     1       4.007   4.528  18.953  0.00  0.00    +0.000 A 
ATOM     19  C   UNL     1       3.753   4.433  17.569  0.00  0.00    +0.000 A 
ATOM     20  C   UNL     1       4.687   4.884  16.630  0.00  0.00    +0.000 A 
ATOM     21  C   UNL     1       5.865   5.446  17.090  0.00  0.00    +0.000 A 
ATOM     22  C   UNL     1       6.143   5.511  18.458  0.00  0.00    +0.000 A 
ATOM     23  C   UNL     1       5.245   5.029  19.394  0.00  0.00    +0.000 A 
ATOM     24  C   UNL     1       7.473   6.154  18.703  0.00  0.00    +0.000 C 
ATOM     25  C   UNL     1       7.698   6.873  17.364  0.00  0.00    +0.000 C 
ATOM     26  C   UNL     1       6.987   6.033  16.293  0.00  0.00    +0.000 C 
ENDBRANCH  17  18
ENDBRANCH   2  17
TORSDOF 3
ENDMDL
MODEL 8
REMARK VINA RESULT:      -8.0      3.968      6.033
REMARK  Name = 
REMARK  4 active torsions:
REMARK  status: ('A' for Active; 'I' for Inactive)
REMARK    1  A    between atoms: C_1  and  N_2
REMARK    2  A    between atoms: C_7  and  N_8
REMARK    3  A    between atoms: C_9  and  C_11
REMARK    4  A    between atoms: C_11  and  C_12
REMARK                            x       y       z     vdW  Elec       q    Type
REMARK                         _______ _______ _______ _____ _____    ______ ____
ROOT
ATOM      1  N   UNL     1      -0.003   9.467  17.666  0.00  0.00    +0.000 N 
ATOM      2  C   UNL     1       1.194   9.897  18.227  0.00  0.00    +0.000 C 
ATOM      3  O   UNL     1       1.350  10.926  18.884  0.00  0.00    +0.000 OA
ATOM      4  H   UNL     1       0.050   8.713  16.993  0.00  0.00    +0.000 HD
ENDROOT
BRANCH   1  11
ATOM      5  C   UNL     1      -6.661  13.466  19.213  0.00  0.00    +0.000 C 
ATOM      6  N   UNL     1      -5.334  12.889  19.105  0.00  0.00    +0.000 N 
ATOM      7  C   UNL     1      -4.594  12.599  20.326  0.00  0.00    +0.000 C 
ATOM      8  C   UNL     1      -3.093  12.577  20.061  0.00  0.00    +0.000 C 
ATOM      9  C   UNL     1      -2.794  11.636  18.927  0.00  0.00    +0.000 A 
ATOM     10  C   UNL     1      -1.554  10.982  18.850  0.00  0.00    +0.000 A 
ATOM     11  C   UNL     1      -1.252  10.122  17.790  0.00  0.00    +0.000 A 
ATOM     12  C   UNL     1      -2.226   9.896  16.809  0.00  0.00    +0.000 A 
ATOM     13  C   UNL     1      -3.450  10.570  16.857  0.00  0.00    +0.000 A 
ATOM     14  C   UNL     1      -3.735  11.449  17.908  0.00  0.00    +0.000 A 
ATOM     15  C   UNL     1      -5.029  12.193  17.932  0.00  0.00    +0.000 C 
ATOM     16  O   UNL     1      -5.764  12.174  16.950  0.00  0.00    +0.000 OA
ENDBRANCH   1  11
BRANCH   2  17
ATOM     17  C   UNL     1       2.385   8.997  17.932  0.00  0.00    +0.000 C 
BRANCH  17  18
ATOM     18  C   UNL     1       2.255   7.631  18.566  0.00  0.00    +0.000 A 
ATOM     19  C   UNL     1       2.038   7.510  19.955  0.00  0.00    +0.000 A 
ATOM     20  C   UNL     1       1.841   6.258  20.548  0.00  0.00    +0.000 A 
ATOM     21  C   UNL     1       1.842   5.137  19.738  0.00  0.00    +0.000 A 
ATOM     22  C   UNL     1       2.092   5.242  18.367  0.00  0.00    +0.000 A 
ATOM     23  C   UNL     1       2.332   6.471  17.776  0.00  0.00    +0.000 A 
ATOM     24  C   UNL     1       2.045   3.898  17.710  0.00  0.00    +0.000 C 
ATOM     25  C   UNL     1       1.274   3.088  18.763  0.00  0.00    +0.000 C 
ATOM     26  C   UNL     1       1.612   3.710  20.125  0.00  0.00    +0.000 C 
ENDBRANCH  17  18
ENDBRANCH   2  17
TORSDOF 3
ENDMDL
MODEL 9
REMARK VINA RESULT:      -8.0      6.392      7.564
REMARK  Name = 
REMARK  4 active torsions:
REMARK  status: ('A' for Active; 'I' for Inactive)
REMARK    1  A    between atoms: C_1  and  N_2
REMARK    2  A    between atoms: C_7  and  N_8
REMARK    3  A    between atoms: C_9  and  C_11
REMARK    4  A    between atoms: C_11  and  C_12
REMARK                            x       y       z     vdW  Elec       q    Type
REMARK                         _______ _______ _______ _____ _____    ______ ____
ROOT
ATOM      1  N   UNL     1       8.627   8.164  18.936  0.00  0.00    +0.000 N 
ATOM      2  C   UNL     1       7.883   7.462  17.995  0.00  0.00    +0.000 C 
ATOM      3  O   UNL     1       7.315   7.953  17.019  0.00  0.00    +0.000 OA
ATOM      4  H   UNL     1       8.874   7.673  19.786  0.00  0.00    +0.000 HD
ENDROOT
BRANCH   1  11
ATOM      5  C   UNL     1      10.476  15.829  19.667  0.00  0.00    +0.000 C 
ATOM      6  N   UNL     1      10.312  14.389  19.719  0.00  0.00    +0.000 N 
ATOM      7  C   UNL     1      10.212  13.742  21.021  0.00  0.00    +0.000 C 
ATOM      8  C   UNL     1      10.634  12.279  20.934  0.00  0.00    +0.000 C 
ATOM      9  C   UNL     1       9.855  11.591  19.849  0.00  0.00    +0.000 A 
ATOM     10  C   UNL     1       9.591  10.214  19.921  0.00  0.00    +0.000 A 
ATOM     11  C   UNL     1       8.887   9.555  18.908  0.00  0.00    +0.000 A 
ATOM     12  C   UNL     1       8.418  10.303  17.820  0.00  0.00    +0.000 A 
ATOM     13  C   UNL     1       8.707  11.667  17.720  0.00  0.00    +0.000 A 
ATOM     14  C   UNL     1       9.434  12.314  18.726  0.00  0.00    +0.000 A 
ATOM     15  C   UNL     1       9.770  13.762  18.593  0.00  0.00    +0.000 C 
ATOM     16  O   UNL     1       9.569  14.342  17.531  0.00  0.00    +0.000 OA
ENDBRANCH   1  11
BRANCH   2  17
ATOM     17  C   UNL     1       7.764   5.972  18.273  0.00  0.00    +0.000 C 
BRANCH  17  18
ATOM     18  C   UNL     1       6.412   5.413  17.895  0.00  0.00    +0.000 A 
ATOM     19  C   UNL     1       6.269   4.618  16.738  0.00  0.00    +0.000 A 
ATOM     20  C   UNL     1       5.041   4.030  16.414  0.00  0.00    +0.000 A 
ATOM     21  C   UNL     1       3.969   4.229  17.265  0.00  0.00    +0.000 A 
ATOM     22  C   UNL     1       4.090   5.044  18.394  0.00  0.00    +0.000 A 
ATOM     23  C   UNL     1       5.288   5.666  18.702  0.00  0.00    +0.000 A 
ATOM     24  C   UNL     1       2.800   5.107  19.149  0.00  0.00    +0.000 C 
ATOM     25  C   UNL     1       2.080   3.867  18.597  0.00  0.00    +0.000 C 
ATOM     26  C   UNL     1       2.583   3.677  17.158  0.00  0.00    +0.000 C 
ENDBRANCH  17  18
ENDBRANCH   2  17
TORSDOF 3
ENDMDL
