MODEL 1
REMARK VINA RESULT:      -8.3      0.000      0.000
REMARK  Name = 
REMARK  8 active torsions:
REMARK  status: ('A' for Active; 'I' for Inactive)
REMARK    1  A    between atoms: C_1  and  C_2
REMARK    2  A    between atoms: C_2  and  N_3
REMARK    3  A    between atoms: C_2  and  C_10
REMARK    4  A    between atoms: N_8  and  C_9
REMARK    5  A    between atoms: C_14  and  N_15
REMARK    6  A    between atoms: C_20  and  C_21
REMARK    7  A    between atoms: C_21  and  N_22
REMARK    8  A    between atoms: C_27  and  C_28
REMARK                            x       y       z     vdW  Elec       q    Type
REMARK                         _______ _______ _______ _____ _____    ______ ____
ROOT
ATOM      1  N   UNL     1       2.590   7.892  19.369  0.00  0.00    +0.000 N 
ATOM      2  C   UNL     1       2.168   8.622  20.601  0.00  0.00    +0.000 C 
ATOM      3  C   UNL     1       0.953   9.374  20.136  0.00  0.00    +0.000 A 
ATOM      4  C   UNL     1       1.072   9.542  18.757  0.00  0.00    +0.000 A 
ATOM      5  C   UNL     1       0.043  10.037  17.969  0.00  0.00    +0.000 A 
ATOM      6  C   UNL     1      -1.155  10.421  18.590  0.00  0.00    +0.000 A 
ATOM      7  C   UNL     1      -1.275  10.256  19.995  0.00  0.00    +0.000 A 
ATOM      8  C   UNL     1      -0.227   9.726  20.791  0.00  0.00    +0.000 A 
ATOM      9  C   UNL     1       2.232   8.751  18.301  0.00  0.00    +0.000 C 
ATOM     10  O   UNL     1       2.616   8.728  17.135  0.00  0.00    +0.000 OA
ENDROOT
BRANCH   1  15
ATOM     11  C   UNL     1       2.745   4.308  18.988  0.00  0.00    +0.000 A 
ATOM     12  C   UNL     1       2.397   4.057  20.326  0.00  0.00    +0.000 A 
ATOM     13  C   UNL     1       1.589   4.941  21.025  0.00  0.00    +0.000 A 
ATOM     14  C   UNL     1       1.249   6.152  20.450  0.00  0.00    +0.000 A 
ATOM     15  C   UNL     1       1.961   6.571  19.316  0.00  0.00    +0.000 A 
ATOM     16  C   UNL     1       2.537   5.602  18.488  0.00  0.00    +0.000 A 
BRANCH  11  18
ATOM     17  C   UNL     1       2.370   2.294  17.540  0.00  0.00    +0.000 C 
ATOM     18  C   UNL     1       3.413   3.242  18.133  0.00  0.00    +0.000 C 
BRANCH  18  19
ATOM     19  N   UNL     1       4.186   3.889  17.087  0.00  0.00    +0.000 N 
ATOM     20  C   UNL     1       5.455   4.320  17.250  0.00  0.00    +0.000 C 
ATOM     21  N   UNL     1       6.167   4.200  18.340  0.00  0.00    +0.000 NA
ATOM     22  C   UNL     1       7.448   4.862  18.009  0.00  0.00    +0.000 C 
ATOM     23  C   UNL     1       7.372   5.309  16.548  0.00  0.00    +0.000 C 
ATOM     24  N   UNL     1       6.023   4.935  16.169  0.00  0.00    +0.000 N 
ATOM     25  C   UNL     1       5.297   5.845  15.302  0.00  0.00    +0.000 C 
ATOM     26  H   UNL     1       3.999   3.568  16.149  0.00  0.00    +0.000 HD
ENDBRANCH  18  19
ENDBRANCH  11  18
ENDBRANCH   1  15
BRANCH   8  27
ATOM     27  C   UNL     1      -0.453   9.491  22.266  0.00  0.00    +0.000 C 
ATOM     28  F   UNL     1      -1.332  10.361  22.839  0.00  0.00    +0.000 F 
ATOM     29  F   UNL     1      -0.952   8.250  22.517  0.00  0.00    +0.000 F 
ATOM     30  F   UNL     1       0.696   9.592  22.989  0.00  0.00    +0.000 F 
ENDBRANCH   8  27
BRANCH   6  31
ATOM     31  C   UNL     1      -2.275  11.020  17.753  0.00  0.00    +0.000 C 
BRANCH  31  32
ATOM     32  N   UNL     1      -3.058  10.077  16.938  0.00  0.00    +0.000 NA
ATOM     33  C   UNL     1      -2.437   9.816  15.623  0.00  0.00    +0.000 C 
ATOM     34  C   UNL     1      -3.734  10.247  14.925  0.00  0.00    +0.000 C 
ATOM     35  C   UNL     1      -4.165  10.819  16.276  0.00  0.00    +0.000 C 
ENDBRANCH  31  32
ENDBRANCH   6  31
TORSDOF 6
ENDMDL
MODEL 2
REMARK VINA RESULT:      -8.2      3.216      4.145
REMARK  Name = 
REMARK  8 active torsions:
REMARK  status: ('A' for Active; 'I' for Inactive)
REMARK    1  A    between atoms: C_1  and  C_2
REMARK    2  A    between atoms: C_2  and  N_3
REMARK    3  A    between atoms: C_2  and  C_10
REMARK    4  A    between atoms: N_8  and  C_9
REMARK    5  A    between atoms: C_14  and  N_15
REMARK    6  A    between atoms: C_20  and  C_21
REMARK    7  A    between atoms: C_21  and  N_22
REMARK    8  A    between atoms: C_27  and  C_28
REMARK                            x       y       z     vdW  Elec       q    Type
REMARK                         _______ _______ _______ _____ _____    ______ ____
ROOT
ATOM      1  N   UNL     1       0.789   8.314  21.104  0.00  0.00    +0.000 N 
ATOM      2  C   UNL     1      -0.452   8.618  20.332  0.00  0.00    +0.000 C 
ATOM      3  C   UNL     1      -0.326  10.094  20.079  0.00  0.00    +0.000 A 
ATOM      4  C   UNL     1       0.489  10.618  21.080  0.00  0.00    +0.000 A 
ATOM      5  C   UNL     1       0.965  11.921  21.057  0.00  0.00    +0.000 A 
ATOM      6  C   UNL     1       0.579  12.759  19.999  0.00  0.00    +0.000 A 
ATOM      7  C   UNL     1      -0.256  12.228  18.982  0.00  0.00    +0.000 A 
ATOM      8  C   UNL     1      -0.719  10.886  19.001  0.00  0.00    +0.000 A 
ATOM      9  C   UNL     1       1.044   9.489  21.853  0.00  0.00    +0.000 C 
ATOM     10  O   UNL     1       1.772   9.634  22.830  0.00  0.00    +0.000 OA
ENDROOT
BRANCH   1  15
ATOM     11  C   UNL     1       2.497   5.907  19.030  0.00  0.00    +0.000 A 
ATOM     12  C   UNL     1       2.180   6.572  17.834  0.00  0.00    +0.000 A 
ATOM     13  C   UNL     1       2.010   7.948  17.813  0.00  0.00    +0.000 A 
ATOM     14  C   UNL     1       2.002   8.651  19.004  0.00  0.00    +0.000 A 
ATOM     15  C   UNL     1       1.874   7.928  20.200  0.00  0.00    +0.000 A 
ATOM     16  C   UNL     1       2.318   6.603  20.235  0.00  0.00    +0.000 A 
BRANCH  11  18
ATOM     17  C   UNL     1       1.772   3.538  18.637  0.00  0.00    +0.000 C 
ATOM     18  C   UNL     1       2.934   4.449  19.030  0.00  0.00    +0.000 C 
BRANCH  18  19
ATOM     19  N   UNL     1       4.055   4.291  18.120  0.00  0.00    +0.000 N 
ATOM     20  C   UNL     1       5.313   4.691  18.402  0.00  0.00    +0.000 C 
ATOM     21  N   UNL     1       5.704   5.247  19.520  0.00  0.00    +0.000 NA
ATOM     22  C   UNL     1       7.140   5.524  19.301  0.00  0.00    +0.000 C 
ATOM     23  C   UNL     1       7.512   4.978  17.921  0.00  0.00    +0.000 C 
ATOM     24  N   UNL     1       6.241   4.491  17.419  0.00  0.00    +0.000 N 
ATOM     25  C   UNL     1       5.959   4.696  16.009  0.00  0.00    +0.000 C 
ATOM     26  H   UNL     1       4.028   3.465  17.540  0.00  0.00    +0.000 HD
ENDBRANCH  18  19
ENDBRANCH  11  18
ENDBRANCH   1  15
BRANCH   8  27
ATOM     27  C   UNL     1      -1.529  10.358  17.840  0.00  0.00    +0.000 C 
ATOM     28  F   UNL     1      -2.678   9.723  18.207  0.00  0.00    +0.000 F 
ATOM     29  F   UNL     1      -1.916  11.349  16.992  0.00  0.00    +0.000 F 
ATOM     30  F   UNL     1      -0.833   9.463  17.087  0.00  0.00    +0.000 F 
ENDBRANCH   8  27
BRANCH   6  31
ATOM     31  C   UNL     1       1.041  14.208  19.984  0.00  0.00    +0.000 C 
BRANCH  31  32
ATOM     32  N   UNL     1       1.397  14.766  18.669  0.00  0.00    +0.000 NA
ATOM     33  C   UNL     1       2.738  14.337  18.218  0.00  0.00    +0.000 C 
ATOM     34  C   UNL     1       3.153  15.805  18.057  0.00  0.00    +0.000 C 
ATOM     35  C   UNL     1       1.897  16.154  18.856  0.00  0.00    +0.000 C 
ENDBRANCH  31  32
ENDBRANCH   6  31
TORSDOF 6
ENDMDL
MODEL 3
REMARK VINA RESULT:      -8.2      0.565      1.062
REMARK  Name = 
REMARK  8 active torsions:
REMARK  status: ('A' for Active; 'I' for Inactive)
REMARK    1  A    between atoms: C_1  and  C_2
REMARK    2  A    between atoms: C_2  and  N_3
REMARK    3  A    between atoms: C_2  and  C_10
REMARK    4  A    between atoms: N_8  and  C_9
REMARK    5  A    between atoms: C_14  and  N_15
REMARK    6  A    between atoms: C_20  and  C_21
REMARK    7  A    between atoms: C_21  and  N_22
REMARK    8  A    between atoms: C_27  and  C_28
REMARK                            x       y       z     vdW  Elec       q    Type
REMARK                         _______ _______ _______ _____ _____    ______ ____
ROOT
ATOM      1  N   UNL     1       2.674   7.743  19.377  0.00  0.00    +0.000 N 
ATOM      2  C   UNL     1       2.223   8.509  20.576  0.00  0.00    +0.000 C 
ATOM      3  C   UNL     1       1.041   9.274  20.048  0.00  0.00    +0.000 A 
ATOM      4  C   UNL     1       1.214   9.407  18.672  0.00  0.00    +0.000 A 
ATOM      5  C   UNL     1       0.226   9.904  17.835  0.00  0.00    +0.000 A 
ATOM      6  C   UNL     1      -0.987  10.326  18.402  0.00  0.00    +0.000 A 
ATOM      7  C   UNL     1      -1.162  10.196  19.804  0.00  0.00    +0.000 A 
ATOM      8  C   UNL     1      -0.154   9.665  20.651  0.00  0.00    +0.000 A 
ATOM      9  C   UNL     1       2.374   8.584  18.277  0.00  0.00    +0.000 C 
ATOM     10  O   UNL     1       2.800   8.526  17.128  0.00  0.00    +0.000 OA
ENDROOT
BRANCH   1  15
ATOM     11  C   UNL     1       2.761   4.156  19.005  0.00  0.00    +0.000 A 
ATOM     12  C   UNL     1       2.414   3.914  20.345  0.00  0.00    +0.000 A 
ATOM     13  C   UNL     1       1.626   4.814  21.045  0.00  0.00    +0.000 A 
ATOM     14  C   UNL     1       1.307   6.030  20.469  0.00  0.00    +0.000 A 
ATOM     15  C   UNL     1       2.021   6.433  19.330  0.00  0.00    +0.000 A 
ATOM     16  C   UNL     1       2.574   5.452  18.502  0.00  0.00    +0.000 A 
BRANCH  11  18
ATOM     17  C   UNL     1       2.341   2.152  17.555  0.00  0.00    +0.000 C 
ATOM     18  C   UNL     1       3.404   3.074  18.149  0.00  0.00    +0.000 C 
BRANCH  18  19
ATOM     19  N   UNL     1       4.192   3.705  17.105  0.00  0.00    +0.000 N 
ATOM     20  C   UNL     1       5.439   4.189  17.294  0.00  0.00    +0.000 C 
ATOM     21  N   UNL     1       6.113   4.142  18.413  0.00  0.00    +0.000 NA
ATOM     22  C   UNL     1       7.381   4.836  18.099  0.00  0.00    +0.000 C 
ATOM     23  C   UNL     1       7.345   5.217  16.618  0.00  0.00    +0.000 C 
ATOM     24  N   UNL     1       6.025   4.777  16.208  0.00  0.00    +0.000 N 
ATOM     25  C   UNL     1       5.300   5.622  15.276  0.00  0.00    +0.000 C 
ATOM     26  H   UNL     1       4.052   3.337  16.175  0.00  0.00    +0.000 HD
ENDBRANCH  18  19
ENDBRANCH  11  18
ENDBRANCH   1  15
BRANCH   8  27
ATOM     27  C   UNL     1      -0.440   9.469  22.121  0.00  0.00    +0.000 C 
ATOM     28  F   UNL     1       0.661   9.569  22.919  0.00  0.00    +0.000 F 
ATOM     29  F   UNL     1      -1.322  10.388  22.600  0.00  0.00    +0.000 F 
ATOM     30  F   UNL     1      -0.982   8.249  22.387  0.00  0.00    +0.000 F 
ENDBRANCH   8  27
BRANCH   6  31
ATOM     31  C   UNL     1      -2.062  10.928  17.511  0.00  0.00    +0.000 C 
BRANCH  31  32
ATOM     32  N   UNL     1      -3.451  10.543  17.812  0.00  0.00    +0.000 NA
ATOM     33  C   UNL     1      -4.348  10.712  16.649  0.00  0.00    +0.000 C 
ATOM     34  C   UNL     1      -5.264  11.613  17.488  0.00  0.00    +0.000 C 
ATOM     35  C   UNL     1      -4.123  11.675  18.504  0.00  0.00    +0.000 C 
ENDBRANCH  31  32
ENDBRANCH   6  31
TORSDOF 6
ENDMDL
MODEL 4
REMARK VINA RESULT:      -8.2      3.360      4.410
REMARK  Name = 
REMARK  8 active torsions:
REMARK  status: ('A' for Active; 'I' for Inactive)
REMARK    1  A    between atoms: C_1  and  C_2
REMARK    2  A    between atoms: C_2  and  N_3
REMARK    3  A    between atoms: C_2  and  C_10
REMARK    4  A    between atoms: N_8  and  C_9
REMARK    5  A    between atoms: C_14  and  N_15
REMARK    6  A    between atoms: C_20  and  C_21
REMARK    7  A    between atoms: C_21  and  N_22
REMARK    8  A    between atoms: C_27  and  C_28
REMARK                            x       y       z     vdW  Elec       q    Type
REMARK                         _______ _______ _______ _____ _____    ______ ____
ROOT
ATOM      1  N   UNL     1       0.141   9.006  20.966  0.00  0.00    +0.000 N 
ATOM      2  C   UNL     1      -0.998   9.037  20.003  0.00  0.00    +0.000 C 
ATOM      3  C   UNL     1      -1.033  10.480  19.584  0.00  0.00    +0.000 A 
ATOM      4  C   UNL     1      -0.455  11.224  20.611  0.00  0.00    +0.000 A 
ATOM      5  C   UNL     1      -0.159  12.574  20.487  0.00  0.00    +0.000 A 
ATOM      6  C   UNL     1      -0.490  13.227  19.290  0.00  0.00    +0.000 A 
ATOM      7  C   UNL     1      -1.084  12.472  18.245  0.00  0.00    +0.000 A 
ATOM      8  C   UNL     1      -1.362  11.086  18.372  0.00  0.00    +0.000 A 
ATOM      9  C   UNL     1       0.122  10.280  21.588  0.00  0.00    +0.000 C 
ATOM     10  O   UNL     1       0.670  10.635  22.627  0.00  0.00    +0.000 OA
ENDROOT
BRANCH   1  15
ATOM     11  C   UNL     1       2.483   6.669  19.528  0.00  0.00    +0.000 A 
ATOM     12  C   UNL     1       2.241   7.093  18.211  0.00  0.00    +0.000 A 
ATOM     13  C   UNL     1       1.864   8.401  17.946  0.00  0.00    +0.000 A 
ATOM     14  C   UNL     1       1.576   9.252  18.998  0.00  0.00    +0.000 A 
ATOM     15  C   UNL     1       1.391   8.694  20.272  0.00  0.00    +0.000 A 
ATOM     16  C   UNL     1       2.027   7.486  20.575  0.00  0.00    +0.000 A 
BRANCH  11  18
ATOM     17  C   UNL     1       2.083   4.280  20.178  0.00  0.00    +0.000 C 
ATOM     18  C   UNL     1       3.136   5.326  19.818  0.00  0.00    +0.000 C 
BRANCH  18  19
ATOM     19  N   UNL     1       3.907   4.914  18.658  0.00  0.00    +0.000 N 
ATOM     20  C   UNL     1       5.251   5.017  18.574  0.00  0.00    +0.000 C 
ATOM     21  N   UNL     1       6.040   5.470  19.512  0.00  0.00    +0.000 NA
ATOM     22  C   UNL     1       7.389   5.411  18.908  0.00  0.00    +0.000 C 
ATOM     23  C   UNL     1       7.245   4.793  17.516  0.00  0.00    +0.000 C 
ATOM     24  N   UNL     1       5.811   4.609  17.396  0.00  0.00    +0.000 N 
ATOM     25  C   UNL     1       5.211   4.871  16.099  0.00  0.00    +0.000 C 
ATOM     26  H   UNL     1       3.544   4.116  18.158  0.00  0.00    +0.000 HD
ENDBRANCH  18  19
ENDBRANCH  11  18
ENDBRANCH   1  15
BRANCH   8  27
ATOM     27  C   UNL     1      -1.910  10.322  17.190  0.00  0.00    +0.000 C 
ATOM     28  F   UNL     1      -2.181  11.099  16.103  0.00  0.00    +0.000 F 
ATOM     29  F   UNL     1      -1.046   9.368  16.749  0.00  0.00    +0.000 F 
ATOM     30  F   UNL     1      -3.072   9.676  17.483  0.00  0.00    +0.000 F 
ENDBRANCH   8  27
BRANCH   6  31
ATOM     31  C   UNL     1      -0.227  14.719  19.153  0.00  0.00    +0.000 C 
BRANCH  31  32
ATOM     32  N   UNL     1       1.145  15.170  19.440  0.00  0.00    +0.000 NA
ATOM     33  C   UNL     1       1.452  16.475  18.816  0.00  0.00    +0.000 C 
ATOM     34  C   UNL     1       2.663  15.851  18.109  0.00  0.00    +0.000 C 
ATOM     35  C   UNL     1       2.078  14.493  18.500  0.00  0.00    +0.000 C 
ENDBRANCH  31  32
ENDBRANCH   6  31
TORSDOF 6
ENDMDL
MODEL 5
REMARK VINA RESULT:      -7.9      3.601      8.510
REMARK  Name = 
REMARK  8 active torsions:
REMARK  status: ('A' for Active; 'I' for Inactive)
REMARK    1  A    between atoms: C_1  and  C_2
REMARK    2  A    between atoms: C_2  and  N_3
REMARK    3  A    between atoms: C_2  and  C_10
REMARK    4  A    between atoms: N_8  and  C_9
REMARK    5  A    between atoms: C_14  and  N_15
REMARK    6  A    between atoms: C_20  and  C_21
REMARK    7  A    between atoms: C_21  and  N_22
REMARK    8  A    between atoms: C_27  and  C_28
REMARK                            x       y       z     vdW  Elec       q    Type
REMARK                         _______ _______ _______ _____ _____    ______ ____
ROOT
ATOM      1  N   UNL     1       3.880   4.935  19.039  0.00  0.00    +0.000 N 
ATOM      2  C   UNL     1       5.218   5.572  19.218  0.00  0.00    +0.000 C 
ATOM      3  C   UNL     1       5.876   5.331  17.888  0.00  0.00    +0.000 A 
ATOM      4  C   UNL     1       5.270   4.209  17.324  0.00  0.00    +0.000 A 
ATOM      5  C   UNL     1       5.505   3.805  16.018  0.00  0.00    +0.000 A 
ATOM      6  C   UNL     1       6.421   4.534  15.243  0.00  0.00    +0.000 A 
ATOM      7  C   UNL     1       7.042   5.673  15.818  0.00  0.00    +0.000 A 
ATOM      8  C   UNL     1       6.778   6.094  17.148  0.00  0.00    +0.000 A 
ATOM      9  C   UNL     1       4.114   3.843  18.166  0.00  0.00    +0.000 C 
ATOM     10  O   UNL     1       3.401   2.869  17.947  0.00  0.00    +0.000 OA
ENDROOT
BRANCH   1  15
ATOM     11  C   UNL     1       1.932   7.952  19.382  0.00  0.00    +0.000 A 
ATOM     12  C   UNL     1       2.645   8.637  18.384  0.00  0.00    +0.000 A 
ATOM     13  C   UNL     1       3.220   7.949  17.326  0.00  0.00    +0.000 A 
ATOM     14  C   UNL     1       3.223   6.566  17.336  0.00  0.00    +0.000 A 
ATOM     15  C   UNL     1       2.911   5.910  18.536  0.00  0.00    +0.000 A 
ATOM     16  C   UNL     1       2.091   6.561  19.463  0.00  0.00    +0.000 A 
BRANCH  11  18
ATOM     17  C   UNL     1       1.616   8.467  21.817  0.00  0.00    +0.000 C 
ATOM     18  C   UNL     1       1.087   8.700  20.402  0.00  0.00    +0.000 C 
BRANCH  18  19
ATOM     19  N   UNL     1       1.085  10.114  20.070  0.00  0.00    +0.000 N 
ATOM     20  C   UNL     1       0.054  10.742  19.466  0.00  0.00    +0.000 C 
ATOM     21  N   UNL     1      -1.079  10.188  19.120  0.00  0.00    +0.000 NA
ATOM     22  C   UNL     1      -1.832  11.282  18.469  0.00  0.00    +0.000 C 
ATOM     23  C   UNL     1      -0.980  12.549  18.565  0.00  0.00    +0.000 C 
ATOM     24  N   UNL     1       0.233  12.071  19.201  0.00  0.00    +0.000 N 
ATOM     25  C   UNL     1       1.492  12.624  18.735  0.00  0.00    +0.000 C 
ATOM     26  H   UNL     1       1.583  10.710  20.714  0.00  0.00    +0.000 HD
ENDBRANCH  18  19
ENDBRANCH  11  18
ENDBRANCH   1  15
BRANCH   8  27
ATOM     27  C   UNL     1       7.403   7.367  17.668  0.00  0.00    +0.000 C 
ATOM     28  F   UNL     1       8.103   7.209  18.827  0.00  0.00    +0.000 F 
ATOM     29  F   UNL     1       8.284   7.905  16.781  0.00  0.00    +0.000 F 
ATOM     30  F   UNL     1       6.479   8.333  17.920  0.00  0.00    +0.000 F 
ENDBRANCH   8  27
BRANCH   6  31
ATOM     31  C   UNL     1       6.738   4.076  13.828  0.00  0.00    +0.000 C 
BRANCH  31  32
ATOM     32  N   UNL     1       5.830   3.072  13.247  0.00  0.00    +0.000 NA
ATOM     33  C   UNL     1       6.312   2.561  11.947  0.00  0.00    +0.000 C 
ATOM     34  C   UNL     1       4.983   2.966  11.296  0.00  0.00    +0.000 C 
ATOM     35  C   UNL     1       4.711   3.775  12.564  0.00  0.00    +0.000 C 
ENDBRANCH  31  32
ENDBRANCH   6  31
TORSDOF 6
ENDMDL
MODEL 6
REMARK VINA RESULT:      -7.8      3.206      4.106
REMARK  Name = 
REMARK  8 active torsions:
REMARK  status: ('A' for Active; 'I' for Inactive)
REMARK    1  A    between atoms: C_1  and  C_2
REMARK    2  A    between atoms: C_2  and  N_3
REMARK    3  A    between atoms: C_2  and  C_10
REMARK    4  A    between atoms: N_8  and  C_9
REMARK    5  A    between atoms: C_14  and  N_15
REMARK    6  A    between atoms: C_20  and  C_21
REMARK    7  A    between atoms: C_21  and  N_22
REMARK    8  A    between atoms: C_27  and  C_28
REMARK                            x       y       z     vdW  Elec       q    Type
REMARK                         _______ _______ _______ _____ _____    ______ ____
ROOT
ATOM      1  N   UNL     1       0.689   8.351  21.125  0.00  0.00    +0.000 N 
ATOM      2  C   UNL     1      -0.540   8.615  20.321  0.00  0.00    +0.000 C 
ATOM      3  C   UNL     1      -0.483  10.103  20.115  0.00  0.00    +0.000 A 
ATOM      4  C   UNL     1       0.272  10.637  21.157  0.00  0.00    +0.000 A 
ATOM      5  C   UNL     1       0.681  11.962  21.187  0.00  0.00    +0.000 A 
ATOM      6  C   UNL     1       0.286  12.811  20.141  0.00  0.00    +0.000 A 
ATOM      7  C   UNL     1      -0.488  12.270  19.082  0.00  0.00    +0.000 A 
ATOM      8  C   UNL     1      -0.882  10.906  19.047  0.00  0.00    +0.000 A 
ATOM      9  C   UNL     1       0.860   9.515  21.915  0.00  0.00    +0.000 C 
ATOM     10  O   UNL     1       1.549   9.667  22.920  0.00  0.00    +0.000 OA
ENDROOT
BRANCH   1  15
ATOM     11  C   UNL     1       2.569   6.106  19.019  0.00  0.00    +0.000 A 
ATOM     12  C   UNL     1       2.267   6.807  17.840  0.00  0.00    +0.000 A 
ATOM     13  C   UNL     1       2.040   8.175  17.869  0.00  0.00    +0.000 A 
ATOM     14  C   UNL     1       1.960   8.825  19.087  0.00  0.00    +0.000 A 
ATOM     15  C   UNL     1       1.821   8.048  20.247  0.00  0.00    +0.000 A 
ATOM     16  C   UNL     1       2.319   6.741  20.244  0.00  0.00    +0.000 A 
BRANCH  11  18
ATOM     17  C   UNL     1       1.891   3.692  18.927  0.00  0.00    +0.000 C 
ATOM     18  C   UNL     1       3.066   4.668  18.976  0.00  0.00    +0.000 C 
BRANCH  18  19
ATOM     19  N   UNL     1       3.932   4.501  17.822  0.00  0.00    +0.000 N 
ATOM     20  C   UNL     1       5.278   4.603  17.873  0.00  0.00    +0.000 C 
ATOM     21  N   UNL     1       5.984   4.839  18.947  0.00  0.00    +0.000 NA
ATOM     22  C   UNL     1       7.379   4.893  18.457  0.00  0.00    +0.000 C 
ATOM     23  C   UNL     1       7.354   4.584  16.959  0.00  0.00    +0.000 C 
ATOM     24  N   UNL     1       5.937   4.446  16.685  0.00  0.00    +0.000 N 
ATOM     25  C   UNL     1       5.445   4.982  15.429  0.00  0.00    +0.000 C 
ATOM     26  H   UNL     1       3.617   3.830  17.137  0.00  0.00    +0.000 HD
ENDBRANCH  18  19
ENDBRANCH  11  18
ENDBRANCH   1  15
BRANCH   8  27
ATOM     27  C   UNL     1      -1.626  10.373  17.846  0.00  0.00    +0.000 C 
ATOM     28  F   UNL     1      -0.920   9.469  17.110  0.00  0.00    +0.000 F 
ATOM     29  F   UNL     1      -2.777   9.738  18.197  0.00  0.00    +0.000 F 
ATOM     30  F   UNL     1      -1.986  11.359  16.979  0.00  0.00    +0.000 F 
ENDBRANCH   8  27
BRANCH   6  31
ATOM     31  C   UNL     1       0.673  14.282  20.182  0.00  0.00    +0.000 C 
BRANCH  31  32
ATOM     32  N   UNL     1      -0.406  15.249  19.925  0.00  0.00    +0.000 NA
ATOM     33  C   UNL     1      -0.205  15.997  18.666  0.00  0.00    +0.000 C 
ATOM     34  C   UNL     1      -0.296  17.320  19.439  0.00  0.00    +0.000 C 
ATOM     35  C   UNL     1      -0.141  16.484  20.710  0.00  0.00    +0.000 C 
ENDBRANCH  31  32
ENDBRANCH   6  31
TORSDOF 6
ENDMDL
MODEL 7
REMARK VINA RESULT:      -7.7      3.465      5.183
REMARK  Name = 
REMARK  8 active torsions:
REMARK  status: ('A' for Active; 'I' for Inactive)
REMARK    1  A    between atoms: C_1  and  C_2
REMARK    2  A    between atoms: C_2  and  N_3
REMARK    3  A    between atoms: C_2  and  C_10
REMARK    4  A    between atoms: N_8  and  C_9
REMARK    5  A    between atoms: C_14  and  N_15
REMARK    6  A    between atoms: C_20  and  C_21
REMARK    7  A    between atoms: C_21  and  N_22
REMARK    8  A    between atoms: C_27  and  C_28
REMARK                            x       y       z     vdW  Elec       q    Type
REMARK                         _______ _______ _______ _____ _____    ______ ____
ROOT
ATOM      1  N   UNL     1       0.200   8.988  20.999  0.00  0.00    +0.000 N 
ATOM      2  C   UNL     1      -0.982   8.990  20.089  0.00  0.00    +0.000 C 
ATOM      3  C   UNL     1      -1.242  10.457  19.893  0.00  0.00    +0.000 A 
ATOM      4  C   UNL     1      -0.720  11.122  21.001  0.00  0.00    +0.000 A 
ATOM      5  C   UNL     1      -0.622  12.504  21.071  0.00  0.00    +0.000 A 
ATOM      6  C   UNL     1      -1.105  13.268  19.997  0.00  0.00    +0.000 A 
ATOM      7  C   UNL     1      -1.643  12.592  18.871  0.00  0.00    +0.000 A 
ATOM      8  C   UNL     1      -1.717  11.177  18.797  0.00  0.00    +0.000 A 
ATOM      9  C   UNL     1       0.037  10.142  21.805  0.00  0.00    +0.000 C 
ATOM     10  O   UNL     1       0.584  10.420  22.868  0.00  0.00    +0.000 OA
ENDROOT
BRANCH   1  15
ATOM     11  C   UNL     1       2.357   7.560  18.485  0.00  0.00    +0.000 A 
ATOM     12  C   UNL     1       2.220   8.652  17.612  0.00  0.00    +0.000 A 
ATOM     13  C   UNL     1       1.989   9.927  18.106  0.00  0.00    +0.000 A 
ATOM     14  C   UNL     1       1.741  10.100  19.455  0.00  0.00    +0.000 A 
ATOM     15  C   UNL     1       1.443   8.965  20.226  0.00  0.00    +0.000 A 
ATOM     16  C   UNL     1       1.938   7.724  19.814  0.00  0.00    +0.000 A 
BRANCH  11  18
ATOM     17  C   UNL     1       4.258   6.339  17.393  0.00  0.00    +0.000 C 
ATOM     18  C   UNL     1       2.857   6.211  17.988  0.00  0.00    +0.000 C 
BRANCH  18  19
ATOM     19  N   UNL     1       2.841   5.266  19.091  0.00  0.00    +0.000 N 
ATOM     20  C   UNL     1       2.154   4.103  19.074  0.00  0.00    +0.000 C 
ATOM     21  N   UNL     1       1.437   3.656  18.076  0.00  0.00    +0.000 NA
ATOM     22  C   UNL     1       0.872   2.385  18.579  0.00  0.00    +0.000 C 
ATOM     23  C   UNL     1       1.436   2.152  19.982  0.00  0.00    +0.000 C 
ATOM     24  N   UNL     1       2.228   3.346  20.210  0.00  0.00    +0.000 N 
ATOM     25  C   UNL     1       2.206   3.916  21.545  0.00  0.00    +0.000 C 
ATOM     26  H   UNL     1       3.698   5.206  19.622  0.00  0.00    +0.000 HD
ENDBRANCH  18  19
ENDBRANCH  11  18
ENDBRANCH   1  15
BRANCH   8  27
ATOM     27  C   UNL     1      -2.216  10.519  17.532  0.00  0.00    +0.000 C 
ATOM     28  F   UNL     1      -3.311   9.728  17.711  0.00  0.00    +0.000 F 
ATOM     29  F   UNL     1      -2.575  11.430  16.587  0.00  0.00    +0.000 F 
ATOM     30  F   UNL     1      -1.274   9.724  16.954  0.00  0.00    +0.000 F 
ENDBRANCH   8  27
BRANCH   6  31
ATOM     31  C   UNL     1      -1.062  14.786  20.078  0.00  0.00    +0.000 C 
BRANCH  31  32
ATOM     32  N   UNL     1      -0.353  15.478  18.989  0.00  0.00    +0.000 NA
ATOM     33  C   UNL     1       1.085  15.136  18.945  0.00  0.00    +0.000 C 
ATOM     34  C   UNL     1       1.441  16.625  19.042  0.00  0.00    +0.000 C 
ATOM     35  C   UNL     1      -0.019  16.857  19.435  0.00  0.00    +0.000 C 
ENDBRANCH  31  32
ENDBRANCH   6  31
TORSDOF 6
ENDMDL
MODEL 8
REMARK VINA RESULT:      -7.7      3.600      8.542
REMARK  Name = 
REMARK  8 active torsions:
REMARK  status: ('A' for Active; 'I' for Inactive)
REMARK    1  A    between atoms: C_1  and  C_2
REMARK    2  A    between atoms: C_2  and  N_3
REMARK    3  A    between atoms: C_2  and  C_10
REMARK    4  A    between atoms: N_8  and  C_9
REMARK    5  A    between atoms: C_14  and  N_15
REMARK    6  A    between atoms: C_20  and  C_21
REMARK    7  A    between atoms: C_21  and  N_22
REMARK    8  A    between atoms: C_27  and  C_28
REMARK                            x       y       z     vdW  Elec       q    Type
REMARK                         _______ _______ _______ _____ _____    ______ ____
ROOT
ATOM      1  N   UNL     1       3.573   5.105  19.627  0.00  0.00    +0.000 N 
ATOM      2  C   UNL     1       4.949   5.683  19.615  0.00  0.00    +0.000 C 
ATOM      3  C   UNL     1       5.504   5.179  18.312  0.00  0.00    +0.000 A 
ATOM      4  C   UNL     1       4.808   4.016  17.988  0.00  0.00    +0.000 A 
ATOM      5  C   UNL     1       4.935   3.382  16.760  0.00  0.00    +0.000 A 
ATOM      6  C   UNL     1       5.831   3.912  15.819  0.00  0.00    +0.000 A 
ATOM      7  C   UNL     1       6.544   5.094  16.151  0.00  0.00    +0.000 A 
ATOM      8  C   UNL     1       6.390   5.750  17.400  0.00  0.00    +0.000 A 
ATOM      9  C   UNL     1       3.695   3.869  18.946  0.00  0.00    +0.000 C 
ATOM     10  O   UNL     1       2.922   2.915  18.941  0.00  0.00    +0.000 OA
ENDROOT
BRANCH   1  15
ATOM     11  C   UNL     1       1.719   8.200  19.608  0.00  0.00    +0.000 A 
ATOM     12  C   UNL     1       2.428   8.727  18.517  0.00  0.00    +0.000 A 
ATOM     13  C   UNL     1       2.961   7.890  17.548  0.00  0.00    +0.000 A 
ATOM     14  C   UNL     1       2.925   6.521  17.738  0.00  0.00    +0.000 A 
ATOM     15  C   UNL     1       2.621   6.036  19.019  0.00  0.00    +0.000 A 
ATOM     16  C   UNL     1       1.841   6.827  19.868  0.00  0.00    +0.000 A 
BRANCH  11  18
ATOM     17  C   UNL     1       1.372   8.921  21.986  0.00  0.00    +0.000 C 
ATOM     18  C   UNL     1       0.918   9.100  20.538  0.00  0.00    +0.000 C 
BRANCH  18  19
ATOM     19  N   UNL     1       1.070  10.479  20.108  0.00  0.00    +0.000 N 
ATOM     20  C   UNL     1       0.133  11.156  19.410  0.00  0.00    +0.000 C 
ATOM     21  N   UNL     1      -1.033  10.688  19.047  0.00  0.00    +0.000 NA
ATOM     22  C   UNL     1      -1.646  11.798  18.285  0.00  0.00    +0.000 C 
ATOM     23  C   UNL     1      -0.678  12.981  18.335  0.00  0.00    +0.000 C 
ATOM     24  N   UNL     1       0.454  12.438  19.062  0.00  0.00    +0.000 N 
ATOM     25  C   UNL     1       1.780  12.832  18.623  0.00  0.00    +0.000 C 
ATOM     26  H   UNL     1       1.596  11.072  20.734  0.00  0.00    +0.000 HD
ENDBRANCH  18  19
ENDBRANCH  11  18
ENDBRANCH   1  15
BRANCH   8  27
ATOM     27  C   UNL     1       7.110   7.053  17.654  0.00  0.00    +0.000 C 
ATOM     28  F   UNL     1       6.285   8.133  17.762  0.00  0.00    +0.000 F 
ATOM     29  F   UNL     1       7.828   7.027  18.810  0.00  0.00    +0.000 F 
ATOM     30  F   UNL     1       7.995   7.359  16.665  0.00  0.00    +0.000 F 
ENDBRANCH   8  27
BRANCH   6  31
ATOM     31  C   UNL     1       6.030   3.201  14.489  0.00  0.00    +0.000 C 
BRANCH  31  32
ATOM     32  N   UNL     1       5.921   4.034  13.280  0.00  0.00    +0.000 NA
ATOM     33  C   UNL     1       5.872   3.228  12.042  0.00  0.00    +0.000 C 
ATOM     34  C   UNL     1       7.078   4.001  11.491  0.00  0.00    +0.000 C 
ATOM     35  C   UNL     1       7.276   4.527  12.913  0.00  0.00    +0.000 C 
ENDBRANCH  31  32
ENDBRANCH   6  31
TORSDOF 6
ENDMDL
MODEL 9
REMARK VINA RESULT:      -7.7      3.633      8.618
REMARK  Name = 
REMARK  8 active torsions:
REMARK  status: ('A' for Active; 'I' for Inactive)
REMARK    1  A    between atoms: C_1  and  C_2
REMARK    2  A    between atoms: C_2  and  N_3
REMARK    3  A    between atoms: C_2  and  C_10
REMARK    4  A    between atoms: N_8  and  C_9
REMARK    5  A    between atoms: C_14  and  N_15
REMARK    6  A    between atoms: C_20  and  C_21
REMARK    7  A    between atoms: C_21  and  N_22
REMARK    8  A    between atoms: C_27  and  C_28
REMARK                            x       y       z     vdW  Elec       q    Type
REMARK                         _______ _______ _______ _____ _____    ______ ____
ROOT
ATOM      1  N   UNL     1       3.995   4.679  19.134  0.00  0.00    +0.000 N 
ATOM      2  C   UNL     1       5.316   5.360  19.268  0.00  0.00    +0.000 C 
ATOM      3  C   UNL     1       5.898   5.218  17.889  0.00  0.00    +0.000 A 
ATOM      4  C   UNL     1       5.301   4.106  17.300  0.00  0.00    +0.000 A 
ATOM      5  C   UNL     1       5.469   3.783  15.961  0.00  0.00    +0.000 A 
ATOM      6  C   UNL     1       6.306   4.590  15.175  0.00  0.00    +0.000 A 
ATOM      7  C   UNL     1       6.919   5.721  15.776  0.00  0.00    +0.000 A 
ATOM      8  C   UNL     1       6.723   6.057  17.140  0.00  0.00    +0.000 A 
ATOM      9  C   UNL     1       4.215   3.647  18.189  0.00  0.00    +0.000 C 
ATOM     10  O   UNL     1       3.527   2.658  17.958  0.00  0.00    +0.000 OA
ENDROOT
BRANCH   1  15
ATOM     11  C   UNL     1       1.957   7.588  19.767  0.00  0.00    +0.000 A 
ATOM     12  C   UNL     1       2.580   8.357  18.771  0.00  0.00    +0.000 A 
ATOM     13  C   UNL     1       3.116   7.755  17.643  0.00  0.00    +0.000 A 
ATOM     14  C   UNL     1       3.173   6.375  17.571  0.00  0.00    +0.000 A 
ATOM     15  C   UNL     1       2.960   5.639  18.747  0.00  0.00    +0.000 A 
ATOM     16  C   UNL     1       2.174   6.202  19.758  0.00  0.00    +0.000 A 
BRANCH  11  18
ATOM     17  C   UNL     1       2.046   8.607  22.058  0.00  0.00    +0.000 C 
ATOM     18  C   UNL     1       1.147   8.241  20.878  0.00  0.00    +0.000 C 
BRANCH  18  19
ATOM     19  N   UNL     1       0.477   9.415  20.347  0.00  0.00    +0.000 N 
ATOM     20  C   UNL     1      -0.263  10.260  21.097  0.00  0.00    +0.000 C 
ATOM     21  N   UNL     1      -0.460  10.162  22.385  0.00  0.00    +0.000 NA
ATOM     22  C   UNL     1      -1.360  11.294  22.699  0.00  0.00    +0.000 C 
ATOM     23  C   UNL     1      -1.580  12.081  21.406  0.00  0.00    +0.000 C 
ATOM     24  N   UNL     1      -0.847  11.299  20.428  0.00  0.00    +0.000 N 
ATOM     25  C   UNL     1      -1.436  11.162  19.108  0.00  0.00    +0.000 C 
ATOM     26  H   UNL     1       0.954   9.880  19.589  0.00  0.00    +0.000 HD
ENDBRANCH  18  19
ENDBRANCH  11  18
ENDBRANCH   1  15
BRANCH   8  27
ATOM     27  C   UNL     1       7.331   7.324  17.693  0.00  0.00    +0.000 C 
ATOM     28  F   UNL     1       8.216   7.930  16.852  0.00  0.00    +0.000 F 
ATOM     29  F   UNL     1       6.389   8.267  17.971  0.00  0.00    +0.000 F 
ATOM     30  F   UNL     1       8.008   7.111  18.855  0.00  0.00    +0.000 F 
ENDBRANCH   8  27
BRANCH   6  31
ATOM     31  C   UNL     1       6.551   4.223  13.719  0.00  0.00    +0.000 C 
BRANCH  31  32
ATOM     32  N   UNL     1       5.752   3.108  13.184  0.00  0.00    +0.000 NA
ATOM     33  C   UNL     1       6.339   2.532  11.955  0.00  0.00    +0.000 C 
ATOM     34  C   UNL     1       5.020   2.779  11.211  0.00  0.00    +0.000 C 
ATOM     35  C   UNL     1       4.622   3.665  12.392  0.00  0.00    +0.000 C 
ENDBRANCH  31  32
ENDBRANCH   6  31
TORSDOF 6
ENDMDL
