MODEL 1
REMARK VINA RESULT:      -7.9      0.000      0.000
REMARK  Name = 
REMARK  7 active torsions:
REMARK  status: ('A' for Active; 'I' for Inactive)
REMARK    1  A    between atoms: C_2  and  C_3
REMARK    2  A    between atoms: C_3  and  O_4
REMARK    3  A    between atoms: O_4  and  C_5
REMARK    4  A    between atoms: C_5  and  C_7
REMARK    5  A    between atoms: C_7  and  N_8
REMARK    6  A    between atoms: C_11  and  C_12
REMARK    7  A    between atoms: N_19  and  C_20
REMARK                            x       y       z     vdW  Elec       q    Type
REMARK                         _______ _______ _______ _____ _____    ______ ____
ROOT
ATOM      1  O   UNL     1       7.135   4.838  16.789  0.00  0.00    +0.000 OA
ENDROOT
BRANCH   1   2
ATOM      2  C   UNL     1       6.820   6.132  16.486  0.00  0.00    +0.000 C 
ATOM      3  O   UNL     1       7.555   7.088  16.704  0.00  0.00    +0.000 OA
BRANCH   2   4
ATOM      4  C   UNL     1       5.491   6.216  15.798  0.00  0.00    +0.000 C 
BRANCH   4   5
ATOM      5  N   UNL     1       4.417   6.306  16.749  0.00  0.00    +0.000 N 
ATOM      6  N   UNL     1       3.591   5.268  16.961  0.00  0.00    +0.000 NA
ATOM      7  N   UNL     1       2.676   5.733  17.796  0.00  0.00    +0.000 NA
ATOM      8  C   UNL     1       2.967   7.061  18.025  0.00  0.00    +0.000 A 
ATOM      9  N   UNL     1       4.051   7.469  17.334  0.00  0.00    +0.000 NA
BRANCH   8  10
ATOM     10  C   UNL     1       2.184   7.873  18.949  0.00  0.00    +0.000 A 
ATOM     11  C   UNL     1       1.652   9.099  18.515  0.00  0.00    +0.000 A 
ATOM     12  C   UNL     1       0.855   9.877  19.357  0.00  0.00    +0.000 A 
ATOM     13  C   UNL     1       0.586   9.445  20.652  0.00  0.00    +0.000 A 
ATOM     14  C   UNL     1       1.119   8.238  21.106  0.00  0.00    +0.000 A 
ATOM     15  C   UNL     1       1.916   7.455  20.262  0.00  0.00    +0.000 A 
ENDBRANCH   8  10
ENDBRANCH   4   5
ENDBRANCH   2   4
ENDBRANCH   1   2
BRANCH   1  16
ATOM     16  C   UNL     1       7.406   4.600  18.177  0.00  0.00    +0.000 C 
BRANCH  16  18
ATOM     17  O   UNL     1       5.738   5.493  19.658  0.00  0.00    +0.000 OA
ATOM     18  C   UNL     1       6.092   4.542  18.966  0.00  0.00    +0.000 C 
ATOM     19  N   UNL     1       5.403   3.352  18.823  0.00  0.00    +0.000 N 
ATOM     20  H   UNL     1       5.829   2.610  18.274  0.00  0.00    +0.000 HD
BRANCH  19  21
ATOM     21  C   UNL     1       4.139   3.035  19.379  0.00  0.00    +0.000 A 
ATOM     22  C   UNL     1       3.693   3.482  20.624  0.00  0.00    +0.000 A 
ATOM     23  C   UNL     1       2.429   3.118  21.082  0.00  0.00    +0.000 A 
ATOM     24  F   UNL     1       2.017   3.551  22.282  0.00  0.00    +0.000 F 
ATOM     25  C   UNL     1       1.583   2.316  20.325  0.00  0.00    +0.000 A 
ATOM     26  C   UNL     1       2.010   1.867  19.079  0.00  0.00    +0.000 A 
ATOM     27  C   UNL     1       3.276   2.228  18.618  0.00  0.00    +0.000 A 
ATOM     28  F   UNL     1       3.676   1.790  17.413  0.00  0.00    +0.000 F 
ENDBRANCH  19  21
ENDBRANCH  16  18
ENDBRANCH   1  16
TORSDOF 7
ENDMDL
MODEL 2
REMARK VINA RESULT:      -7.8      2.683      5.073
REMARK  Name = 
REMARK  7 active torsions:
REMARK  status: ('A' for Active; 'I' for Inactive)
REMARK    1  A    between atoms: C_2  and  C_3
REMARK    2  A    between atoms: C_3  and  O_4
REMARK    3  A    between atoms: O_4  and  C_5
REMARK    4  A    between atoms: C_5  and  C_7
REMARK    5  A    between atoms: C_7  and  N_8
REMARK    6  A    between atoms: C_11  and  C_12
REMARK    7  A    between atoms: N_19  and  C_20
REMARK                            x       y       z     vdW  Elec       q    Type
REMARK                         _______ _______ _______ _____ _____    ______ ____
ROOT
ATOM      1  O   UNL     1       1.093   3.972  19.252  0.00  0.00    +0.000 OA
ENDROOT
BRANCH   1   2
ATOM      2  C   UNL     1       1.386   3.810  20.576  0.00  0.00    +0.000 C 
ATOM      3  O   UNL     1       0.963   2.890  21.266  0.00  0.00    +0.000 OA
BRANCH   2   4
ATOM      4  C   UNL     1       2.338   4.865  21.051  0.00  0.00    +0.000 C 
BRANCH   4   5
ATOM      5  N   UNL     1       2.078   6.126  20.413  0.00  0.00    +0.000 N 
ATOM      6  N   UNL     1       2.723   6.481  19.289  0.00  0.00    +0.000 NA
ATOM      7  N   UNL     1       2.328   7.721  19.051  0.00  0.00    +0.000 NA
ATOM      8  C   UNL     1       1.482   8.084  20.077  0.00  0.00    +0.000 A 
ATOM      9  N   UNL     1       1.336   7.100  20.988  0.00  0.00    +0.000 NA
BRANCH   8  10
ATOM     10  C   UNL     1       0.816   9.382  20.104  0.00  0.00    +0.000 A 
ATOM     11  C   UNL     1       0.511   9.979  21.337  0.00  0.00    +0.000 A 
ATOM     12  C   UNL     1      -0.080  11.243  21.399  0.00  0.00    +0.000 A 
ATOM     13  C   UNL     1      -0.385  11.924  20.225  0.00  0.00    +0.000 A 
ATOM     14  C   UNL     1      -0.105  11.339  18.990  0.00  0.00    +0.000 A 
ATOM     15  C   UNL     1       0.491  10.073  18.926  0.00  0.00    +0.000 A 
ENDBRANCH   8  10
ENDBRANCH   4   5
ENDBRANCH   2   4
ENDBRANCH   1   2
BRANCH   1  16
ATOM     16  C   UNL     1       1.317   2.807  18.445  0.00  0.00    +0.000 C 
BRANCH  16  18
ATOM     17  O   UNL     1       3.384   1.627  18.118  0.00  0.00    +0.000 OA
ATOM     18  C   UNL     1       2.801   2.706  18.069  0.00  0.00    +0.000 C 
ATOM     19  N   UNL     1       3.372   3.912  17.704  0.00  0.00    +0.000 N 
ATOM     20  H   UNL     1       2.804   4.752  17.765  0.00  0.00    +0.000 HD
BRANCH  19  21
ATOM     21  C   UNL     1       4.698   4.116  17.252  0.00  0.00    +0.000 A 
ATOM     22  C   UNL     1       5.098   4.016  15.918  0.00  0.00    +0.000 A 
ATOM     23  C   UNL     1       6.429   4.240  15.572  0.00  0.00    +0.000 A 
ATOM     24  F   UNL     1       6.799   4.135  14.288  0.00  0.00    +0.000 F 
ATOM     25  C   UNL     1       7.384   4.571  16.526  0.00  0.00    +0.000 A 
ATOM     26  C   UNL     1       7.000   4.680  17.860  0.00  0.00    +0.000 A 
ATOM     27  C   UNL     1       5.669   4.456  18.209  0.00  0.00    +0.000 A 
ATOM     28  F   UNL     1       5.310   4.567  19.499  0.00  0.00    +0.000 F 
ENDBRANCH  19  21
ENDBRANCH  16  18
ENDBRANCH   1  16
TORSDOF 7
ENDMDL
MODEL 3
REMARK VINA RESULT:      -7.7      2.657      5.570
REMARK  Name = 
REMARK  7 active torsions:
REMARK  status: ('A' for Active; 'I' for Inactive)
REMARK    1  A    between atoms: C_2  and  C_3
REMARK    2  A    between atoms: C_3  and  O_4
REMARK    3  A    between atoms: O_4  and  C_5
REMARK    4  A    between atoms: C_5  and  C_7
REMARK    5  A    between atoms: C_7  and  N_8
REMARK    6  A    between atoms: C_11  and  C_12
REMARK    7  A    between atoms: N_19  and  C_20
REMARK                            x       y       z     vdW  Elec       q    Type
REMARK                         _______ _______ _______ _____ _____    ______ ____
ROOT
ATOM      1  O   UNL     1       2.612   2.323  20.111  0.00  0.00    +0.000 OA
ENDROOT
BRANCH   1   2
ATOM      2  C   UNL     1       3.793   2.064  19.475  0.00  0.00    +0.000 C 
ATOM      3  O   UNL     1       4.807   1.672  20.042  0.00  0.00    +0.000 OA
BRANCH   2   4
ATOM      4  C   UNL     1       3.663   2.261  17.996  0.00  0.00    +0.000 C 
BRANCH   4   5
ATOM      5  N   UNL     1       4.411   3.406  17.555  0.00  0.00    +0.000 N 
ATOM      6  N   UNL     1       4.484   3.727  16.252  0.00  0.00    +0.000 NA
ATOM      7  N   UNL     1       5.327   4.745  16.204  0.00  0.00    +0.000 NA
ATOM      8  C   UNL     1       5.767   4.973  17.490  0.00  0.00    +0.000 A 
ATOM      9  N   UNL     1       5.232   4.104  18.371  0.00  0.00    +0.000 NA
BRANCH   8  10
ATOM     10  C   UNL     1       6.675   6.069  17.811  0.00  0.00    +0.000 A 
ATOM     11  C   UNL     1       6.552   7.293  17.132  0.00  0.00    +0.000 A 
ATOM     12  C   UNL     1       7.371   8.378  17.448  0.00  0.00    +0.000 A 
ATOM     13  C   UNL     1       8.334   8.253  18.444  0.00  0.00    +0.000 A 
ATOM     14  C   UNL     1       8.483   7.040  19.118  0.00  0.00    +0.000 A 
ATOM     15  C   UNL     1       7.660   5.952  18.804  0.00  0.00    +0.000 A 
ENDBRANCH   8  10
ENDBRANCH   4   5
ENDBRANCH   2   4
ENDBRANCH   1   2
BRANCH   1  16
ATOM     16  C   UNL     1       2.641   3.461  20.984  0.00  0.00    +0.000 C 
BRANCH  16  18
ATOM     17  O   UNL     1       0.791   4.484  19.844  0.00  0.00    +0.000 OA
ATOM     18  C   UNL     1       1.906   4.640  20.334  0.00  0.00    +0.000 C 
ATOM     19  N   UNL     1       2.616   5.826  20.354  0.00  0.00    +0.000 N 
ATOM     20  H   UNL     1       3.560   5.816  20.731  0.00  0.00    +0.000 HD
BRANCH  19  21
ATOM     21  C   UNL     1       2.170   7.086  19.887  0.00  0.00    +0.000 A 
ATOM     22  C   UNL     1       1.582   8.060  20.696  0.00  0.00    +0.000 A 
ATOM     23  C   UNL     1       1.179   9.274  20.142  0.00  0.00    +0.000 A 
ATOM     24  F   UNL     1       0.611  10.197  20.929  0.00  0.00    +0.000 F 
ATOM     25  C   UNL     1       1.353   9.551  18.791  0.00  0.00    +0.000 A 
ATOM     26  C   UNL     1       1.943   8.592  17.973  0.00  0.00    +0.000 A 
ATOM     27  C   UNL     1       2.346   7.376  18.524  0.00  0.00    +0.000 A 
ATOM     28  F   UNL     1       2.917   6.460  17.725  0.00  0.00    +0.000 F 
ENDBRANCH  19  21
ENDBRANCH  16  18
ENDBRANCH   1  16
TORSDOF 7
ENDMDL
MODEL 4
REMARK VINA RESULT:      -7.7      3.981      5.125
REMARK  Name = 
REMARK  7 active torsions:
REMARK  status: ('A' for Active; 'I' for Inactive)
REMARK    1  A    between atoms: C_2  and  C_3
REMARK    2  A    between atoms: C_3  and  O_4
REMARK    3  A    between atoms: O_4  and  C_5
REMARK    4  A    between atoms: C_5  and  C_7
REMARK    5  A    between atoms: C_7  and  N_8
REMARK    6  A    between atoms: C_11  and  C_12
REMARK    7  A    between atoms: N_19  and  C_20
REMARK                            x       y       z     vdW  Elec       q    Type
REMARK                         _______ _______ _______ _____ _____    ______ ____
ROOT
ATOM      1  O   UNL     1       6.872   4.087  16.730  0.00  0.00    +0.000 OA
ENDROOT
BRANCH   1   2
ATOM      2  C   UNL     1       7.351   5.366  16.715  0.00  0.00    +0.000 C 
ATOM      3  O   UNL     1       7.582   6.001  15.692  0.00  0.00    +0.000 OA
BRANCH   2   4
ATOM      4  C   UNL     1       7.495   5.905  18.105  0.00  0.00    +0.000 C 
BRANCH   4   5
ATOM      5  N   UNL     1       7.712   7.325  18.094  0.00  0.00    +0.000 N 
ATOM      6  N   UNL     1       7.071   8.117  17.218  0.00  0.00    +0.000 NA
ATOM      7  N   UNL     1       7.585   9.320  17.414  0.00  0.00    +0.000 NA
ATOM      8  C   UNL     1       8.558   9.196  18.383  0.00  0.00    +0.000 A 
ATOM      9  N   UNL     1       8.693   7.923  18.807  0.00  0.00    +0.000 NA
BRANCH   8  10
ATOM     10  C   UNL     1       9.297  10.349  18.885  0.00  0.00    +0.000 A 
ATOM     11  C   UNL     1       9.888  11.242  17.976  0.00  0.00    +0.000 A 
ATOM     12  C   UNL     1      10.560  12.383  18.420  0.00  0.00    +0.000 A 
ATOM     13  C   UNL     1      10.659  12.643  19.783  0.00  0.00    +0.000 A 
ATOM     14  C   UNL     1      10.093  11.758  20.702  0.00  0.00    +0.000 A 
ATOM     15  C   UNL     1       9.416  10.615  20.258  0.00  0.00    +0.000 A 
ENDBRANCH   8  10
ENDBRANCH   4   5
ENDBRANCH   2   4
ENDBRANCH   1   2
BRANCH   1  16
ATOM     16  C   UNL     1       5.553   3.938  16.187  0.00  0.00    +0.000 C 
BRANCH  16  18
ATOM     17  O   UNL     1       3.899   5.306  17.266  0.00  0.00    +0.000 OA
ATOM     18  C   UNL     1       4.504   4.238  17.266  0.00  0.00    +0.000 C 
ATOM     19  N   UNL     1       4.344   3.223  18.192  0.00  0.00    +0.000 N 
ATOM     20  H   UNL     1       4.950   2.410  18.126  0.00  0.00    +0.000 HD
BRANCH  19  21
ATOM     21  C   UNL     1       3.412   3.191  19.258  0.00  0.00    +0.000 A 
ATOM     22  C   UNL     1       2.167   3.823  19.233  0.00  0.00    +0.000 A 
ATOM     23  C   UNL     1       1.318   3.729  20.333  0.00  0.00    +0.000 A 
ATOM     24  F   UNL     1       0.128   4.344  20.297  0.00  0.00    +0.000 F 
ATOM     25  C   UNL     1       1.674   3.012  21.470  0.00  0.00    +0.000 A 
ATOM     26  C   UNL     1       2.909   2.372  21.508  0.00  0.00    +0.000 A 
ATOM     27  C   UNL     1       3.762   2.465  20.409  0.00  0.00    +0.000 A 
ATOM     28  F   UNL     1       4.951   1.841  20.456  0.00  0.00    +0.000 F 
ENDBRANCH  19  21
ENDBRANCH  16  18
ENDBRANCH   1  16
TORSDOF 7
ENDMDL
MODEL 5
REMARK VINA RESULT:      -7.7      3.096      6.056
REMARK  Name = 
REMARK  7 active torsions:
REMARK  status: ('A' for Active; 'I' for Inactive)
REMARK    1  A    between atoms: C_2  and  C_3
REMARK    2  A    between atoms: C_3  and  O_4
REMARK    3  A    between atoms: O_4  and  C_5
REMARK    4  A    between atoms: C_5  and  C_7
REMARK    5  A    between atoms: C_7  and  N_8
REMARK    6  A    between atoms: C_11  and  C_12
REMARK    7  A    between atoms: N_19  and  C_20
REMARK                            x       y       z     vdW  Elec       q    Type
REMARK                         _______ _______ _______ _____ _____    ______ ____
ROOT
ATOM      1  O   UNL     1       1.675   2.375  20.608  0.00  0.00    +0.000 OA
ENDROOT
BRANCH   1   2
ATOM      2  C   UNL     1       1.917   2.186  19.277  0.00  0.00    +0.000 C 
ATOM      3  O   UNL     1       1.065   2.289  18.402  0.00  0.00    +0.000 OA
BRANCH   2   4
ATOM      4  C   UNL     1       3.367   1.901  19.028  0.00  0.00    +0.000 C 
BRANCH   4   5
ATOM      5  N   UNL     1       4.005   2.997  18.353  0.00  0.00    +0.000 N 
ATOM      6  N   UNL     1       3.892   3.152  17.024  0.00  0.00    +0.000 NA
ATOM      7  N   UNL     1       4.682   4.174  16.736  0.00  0.00    +0.000 NA
ATOM      8  C   UNL     1       5.279   4.573  17.914  0.00  0.00    +0.000 A 
ATOM      9  N   UNL     1       4.899   3.810  18.959  0.00  0.00    +0.000 NA
BRANCH   8  10
ATOM     10  C   UNL     1       6.179   5.720  17.971  0.00  0.00    +0.000 A 
ATOM     11  C   UNL     1       7.311   5.671  18.800  0.00  0.00    +0.000 A 
ATOM     12  C   UNL     1       8.221   6.731  18.840  0.00  0.00    +0.000 A 
ATOM     13  C   UNL     1       8.004   7.861  18.058  0.00  0.00    +0.000 A 
ATOM     14  C   UNL     1       6.875   7.934  17.241  0.00  0.00    +0.000 A 
ATOM     15  C   UNL     1       5.964   6.871  17.197  0.00  0.00    +0.000 A 
ENDBRANCH   8  10
ENDBRANCH   4   5
ENDBRANCH   2   4
ENDBRANCH   1   2
BRANCH   1  16
ATOM     16  C   UNL     1       2.276   3.553  21.162  0.00  0.00    +0.000 C 
BRANCH  16  18
ATOM     17  O   UNL     1       0.386   4.833  20.414  0.00  0.00    +0.000 OA
ATOM     18  C   UNL     1       1.601   4.806  20.590  0.00  0.00    +0.000 C 
ATOM     19  N   UNL     1       2.478   5.835  20.299  0.00  0.00    +0.000 N 
ATOM     20  H   UNL     1       3.473   5.671  20.427  0.00  0.00    +0.000 HD
BRANCH  19  21
ATOM     21  C   UNL     1       2.140   7.124  19.821  0.00  0.00    +0.000 A 
ATOM     22  C   UNL     1       2.389   7.570  18.521  0.00  0.00    +0.000 A 
ATOM     23  C   UNL     1       2.014   8.858  18.144  0.00  0.00    +0.000 A 
ATOM     24  F   UNL     1       2.264   9.274  16.895  0.00  0.00    +0.000 F 
ATOM     25  C   UNL     1       1.386   9.723  19.032  0.00  0.00    +0.000 A 
ATOM     26  C   UNL     1       1.127   9.292  20.330  0.00  0.00    +0.000 A 
ATOM     27  C   UNL     1       1.501   8.004  20.710  0.00  0.00    +0.000 A 
ATOM     28  F   UNL     1       1.243   7.597  21.965  0.00  0.00    +0.000 F 
ENDBRANCH  19  21
ENDBRANCH  16  18
ENDBRANCH   1  16
TORSDOF 7
ENDMDL
MODEL 6
REMARK VINA RESULT:      -7.5      6.238      8.540
REMARK  Name = 
REMARK  7 active torsions:
REMARK  status: ('A' for Active; 'I' for Inactive)
REMARK    1  A    between atoms: C_2  and  C_3
REMARK    2  A    between atoms: C_3  and  O_4
REMARK    3  A    between atoms: O_4  and  C_5
REMARK    4  A    between atoms: C_5  and  C_7
REMARK    5  A    between atoms: C_7  and  N_8
REMARK    6  A    between atoms: C_11  and  C_12
REMARK    7  A    between atoms: N_19  and  C_20
REMARK                            x       y       z     vdW  Elec       q    Type
REMARK                         _______ _______ _______ _____ _____    ______ ____
ROOT
ATOM      1  O   UNL     1       7.652   8.696  17.859  0.00  0.00    +0.000 OA
ENDROOT
BRANCH   1   2
ATOM      2  C   UNL     1       7.502   7.371  17.561  0.00  0.00    +0.000 C 
ATOM      3  O   UNL     1       7.229   6.944  16.446  0.00  0.00    +0.000 OA
BRANCH   2   4
ATOM      4  C   UNL     1       7.778   6.515  18.759  0.00  0.00    +0.000 C 
BRANCH   4   5
ATOM      5  N   UNL     1       6.760   5.515  18.931  0.00  0.00    +0.000 N 
ATOM      6  N   UNL     1       6.915   4.276  18.436  0.00  0.00    +0.000 NA
ATOM      7  N   UNL     1       5.763   3.672  18.677  0.00  0.00    +0.000 NA
ATOM      8  C   UNL     1       4.935   4.596  19.278  0.00  0.00    +0.000 A 
ATOM      9  N   UNL     1       5.529   5.798  19.414  0.00  0.00    +0.000 NA
BRANCH   8  10
ATOM     10  C   UNL     1       3.592   4.247  19.730  0.00  0.00    +0.000 A 
ATOM     11  C   UNL     1       3.252   2.897  19.917  0.00  0.00    +0.000 A 
ATOM     12  C   UNL     1       1.994   2.530  20.397  0.00  0.00    +0.000 A 
ATOM     13  C   UNL     1       1.050   3.511  20.689  0.00  0.00    +0.000 A 
ATOM     14  C   UNL     1       1.364   4.856  20.493  0.00  0.00    +0.000 A 
ATOM     15  C   UNL     1       2.627   5.225  20.015  0.00  0.00    +0.000 A 
ENDBRANCH   8  10
ENDBRANCH   4   5
ENDBRANCH   2   4
ENDBRANCH   1   2
BRANCH   1  16
ATOM     16  C   UNL     1       8.768   8.993  18.711  0.00  0.00    +0.000 C 
BRANCH  16  18
ATOM     17  O   UNL     1       8.553  11.204  17.795  0.00  0.00    +0.000 OA
ATOM     18  C   UNL     1       9.131  10.479  18.601  0.00  0.00    +0.000 C 
ATOM     19  N   UNL     1      10.138  10.877  19.461  0.00  0.00    +0.000 N 
ATOM     20  H   UNL     1      10.586  10.171  20.038  0.00  0.00    +0.000 HD
BRANCH  19  21
ATOM     21  C   UNL     1      10.638  12.192  19.627  0.00  0.00    +0.000 A 
ATOM     22  C   UNL     1      10.237  13.063  20.641  0.00  0.00    +0.000 A 
ATOM     23  C   UNL     1      10.792  14.338  20.723  0.00  0.00    +0.000 A 
ATOM     24  F   UNL     1      10.393  15.166  21.699  0.00  0.00    +0.000 F 
ATOM     25  C   UNL     1      11.750  14.775  19.816  0.00  0.00    +0.000 A 
ATOM     26  C   UNL     1      12.165  13.916  18.802  0.00  0.00    +0.000 A 
ATOM     27  C   UNL     1      11.611  12.639  18.717  0.00  0.00    +0.000 A 
ATOM     28  F   UNL     1      12.021  11.818  17.736  0.00  0.00    +0.000 F 
ENDBRANCH  19  21
ENDBRANCH  16  18
ENDBRANCH   1  16
TORSDOF 7
ENDMDL
MODEL 7
REMARK VINA RESULT:      -7.5      5.192      7.489
REMARK  Name = 
REMARK  7 active torsions:
REMARK  status: ('A' for Active; 'I' for Inactive)
REMARK    1  A    between atoms: C_2  and  C_3
REMARK    2  A    between atoms: C_3  and  O_4
REMARK    3  A    between atoms: O_4  and  C_5
REMARK    4  A    between atoms: C_5  and  C_7
REMARK    5  A    between atoms: C_7  and  N_8
REMARK    6  A    between atoms: C_11  and  C_12
REMARK    7  A    between atoms: N_19  and  C_20
REMARK                            x       y       z     vdW  Elec       q    Type
REMARK                         _______ _______ _______ _____ _____    ______ ____
ROOT
ATOM      1  O   UNL     1       8.524   6.951  18.495  0.00  0.00    +0.000 OA
ENDROOT
BRANCH   1   2
ATOM      2  C   UNL     1       7.839   5.868  18.968  0.00  0.00    +0.000 C 
ATOM      3  O   UNL     1       7.425   5.765  20.118  0.00  0.00    +0.000 OA
BRANCH   2   4
ATOM      4  C   UNL     1       7.608   4.860  17.884  0.00  0.00    +0.000 C 
BRANCH   4   5
ATOM      5  N   UNL     1       6.206   4.607  17.697  0.00  0.00    +0.000 N 
ATOM      6  N   UNL     1       5.587   4.943  16.553  0.00  0.00    +0.000 NA
ATOM      7  N   UNL     1       4.310   4.675  16.770  0.00  0.00    +0.000 NA
ATOM      8  C   UNL     1       4.203   4.221  18.068  0.00  0.00    +0.000 A 
ATOM      9  N   UNL     1       5.392   4.208  18.701  0.00  0.00    +0.000 NA
BRANCH   8  10
ATOM     10  C   UNL     1       2.929   3.780  18.626  0.00  0.00    +0.000 A 
ATOM     11  C   UNL     1       2.371   2.562  18.205  0.00  0.00    +0.000 A 
ATOM     12  C   UNL     1       1.180   2.086  18.756  0.00  0.00    +0.000 A 
ATOM     13  C   UNL     1       0.521   2.828  19.731  0.00  0.00    +0.000 A 
ATOM     14  C   UNL     1       1.051   4.049  20.149  0.00  0.00    +0.000 A 
ATOM     15  C   UNL     1       2.248   4.526  19.601  0.00  0.00    +0.000 A 
ENDBRANCH   8  10
ENDBRANCH   4   5
ENDBRANCH   2   4
ENDBRANCH   1   2
BRANCH   1  16
ATOM     16  C   UNL     1       7.718   7.905  17.790  0.00  0.00    +0.000 C 
BRANCH  16  18
ATOM     17  O   UNL     1       7.880  10.264  17.365  0.00  0.00    +0.000 OA
ATOM     18  C   UNL     1       8.205   9.328  18.091  0.00  0.00    +0.000 C 
ATOM     19  N   UNL     1       9.018   9.420  19.205  0.00  0.00    +0.000 N 
ATOM     20  H   UNL     1       9.271   8.563  19.690  0.00  0.00    +0.000 HD
BRANCH  19  21
ATOM     21  C   UNL     1       9.564  10.604  19.758  0.00  0.00    +0.000 A 
ATOM     22  C   UNL     1       9.183  11.145  20.988  0.00  0.00    +0.000 A 
ATOM     23  C   UNL     1       9.783  12.314  21.449  0.00  0.00    +0.000 A 
ATOM     24  F   UNL     1       9.403  12.825  22.629  0.00  0.00    +0.000 F 
ATOM     25  C   UNL     1      10.766  12.967  20.715  0.00  0.00    +0.000 A 
ATOM     26  C   UNL     1      11.161  12.437  19.490  0.00  0.00    +0.000 A 
ATOM     27  C   UNL     1      10.562  11.267  19.025  0.00  0.00    +0.000 A 
ATOM     28  F   UNL     1      10.953  10.764  17.843  0.00  0.00    +0.000 F 
ENDBRANCH  19  21
ENDBRANCH  16  18
ENDBRANCH   1  16
TORSDOF 7
ENDMDL
MODEL 8
REMARK VINA RESULT:      -7.5      3.463      5.984
REMARK  Name = 
REMARK  7 active torsions:
REMARK  status: ('A' for Active; 'I' for Inactive)
REMARK    1  A    between atoms: C_2  and  C_3
REMARK    2  A    between atoms: C_3  and  O_4
REMARK    3  A    between atoms: O_4  and  C_5
REMARK    4  A    between atoms: C_5  and  C_7
REMARK    5  A    between atoms: C_7  and  N_8
REMARK    6  A    between atoms: C_11  and  C_12
REMARK    7  A    between atoms: N_19  and  C_20
REMARK                            x       y       z     vdW  Elec       q    Type
REMARK                         _______ _______ _______ _____ _____    ______ ____
ROOT
ATOM      1  O   UNL     1       5.950   6.790  16.459  0.00  0.00    +0.000 OA
ENDROOT
BRANCH   1   2
ATOM      2  C   UNL     1       6.994   6.404  17.252  0.00  0.00    +0.000 C 
ATOM      3  O   UNL     1       7.440   7.075  18.176  0.00  0.00    +0.000 OA
BRANCH   2   4
ATOM      4  C   UNL     1       7.473   5.034  16.883  0.00  0.00    +0.000 C 
BRANCH   4   5
ATOM      5  N   UNL     1       7.292   4.779  15.480  0.00  0.00    +0.000 N 
ATOM      6  N   UNL     1       7.884   5.551  14.553  0.00  0.00    +0.000 NA
ATOM      7  N   UNL     1       7.417   5.107  13.398  0.00  0.00    +0.000 NA
ATOM      8  C   UNL     1       6.520   4.099  13.680  0.00  0.00    +0.000 A 
ATOM      9  N   UNL     1       6.385   3.895  15.006  0.00  0.00    +0.000 NA
BRANCH   8  10
ATOM     10  C   UNL     1       5.851   3.346  12.625  0.00  0.00    +0.000 A 
ATOM     11  C   UNL     1       4.598   3.772  12.156  0.00  0.00    +0.000 A 
ATOM     12  C   UNL     1       3.953   3.104  11.112  0.00  0.00    +0.000 A 
ATOM     13  C   UNL     1       4.550   1.992  10.528  0.00  0.00    +0.000 A 
ATOM     14  C   UNL     1       5.787   1.543  10.992  0.00  0.00    +0.000 A 
ATOM     15  C   UNL     1       6.436   2.214  12.036  0.00  0.00    +0.000 A 
ENDBRANCH   8  10
ENDBRANCH   4   5
ENDBRANCH   2   4
ENDBRANCH   1   2
BRANCH   1  16
ATOM     16  C   UNL     1       4.724   7.031  17.164  0.00  0.00    +0.000 C 
BRANCH  16  18
ATOM     17  O   UNL     1       4.151   4.738  16.732  0.00  0.00    +0.000 OA
ATOM     18  C   UNL     1       4.035   5.699  17.488  0.00  0.00    +0.000 C 
ATOM     19  N   UNL     1       3.300   5.716  18.659  0.00  0.00    +0.000 N 
ATOM     20  H   UNL     1       3.226   6.593  19.169  0.00  0.00    +0.000 HD
BRANCH  19  21
ATOM     21  C   UNL     1       2.611   4.625  19.241  0.00  0.00    +0.000 A 
ATOM     22  C   UNL     1       2.973   4.019  20.446  0.00  0.00    +0.000 A 
ATOM     23  C   UNL     1       2.227   2.951  20.939  0.00  0.00    +0.000 A 
ATOM     24  F   UNL     1       2.590   2.377  22.095  0.00  0.00    +0.000 F 
ATOM     25  C   UNL     1       1.115   2.465  20.262  0.00  0.00    +0.000 A 
ATOM     26  C   UNL     1       0.738   3.061  19.062  0.00  0.00    +0.000 A 
ATOM     27  C   UNL     1       1.483   4.130  18.566  0.00  0.00    +0.000 A 
ATOM     28  F   UNL     1       1.108   4.699  17.408  0.00  0.00    +0.000 F 
ENDBRANCH  19  21
ENDBRANCH  16  18
ENDBRANCH   1  16
TORSDOF 7
ENDMDL
MODEL 9
REMARK VINA RESULT:      -7.4      3.928      5.918
REMARK  Name = 
REMARK  7 active torsions:
REMARK  status: ('A' for Active; 'I' for Inactive)
REMARK    1  A    between atoms: C_2  and  C_3
REMARK    2  A    between atoms: C_3  and  O_4
REMARK    3  A    between atoms: O_4  and  C_5
REMARK    4  A    between atoms: C_5  and  C_7
REMARK    5  A    between atoms: C_7  and  N_8
REMARK    6  A    between atoms: C_11  and  C_12
REMARK    7  A    between atoms: N_19  and  C_20
REMARK                            x       y       z     vdW  Elec       q    Type
REMARK                         _______ _______ _______ _____ _____    ______ ____
ROOT
ATOM      1  O   UNL     1       5.321   4.961  18.900  0.00  0.00    +0.000 OA
ENDROOT
BRANCH   1   2
ATOM      2  C   UNL     1       6.264   4.731  17.939  0.00  0.00    +0.000 C 
ATOM      3  O   UNL     1       6.034   4.184  16.867  0.00  0.00    +0.000 OA
BRANCH   2   4
ATOM      4  C   UNL     1       7.594   5.290  18.344  0.00  0.00    +0.000 C 
BRANCH   4   5
ATOM      5  N   UNL     1       7.649   6.710  18.132  0.00  0.00    +0.000 N 
ATOM      6  N   UNL     1       7.008   7.282  17.099  0.00  0.00    +0.000 NA
ATOM      7  N   UNL     1       7.363   8.556  17.148  0.00  0.00    +0.000 NA
ATOM      8  C   UNL     1       8.247   8.694  18.196  0.00  0.00    +0.000 A 
ATOM      9  N   UNL     1       8.484   7.522  18.818  0.00  0.00    +0.000 NA
BRANCH   8  10
ATOM     10  C   UNL     1       8.800   9.991  18.570  0.00  0.00    +0.000 A 
ATOM     11  C   UNL     1       8.652  11.085  17.702  0.00  0.00    +0.000 A 
ATOM     12  C   UNL     1       9.125  12.352  18.051  0.00  0.00    +0.000 A 
ATOM     13  C   UNL     1       9.763  12.541  19.272  0.00  0.00    +0.000 A 
ATOM     14  C   UNL     1       9.935  11.463  20.141  0.00  0.00    +0.000 A 
ATOM     15  C   UNL     1       9.458  10.192  19.794  0.00  0.00    +0.000 A 
ENDBRANCH   8  10
ENDBRANCH   4   5
ENDBRANCH   2   4
ENDBRANCH   1   2
BRANCH   1  16
ATOM     16  C   UNL     1       4.055   4.331  18.656  0.00  0.00    +0.000 C 
BRANCH  16  18
ATOM     17  O   UNL     1       1.976   4.695  19.803  0.00  0.00    +0.000 OA
ATOM     18  C   UNL     1       2.920   5.204  19.205  0.00  0.00    +0.000 C 
ATOM     19  N   UNL     1       3.074   6.554  18.948  0.00  0.00    +0.000 N 
ATOM     20  H   UNL     1       3.867   6.850  18.386  0.00  0.00    +0.000 HD
BRANCH  19  21
ATOM     21  C   UNL     1       2.223   7.600  19.382  0.00  0.00    +0.000 A 
ATOM     22  C   UNL     1       1.707   7.707  20.675  0.00  0.00    +0.000 A 
ATOM     23  C   UNL     1       0.880   8.778  21.007  0.00  0.00    +0.000 A 
ATOM     24  F   UNL     1       0.387   8.865  22.250  0.00  0.00    +0.000 F 
ATOM     25  C   UNL     1       0.552   9.760  20.079  0.00  0.00    +0.000 A 
ATOM     26  C   UNL     1       1.063   9.670  18.788  0.00  0.00    +0.000 A 
ATOM     27  C   UNL     1       1.890   8.599  18.452  0.00  0.00    +0.000 A 
ATOM     28  F   UNL     1       2.380   8.524  17.203  0.00  0.00    +0.000 F 
ENDBRANCH  19  21
ENDBRANCH  16  18
ENDBRANCH   1  16
TORSDOF 7
ENDMDL
