MODEL 1
REMARK VINA RESULT:      -7.9      0.000      0.000
REMARK  Name = 
REMARK  4 active torsions:
REMARK  status: ('A' for Active; 'I' for Inactive)
REMARK    1  A    between atoms: C_1  and  C_2
REMARK    2  A    between atoms: C_3  and  C_4
REMARK    3  A    between atoms: C_19  and  C_20
REMARK    4  A    between atoms: N_25  and  C_26
REMARK                            x       y       z     vdW  Elec       q    Type
REMARK                         _______ _______ _______ _____ _____    ______ ____
ROOT
ATOM      1  C   UNL     1       1.925   5.194  19.202  0.00  0.00    +0.000 C 
ATOM      2  C   UNL     1       2.548   4.214  18.186  0.00  0.00    +0.000 C 
ATOM      3  N   UNL     1       3.936   4.010  18.654  0.00  0.00    +0.000 N 
ATOM      4  C   UNL     1       4.938   4.182  17.705  0.00  0.00    +0.000 A 
ATOM      5  C   UNL     1       6.248   4.496  18.059  0.00  0.00    +0.000 A 
ATOM      6  C   UNL     1       7.203   4.731  17.072  0.00  0.00    +0.000 A 
ATOM      7  C   UNL     1       6.853   4.603  15.730  0.00  0.00    +0.000 A 
ATOM      8  C   UNL     1       7.785   4.810  14.697  0.00  0.00    +0.000 A 
ATOM      9  C   UNL     1       7.398   4.645  13.370  0.00  0.00    +0.000 A 
ATOM     10  C   UNL     1       6.086   4.289  13.091  0.00  0.00    +0.000 A 
ATOM     11  F   UNL     1       5.708   4.127  11.816  0.00  0.00    +0.000 F 
ATOM     12  C   UNL     1       5.160   4.096  14.110  0.00  0.00    +0.000 A 
ATOM     13  C   UNL     1       5.524   4.243  15.439  0.00  0.00    +0.000 A 
ATOM     14  N   UNL     1       4.608   4.041  16.402  0.00  0.00    +0.000 NA
ATOM     15  C   UNL     1       4.099   4.549  20.015  0.00  0.00    +0.000 C 
ATOM     16  C   UNL     1       2.687   4.873  20.492  0.00  0.00    +0.000 C 
ENDROOT
BRANCH   1  19
ATOM     17  C   UNL     1       1.199   7.934  20.891  0.00  0.00    +0.000 C 
ATOM     18  C   UNL     1       1.715   7.772  19.508  0.00  0.00    +0.000 A 
ATOM     19  C   UNL     1       2.054   6.638  18.782  0.00  0.00    +0.000 A 
ATOM     20  C   UNL     1       2.509   7.159  17.543  0.00  0.00    +0.000 A 
ATOM     21  N   UNL     1       2.439   8.486  17.479  0.00  0.00    +0.000 NA
ATOM     22  N   UNL     1       1.905   8.835  18.659  0.00  0.00    +0.000 N 
ATOM     23  C   UNL     1       1.540  10.214  18.883  0.00  0.00    +0.000 C 
ENDBRANCH   1  19
BRANCH  16  24
ATOM     24  C   UNL     1       2.036   3.739  21.264  0.00  0.00    +0.000 C 
ATOM     25  N   UNL     1       0.811   3.302  20.859  0.00  0.00    +0.000 N 
ATOM     26  O   UNL     1       2.545   3.265  22.277  0.00  0.00    +0.000 OA
ATOM     27  H   UNL     1       0.375   3.603  19.994  0.00  0.00    +0.000 HD
ATOM     28  H   UNL     1       0.384   2.543  21.376  0.00  0.00    +0.000 HD
ENDBRANCH  16  24
TORSDOF 2
ENDMDL
MODEL 2
REMARK VINA RESULT:      -6.9     10.076     12.205
REMARK  Name = 
REMARK  4 active torsions:
REMARK  status: ('A' for Active; 'I' for Inactive)
REMARK    1  A    between atoms: C_1  and  C_2
REMARK    2  A    between atoms: C_3  and  C_4
REMARK    3  A    between atoms: C_19  and  C_20
REMARK    4  A    between atoms: N_25  and  C_26
REMARK                            x       y       z     vdW  Elec       q    Type
REMARK                         _______ _______ _______ _____ _____    ______ ____
ROOT
ATOM      1  C   UNL     1       9.557  14.521  18.126  0.00  0.00    +0.000 C 
ATOM      2  C   UNL     1      10.145  14.552  19.552  0.00  0.00    +0.000 C 
ATOM      3  N   UNL     1      10.009  13.166  20.051  0.00  0.00    +0.000 N 
ATOM      4  C   UNL     1       9.411  13.015  21.297  0.00  0.00    +0.000 A 
ATOM      5  C   UNL     1       8.791  11.828  21.683  0.00  0.00    +0.000 A 
ATOM      6  C   UNL     1       8.140  11.746  22.912  0.00  0.00    +0.000 A 
ATOM      7  C   UNL     1       8.154  12.839  23.774  0.00  0.00    +0.000 A 
ATOM      8  C   UNL     1       7.529  12.800  25.034  0.00  0.00    +0.000 A 
ATOM      9  C   UNL     1       7.590  13.907  25.874  0.00  0.00    +0.000 A 
ATOM     10  C   UNL     1       8.262  15.043  25.443  0.00  0.00    +0.000 A 
ATOM     11  F   UNL     1       8.327  16.112  26.247  0.00  0.00    +0.000 F 
ATOM     12  C   UNL     1       8.870  15.089  24.193  0.00  0.00    +0.000 A 
ATOM     13  C   UNL     1       8.832  13.995  23.344  0.00  0.00    +0.000 A 
ATOM     14  N   UNL     1       9.438  14.067  22.145  0.00  0.00    +0.000 NA
ATOM     15  C   UNL     1       9.665  12.258  18.945  0.00  0.00    +0.000 C 
ATOM     16  C   UNL     1       9.840  13.084  17.675  0.00  0.00    +0.000 C 
ENDROOT
BRANCH   1  19
ATOM     17  C   UNL     1       8.058  17.317  19.031  0.00  0.00    +0.000 C 
ATOM     18  C   UNL     1       7.485  16.054  18.500  0.00  0.00    +0.000 A 
ATOM     19  C   UNL     1       8.090  14.875  18.087  0.00  0.00    +0.000 A 
ATOM     20  C   UNL     1       7.000  14.073  17.660  0.00  0.00    +0.000 A 
ATOM     21  N   UNL     1       5.821  14.672  17.813  0.00  0.00    +0.000 NA
ATOM     22  N   UNL     1       6.133  15.850  18.374  0.00  0.00    +0.000 N 
ATOM     23  C   UNL     1       5.068  16.714  18.826  0.00  0.00    +0.000 C 
ENDBRANCH   1  19
BRANCH  16  24
ATOM     24  C   UNL     1      11.219  12.951  17.053  0.00  0.00    +0.000 C 
ATOM     25  N   UNL     1      11.445  13.546  15.849  0.00  0.00    +0.000 N 
ATOM     26  O   UNL     1      12.101  12.265  17.566  0.00  0.00    +0.000 OA
ATOM     27  H   UNL     1      10.785  14.182  15.414  0.00  0.00    +0.000 HD
ATOM     28  H   UNL     1      12.368  13.458  15.442  0.00  0.00    +0.000 HD
ENDBRANCH  16  24
TORSDOF 2
ENDMDL
MODEL 3
REMARK VINA RESULT:      -6.8      9.075     11.764
REMARK  Name = 
REMARK  4 active torsions:
REMARK  status: ('A' for Active; 'I' for Inactive)
REMARK    1  A    between atoms: C_1  and  C_2
REMARK    2  A    between atoms: C_3  and  C_4
REMARK    3  A    between atoms: C_19  and  C_20
REMARK    4  A    between atoms: N_25  and  C_26
REMARK                            x       y       z     vdW  Elec       q    Type
REMARK                         _______ _______ _______ _____ _____    ______ ____
ROOT
ATOM      1  C   UNL     1       9.393  13.682  18.664  0.00  0.00    +0.000 C 
ATOM      2  C   UNL     1       8.103  13.735  17.819  0.00  0.00    +0.000 C 
ATOM      3  N   UNL     1       7.735  15.167  17.775  0.00  0.00    +0.000 N 
ATOM      4  C   UNL     1       6.423  15.477  18.116  0.00  0.00    +0.000 A 
ATOM      5  C   UNL     1       6.057  16.738  18.580  0.00  0.00    +0.000 A 
ATOM      6  C   UNL     1       4.745  16.984  18.980  0.00  0.00    +0.000 A 
ATOM      7  C   UNL     1       3.790  15.975  18.868  0.00  0.00    +0.000 A 
ATOM      8  C   UNL     1       2.449  16.178  19.239  0.00  0.00    +0.000 A 
ATOM      9  C   UNL     1       1.523  15.150  19.085  0.00  0.00    +0.000 A 
ATOM     10  C   UNL     1       1.949  13.931  18.577  0.00  0.00    +0.000 A 
ATOM     11  F   UNL     1       1.063  12.939  18.425  0.00  0.00    +0.000 F 
ATOM     12  C   UNL     1       3.277  13.724  18.221  0.00  0.00    +0.000 A 
ATOM     13  C   UNL     1       4.215  14.736  18.353  0.00  0.00    +0.000 A 
ATOM     14  N   UNL     1       5.490  14.508  17.992  0.00  0.00    +0.000 NA
ATOM     15  C   UNL     1       8.849  15.995  18.268  0.00  0.00    +0.000 C 
ATOM     16  C   UNL     1      10.035  15.044  18.386  0.00  0.00    +0.000 C 
ENDROOT
BRANCH   1  19
ATOM     17  C   UNL     1       9.381  10.843  20.347  0.00  0.00    +0.000 C 
ATOM     18  C   UNL     1       9.103  12.228  20.806  0.00  0.00    +0.000 A 
ATOM     19  C   UNL     1       9.126  13.441  20.131  0.00  0.00    +0.000 A 
ATOM     20  C   UNL     1       8.801  14.389  21.135  0.00  0.00    +0.000 A 
ATOM     21  N   UNL     1       8.567  13.832  22.321  0.00  0.00    +0.000 NA
ATOM     22  N   UNL     1       8.702  12.517  22.087  0.00  0.00    +0.000 N 
ATOM     23  C   UNL     1       8.366  11.581  23.134  0.00  0.00    +0.000 C 
ENDBRANCH   1  19
BRANCH  16  24
ATOM     24  C   UNL     1      10.910  15.013  17.144  0.00  0.00    +0.000 C 
ATOM     25  N   UNL     1      10.781  16.021  16.238  0.00  0.00    +0.000 N 
ATOM     26  O   UNL     1      11.665  14.074  16.905  0.00  0.00    +0.000 OA
ATOM     27  H   UNL     1      10.230  16.855  16.413  0.00  0.00    +0.000 HD
ATOM     28  H   UNL     1      11.370  15.996  15.414  0.00  0.00    +0.000 HD
ENDBRANCH  16  24
TORSDOF 2
ENDMDL
MODEL 4
REMARK VINA RESULT:      -6.7      5.305      8.461
REMARK  Name = 
REMARK  4 active torsions:
REMARK  status: ('A' for Active; 'I' for Inactive)
REMARK    1  A    between atoms: C_1  and  C_2
REMARK    2  A    between atoms: C_3  and  C_4
REMARK    3  A    between atoms: C_19  and  C_20
REMARK    4  A    between atoms: N_25  and  C_26
REMARK                            x       y       z     vdW  Elec       q    Type
REMARK                         _______ _______ _______ _____ _____    ______ ____
ROOT
ATOM      1  C   UNL     1      -1.536  12.812  20.105  0.00  0.00    +0.000 C 
ATOM      2  C   UNL     1      -0.415  11.940  20.709  0.00  0.00    +0.000 C 
ATOM      3  N   UNL     1       0.680  11.984  19.715  0.00  0.00    +0.000 N 
ATOM      4  C   UNL     1       1.205  10.758  19.321  0.00  0.00    +0.000 A 
ATOM      5  C   UNL     1       1.861  10.590  18.104  0.00  0.00    +0.000 A 
ATOM      6  C   UNL     1       2.307   9.327  17.718  0.00  0.00    +0.000 A 
ATOM      7  C   UNL     1       2.137   8.244  18.577  0.00  0.00    +0.000 A 
ATOM      8  C   UNL     1       2.587   6.954  18.243  0.00  0.00    +0.000 A 
ATOM      9  C   UNL     1       2.418   5.906  19.142  0.00  0.00    +0.000 A 
ATOM     10  C   UNL     1       1.793   6.154  20.356  0.00  0.00    +0.000 A 
ATOM     11  F   UNL     1       1.631   5.150  21.228  0.00  0.00    +0.000 F 
ATOM     12  C   UNL     1       1.337   7.425  20.684  0.00  0.00    +0.000 A 
ATOM     13  C   UNL     1       1.503   8.488  19.809  0.00  0.00    +0.000 A 
ATOM     14  N   UNL     1       1.058   9.708  20.159  0.00  0.00    +0.000 NA
ATOM     15  C   UNL     1       0.421  13.038  18.719  0.00  0.00    +0.000 C 
ATOM     16  C   UNL     1      -0.757  13.834  19.270  0.00  0.00    +0.000 C 
ENDROOT
BRANCH   1  19
ATOM     17  C   UNL     1      -4.821  13.085  19.964  0.00  0.00    +0.000 C 
ATOM     18  C   UNL     1      -3.910  12.138  19.273  0.00  0.00    +0.000 A 
ATOM     19  C   UNL     1      -2.528  12.016  19.291  0.00  0.00    +0.000 A 
ATOM     20  C   UNL     1      -2.275  10.942  18.398  0.00  0.00    +0.000 A 
ATOM     21  N   UNL     1      -3.387  10.418  17.888  0.00  0.00    +0.000 NA
ATOM     22  N   UNL     1      -4.368  11.121  18.472  0.00  0.00    +0.000 N 
ATOM     23  C   UNL     1      -5.739  10.718  18.263  0.00  0.00    +0.000 C 
ENDBRANCH   1  19
BRANCH  16  24
ATOM     24  C   UNL     1      -0.339  15.036  20.098  0.00  0.00    +0.000 C 
ATOM     25  N   UNL     1      -1.232  15.549  20.990  0.00  0.00    +0.000 N 
ATOM     26  O   UNL     1       0.742  15.597  19.932  0.00  0.00    +0.000 OA
ATOM     27  H   UNL     1      -2.106  15.089  21.223  0.00  0.00    +0.000 HD
ATOM     28  H   UNL     1      -0.945  16.347  21.542  0.00  0.00    +0.000 HD
ENDBRANCH  16  24
TORSDOF 2
ENDMDL
MODEL 5
REMARK VINA RESULT:      -6.6      4.980      8.410
REMARK  Name = 
REMARK  4 active torsions:
REMARK  status: ('A' for Active; 'I' for Inactive)
REMARK    1  A    between atoms: C_1  and  C_2
REMARK    2  A    between atoms: C_3  and  C_4
REMARK    3  A    between atoms: C_19  and  C_20
REMARK    4  A    between atoms: N_25  and  C_26
REMARK                            x       y       z     vdW  Elec       q    Type
REMARK                         _______ _______ _______ _____ _____    ______ ____
ROOT
ATOM      1  C   UNL     1      -0.385  13.754  20.268  0.00  0.00    +0.000 C 
ATOM      2  C   UNL     1      -0.436  12.513  19.352  0.00  0.00    +0.000 C 
ATOM      3  N   UNL     1      -0.885  11.409  20.229  0.00  0.00    +0.000 N 
ATOM      4  C   UNL     1      -0.116  10.251  20.205  0.00  0.00    +0.000 A 
ATOM      5  C   UNL     1      -0.103   9.348  21.265  0.00  0.00    +0.000 A 
ATOM      6  C   UNL     1       0.738   8.238  21.230  0.00  0.00    +0.000 A 
ATOM      7  C   UNL     1       1.531   8.010  20.108  0.00  0.00    +0.000 A 
ATOM      8  C   UNL     1       2.382   6.894  20.014  0.00  0.00    +0.000 A 
ATOM      9  C   UNL     1       3.136   6.691  18.863  0.00  0.00    +0.000 A 
ATOM     10  C   UNL     1       3.043   7.608  17.826  0.00  0.00    +0.000 A 
ATOM     11  F   UNL     1       3.765   7.418  16.714  0.00  0.00    +0.000 F 
ATOM     12  C   UNL     1       2.212   8.719  17.921  0.00  0.00    +0.000 A 
ATOM     13  C   UNL     1       1.442   8.936  19.053  0.00  0.00    +0.000 A 
ATOM     14  N   UNL     1       0.641  10.016  19.110  0.00  0.00    +0.000 NA
ATOM     15  C   UNL     1      -1.386  11.945  21.506  0.00  0.00    +0.000 C 
ATOM     16  C   UNL     1      -1.475  13.454  21.303  0.00  0.00    +0.000 C 
ENDROOT
BRANCH   1  19
ATOM     17  C   UNL     1       0.612  16.129  22.329  0.00  0.00    +0.000 C 
ATOM     18  C   UNL     1       1.371  15.001  21.732  0.00  0.00    +0.000 A 
ATOM     19  C   UNL     1       0.974  13.974  20.887  0.00  0.00    +0.000 A 
ATOM     20  C   UNL     1       2.157  13.210  20.712  0.00  0.00    +0.000 A 
ATOM     21  N   UNL     1       3.204  13.716  21.358  0.00  0.00    +0.000 NA
ATOM     22  N   UNL     1       2.720  14.831  21.926  0.00  0.00    +0.000 N 
ATOM     23  C   UNL     1       3.631  15.730  22.595  0.00  0.00    +0.000 C 
ENDBRANCH   1  19
BRANCH  16  24
ATOM     24  C   UNL     1      -2.842  13.920  20.833  0.00  0.00    +0.000 C 
ATOM     25  N   UNL     1      -2.978  15.212  20.422  0.00  0.00    +0.000 N 
ATOM     26  O   UNL     1      -3.831  13.193  20.886  0.00  0.00    +0.000 OA
ATOM     27  H   UNL     1      -2.188  15.835  20.288  0.00  0.00    +0.000 HD
ATOM     28  H   UNL     1      -3.890  15.515  20.106  0.00  0.00    +0.000 HD
ENDBRANCH  16  24
TORSDOF 2
ENDMDL
MODEL 6
REMARK VINA RESULT:      -6.6      4.982      7.917
REMARK  Name = 
REMARK  4 active torsions:
REMARK  status: ('A' for Active; 'I' for Inactive)
REMARK    1  A    between atoms: C_1  and  C_2
REMARK    2  A    between atoms: C_3  and  C_4
REMARK    3  A    between atoms: C_19  and  C_20
REMARK    4  A    between atoms: N_25  and  C_26
REMARK                            x       y       z     vdW  Elec       q    Type
REMARK                         _______ _______ _______ _____ _____    ______ ____
ROOT
ATOM      1  C   UNL     1      -0.855  12.411  19.880  0.00  0.00    +0.000 C 
ATOM      2  C   UNL     1       0.176  11.441  20.496  0.00  0.00    +0.000 C 
ATOM      3  N   UNL     1       1.251  11.336  19.485  0.00  0.00    +0.000 N 
ATOM      4  C   UNL     1       1.633  10.049  19.123  0.00  0.00    +0.000 A 
ATOM      5  C   UNL     1       2.246   9.773  17.903  0.00  0.00    +0.000 A 
ATOM      6  C   UNL     1       2.545   8.458  17.551  0.00  0.00    +0.000 A 
ATOM      7  C   UNL     1       2.274   7.426  18.446  0.00  0.00    +0.000 A 
ATOM      8  C   UNL     1       2.576   6.085  18.147  0.00  0.00    +0.000 A 
ATOM      9  C   UNL     1       2.312   5.090  19.082  0.00  0.00    +0.000 A 
ATOM     10  C   UNL     1       1.739   5.441  20.297  0.00  0.00    +0.000 A 
ATOM     11  F   UNL     1       1.484   4.487  21.202  0.00  0.00    +0.000 F 
ATOM     12  C   UNL     1       1.428   6.764  20.590  0.00  0.00    +0.000 A 
ATOM     13  C   UNL     1       1.693   7.775  19.679  0.00  0.00    +0.000 A 
ATOM     14  N   UNL     1       1.389   9.046  19.996  0.00  0.00    +0.000 NA
ATOM     15  C   UNL     1       1.091  12.381  18.460  0.00  0.00    +0.000 C 
ATOM     16  C   UNL     1       0.016  13.316  19.002  0.00  0.00    +0.000 C 
ENDROOT
BRANCH   1  19
ATOM     17  C   UNL     1      -4.092  13.041  19.772  0.00  0.00    +0.000 C 
ATOM     18  C   UNL     1      -3.302  11.976  19.103  0.00  0.00    +0.000 A 
ATOM     19  C   UNL     1      -1.941  11.703  19.107  0.00  0.00    +0.000 A 
ATOM     20  C   UNL     1      -1.823  10.579  18.249  0.00  0.00    +0.000 A 
ATOM     21  N   UNL     1      -2.993  10.165  17.770  0.00  0.00    +0.000 NA
ATOM     22  N   UNL     1      -3.882  10.991  18.343  0.00  0.00    +0.000 N 
ATOM     23  C   UNL     1      -5.292  10.735  18.164  0.00  0.00    +0.000 C 
ENDBRANCH   1  19
BRANCH  16  24
ATOM     24  C   UNL     1       0.576  14.491  19.785  0.00  0.00    +0.000 C 
ATOM     25  N   UNL     1       1.815  14.954  19.457  0.00  0.00    +0.000 N 
ATOM     26  O   UNL     1      -0.019  14.978  20.743  0.00  0.00    +0.000 OA
ATOM     27  H   UNL     1       2.321  14.642  18.635  0.00  0.00    +0.000 HD
ATOM     28  H   UNL     1       2.181  15.740  19.980  0.00  0.00    +0.000 HD
ENDBRANCH  16  24
TORSDOF 2
ENDMDL
MODEL 7
REMARK VINA RESULT:      -6.5      5.121      8.508
REMARK  Name = 
REMARK  4 active torsions:
REMARK  status: ('A' for Active; 'I' for Inactive)
REMARK    1  A    between atoms: C_1  and  C_2
REMARK    2  A    between atoms: C_3  and  C_4
REMARK    3  A    between atoms: C_19  and  C_20
REMARK    4  A    between atoms: N_25  and  C_26
REMARK                            x       y       z     vdW  Elec       q    Type
REMARK                         _______ _______ _______ _____ _____    ______ ____
ROOT
ATOM      1  C   UNL     1      -0.791  13.854  19.990  0.00  0.00    +0.000 C 
ATOM      2  C   UNL     1      -0.788  12.557  19.153  0.00  0.00    +0.000 C 
ATOM      3  N   UNL     1      -1.172  11.490  20.103  0.00  0.00    +0.000 N 
ATOM      4  C   UNL     1      -0.345  10.372  20.141  0.00  0.00    +0.000 A 
ATOM      5  C   UNL     1      -0.276   9.540  21.256  0.00  0.00    +0.000 A 
ATOM      6  C   UNL     1       0.620   8.473  21.279  0.00  0.00    +0.000 A 
ATOM      7  C   UNL     1       1.412   8.214  20.162  0.00  0.00    +0.000 A 
ATOM      8  C   UNL     1       2.317   7.138  20.127  0.00  0.00    +0.000 A 
ATOM      9  C   UNL     1       3.069   6.901  18.981  0.00  0.00    +0.000 A 
ATOM     10  C   UNL     1       2.919   7.746  17.890  0.00  0.00    +0.000 A 
ATOM     11  F   UNL     1       3.638   7.522  16.783  0.00  0.00    +0.000 F 
ATOM     12  C   UNL     1       2.034   8.817  17.927  0.00  0.00    +0.000 A 
ATOM     13  C   UNL     1       1.265   9.067  19.053  0.00  0.00    +0.000 A 
ATOM     14  N   UNL     1       0.411  10.106  19.054  0.00  0.00    +0.000 NA
ATOM     15  C   UNL     1      -1.686  12.079  21.351  0.00  0.00    +0.000 C 
ATOM     16  C   UNL     1      -1.853  13.565  21.056  0.00  0.00    +0.000 C 
ENDROOT
BRANCH   1  19
ATOM     17  C   UNL     1       2.116  14.194  18.467  0.00  0.00    +0.000 C 
ATOM     18  C   UNL     1       1.775  14.292  19.909  0.00  0.00    +0.000 A 
ATOM     19  C   UNL     1       0.562  14.180  20.575  0.00  0.00    +0.000 A 
ATOM     20  C   UNL     1       0.904  14.406  21.933  0.00  0.00    +0.000 A 
ATOM     21  N   UNL     1       2.206  14.610  22.115  0.00  0.00    +0.000 NA
ATOM     22  N   UNL     1       2.723  14.483  20.884  0.00  0.00    +0.000 N 
ATOM     23  C   UNL     1       4.159  14.495  20.722  0.00  0.00    +0.000 C 
ENDBRANCH   1  19
BRANCH  16  24
ATOM     24  C   UNL     1      -3.247  13.933  20.576  0.00  0.00    +0.000 C 
ATOM     25  N   UNL     1      -3.542  15.250  20.397  0.00  0.00    +0.000 N 
ATOM     26  O   UNL     1      -4.126  13.087  20.421  0.00  0.00    +0.000 OA
ATOM     27  H   UNL     1      -2.843  15.984  20.438  0.00  0.00    +0.000 HD
ATOM     28  H   UNL     1      -4.472  15.488  20.073  0.00  0.00    +0.000 HD
ENDBRANCH  16  24
TORSDOF 2
ENDMDL
MODEL 8
REMARK VINA RESULT:      -6.4      7.617     12.035
REMARK  Name = 
REMARK  4 active torsions:
REMARK  status: ('A' for Active; 'I' for Inactive)
REMARK    1  A    between atoms: C_1  and  C_2
REMARK    2  A    between atoms: C_3  and  C_4
REMARK    3  A    between atoms: C_19  and  C_20
REMARK    4  A    between atoms: N_25  and  C_26
REMARK                            x       y       z     vdW  Elec       q    Type
REMARK                         _______ _______ _______ _____ _____    ______ ____
ROOT
ATOM      1  C   UNL     1      -0.075  11.068  20.819  0.00  0.00    +0.000 C 
ATOM      2  C   UNL     1      -0.087  12.263  21.795  0.00  0.00    +0.000 C 
ATOM      3  N   UNL     1      -1.004  11.858  22.884  0.00  0.00    +0.000 N 
ATOM      4  C   UNL     1      -2.005  12.764  23.217  0.00  0.00    +0.000 A 
ATOM      5  C   UNL     1      -3.186  12.367  23.839  0.00  0.00    +0.000 A 
ATOM      6  C   UNL     1      -4.193  13.297  24.089  0.00  0.00    +0.000 A 
ATOM      7  C   UNL     1      -3.993  14.635  23.756  0.00  0.00    +0.000 A 
ATOM      8  C   UNL     1      -4.970  15.616  24.005  0.00  0.00    +0.000 A 
ATOM      9  C   UNL     1      -4.717  16.945  23.680  0.00  0.00    +0.000 A 
ATOM     10  C   UNL     1      -3.501  17.277  23.100  0.00  0.00    +0.000 A 
ATOM     11  F   UNL     1      -3.250  18.555  22.786  0.00  0.00    +0.000 F 
ATOM     12  C   UNL     1      -2.538  16.307  22.841  0.00  0.00    +0.000 A 
ATOM     13  C   UNL     1      -2.762  14.979  23.167  0.00  0.00    +0.000 A 
ATOM     14  N   UNL     1      -1.808  14.066  22.913  0.00  0.00    +0.000 NA
ATOM     15  C   UNL     1      -1.303  10.419  22.788  0.00  0.00    +0.000 C 
ATOM     16  C   UNL     1      -0.333   9.874  21.745  0.00  0.00    +0.000 C 
ENDROOT
BRANCH   1  19
ATOM     17  C   UNL     1      -0.157   9.609  17.861  0.00  0.00    +0.000 C 
ATOM     18  C   UNL     1      -1.093  10.587  18.471  0.00  0.00    +0.000 A 
ATOM     19  C   UNL     1      -1.100  11.196  19.718  0.00  0.00    +0.000 A 
ATOM     20  C   UNL     1      -2.273  11.995  19.694  0.00  0.00    +0.000 A 
ATOM     21  N   UNL     1      -2.928  11.922  18.538  0.00  0.00    +0.000 NA
ATOM     22  N   UNL     1      -2.168  11.107  17.792  0.00  0.00    +0.000 N 
ATOM     23  C   UNL     1      -2.502  10.917  16.399  0.00  0.00    +0.000 C 
ENDBRANCH   1  19
BRANCH  16  24
ATOM     24  C   UNL     1       0.955   9.334  22.341  0.00  0.00    +0.000 C 
ATOM     25  N   UNL     1       1.703   8.476  21.593  0.00  0.00    +0.000 N 
ATOM     26  O   UNL     1       1.296   9.589  23.494  0.00  0.00    +0.000 OA
ATOM     27  H   UNL     1       1.513   8.286  20.614  0.00  0.00    +0.000 HD
ATOM     28  H   UNL     1       2.563   8.123  21.994  0.00  0.00    +0.000 HD
ENDBRANCH  16  24
TORSDOF 2
ENDMDL
MODEL 9
REMARK VINA RESULT:      -6.3      7.018     10.244
REMARK  Name = 
REMARK  4 active torsions:
REMARK  status: ('A' for Active; 'I' for Inactive)
REMARK    1  A    between atoms: C_1  and  C_2
REMARK    2  A    between atoms: C_3  and  C_4
REMARK    3  A    between atoms: C_19  and  C_20
REMARK    4  A    between atoms: N_25  and  C_26
REMARK                            x       y       z     vdW  Elec       q    Type
REMARK                         _______ _______ _______ _____ _____    ______ ____
ROOT
ATOM      1  C   UNL     1      -0.192  10.463  19.019  0.00  0.00    +0.000 C 
ATOM      2  C   UNL     1       0.865  11.579  18.881  0.00  0.00    +0.000 C 
ATOM      3  N   UNL     1       1.023  12.125  20.247  0.00  0.00    +0.000 N 
ATOM      4  C   UNL     1       0.925  13.506  20.373  0.00  0.00    +0.000 A 
ATOM      5  C   UNL     1       0.577  14.117  21.576  0.00  0.00    +0.000 A 
ATOM      6  C   UNL     1       0.419  15.500  21.639  0.00  0.00    +0.000 A 
ATOM      7  C   UNL     1       0.659  16.273  20.506  0.00  0.00    +0.000 A 
ATOM      8  C   UNL     1       0.533  17.674  20.522  0.00  0.00    +0.000 A 
ATOM      9  C   UNL     1       0.807  18.409  19.373  0.00  0.00    +0.000 A 
ATOM     10  C   UNL     1       1.191  17.739  18.220  0.00  0.00    +0.000 A 
ATOM     11  F   UNL     1       1.459  18.441  17.111  0.00  0.00    +0.000 F 
ATOM     12  C   UNL     1       1.304  16.353  18.198  0.00  0.00    +0.000 A 
ATOM     13  C   UNL     1       1.047  15.600  19.333  0.00  0.00    +0.000 A 
ATOM     14  N   UNL     1       1.175  14.262  19.281  0.00  0.00    +0.000 NA
ATOM     15  C   UNL     1       0.375  11.239  21.228  0.00  0.00    +0.000 C 
ATOM     16  C   UNL     1       0.019   9.973  20.455  0.00  0.00    +0.000 C 
ENDROOT
BRANCH   1  19
ATOM     17  C   UNL     1      -2.275   9.635  16.597  0.00  0.00    +0.000 C 
ATOM     18  C   UNL     1      -2.442  10.600  17.714  0.00  0.00    +0.000 A 
ATOM     19  C   UNL     1      -1.598  10.949  18.759  0.00  0.00    +0.000 A 
ATOM     20  C   UNL     1      -2.354  11.897  19.497  0.00  0.00    +0.000 A 
ATOM     21  N   UNL     1      -3.545  12.145  18.958  0.00  0.00    +0.000 NA
ATOM     22  N   UNL     1      -3.557  11.390  17.849  0.00  0.00    +0.000 N 
ATOM     23  C   UNL     1      -4.656  11.524  16.922  0.00  0.00    +0.000 C 
ENDBRANCH   1  19
BRANCH  16  24
ATOM     24  C   UNL     1       1.089   8.898  20.532  0.00  0.00    +0.000 C 
ATOM     25  N   UNL     1       1.501   8.484  21.763  0.00  0.00    +0.000 N 
ATOM     26  O   UNL     1       1.637   8.453  19.527  0.00  0.00    +0.000 OA
ATOM     27  H   UNL     1       1.038   8.760  22.623  0.00  0.00    +0.000 HD
ATOM     28  H   UNL     1       2.211   7.764  21.808  0.00  0.00    +0.000 HD
ENDBRANCH  16  24
TORSDOF 2
ENDMDL
