MODEL 1
REMARK VINA RESULT:      -8.8      0.000      0.000
REMARK  Name = 
REMARK  2 active torsions:
REMARK  status: ('A' for Active; 'I' for Inactive)
REMARK    1  A    between atoms: N_3  and  C_4
REMARK    2  A    between atoms: C_15  and  C_17
REMARK                            x       y       z     vdW  Elec       q    Type
REMARK                         _______ _______ _______ _____ _____    ______ ____
ROOT
ATOM      1  O   UNL     1      -0.735  10.368  23.454  0.00  0.00    +0.000 OA
ATOM      2  C   UNL     1      -0.822  10.795  22.305  0.00  0.00    +0.000 C 
ATOM      3  N   UNL     1      -1.379  12.012  21.971  0.00  0.00    +0.000 N 
ATOM      4  N   UNL     1      -0.385  10.029  21.237  0.00  0.00    +0.000 N 
ATOM      5  C   UNL     1      -0.032   8.620  21.482  0.00  0.00    +0.000 C 
ATOM      6  C   UNL     1       1.404   8.300  21.039  0.00  0.00    +0.000 C 
ATOM      7  N   UNL     1       1.597   8.708  19.645  0.00  0.00    +0.000 N 
ATOM      8  C   UNL     1       2.112   7.973  18.583  0.00  0.00    +0.000 C 
ATOM      9  O   UNL     1       2.232   8.522  17.483  0.00  0.00    +0.000 OA
ATOM     10  C   UNL     1       1.302  10.132  19.423  0.00  0.00    +0.000 C 
ATOM     11  C   UNL     1      -0.122  10.500  19.869  0.00  0.00    +0.000 C 
ATOM     12  H   UNL     1      -1.747  12.078  21.035  0.00  0.00    +0.000 HD
ENDROOT
BRANCH   8  13
ATOM     13  C   UNL     1       2.583   6.603  18.698  0.00  0.00    +0.000 A 
ATOM     14  C   UNL     1       3.499   5.880  19.453  0.00  0.00    +0.000 A 
ATOM     15  C   UNL     1       3.448   4.505  19.048  0.00  0.00    +0.000 A 
ATOM     16  C   UNL     1       4.127   3.331  19.427  0.00  0.00    +0.000 A 
ATOM     17  C   UNL     1       3.810   2.131  18.779  0.00  0.00    +0.000 A 
ATOM     18  F   UNL     1       4.456   1.009  19.127  0.00  0.00    +0.000 F 
ATOM     19  C   UNL     1       2.842   2.068  17.786  0.00  0.00    +0.000 A 
ATOM     20  C   UNL     1       2.142   3.215  17.410  0.00  0.00    +0.000 A 
ATOM     21  C   UNL     1       2.471   4.409  18.062  0.00  0.00    +0.000 A 
ATOM     22  N   UNL     1       1.940   5.660  17.914  0.00  0.00    +0.000 N 
ATOM     23  H   UNL     1       1.169   5.900  17.304  0.00  0.00    +0.000 HD
ENDBRANCH   8  13
BRANCH   3  24
ATOM     24  C   UNL     1      -1.858  12.977  22.890  0.00  0.00    +0.000 A 
ATOM     25  C   UNL     1      -1.074  14.036  23.363  0.00  0.00    +0.000 A 
ATOM     26  C   UNL     1      -1.569  14.916  24.329  0.00  0.00    +0.000 A 
ATOM     27  C   UNL     1      -2.860  14.751  24.806  0.00  0.00    +0.000 A 
ATOM     28  F   UNL     1      -3.327  15.578  25.749  0.00  0.00    +0.000 F 
ATOM     29  C   UNL     1      -3.674  13.736  24.317  0.00  0.00    +0.000 A 
ATOM     30  C   UNL     1      -3.177  12.853  23.351  0.00  0.00    +0.000 A 
ENDBRANCH   3  24
TORSDOF 2
ENDMDL
MODEL 2
REMARK VINA RESULT:      -8.4      1.046      1.196
REMARK  Name = 
REMARK  2 active torsions:
REMARK  status: ('A' for Active; 'I' for Inactive)
REMARK    1  A    between atoms: N_3  and  C_4
REMARK    2  A    between atoms: C_15  and  C_17
REMARK                            x       y       z     vdW  Elec       q    Type
REMARK                         _______ _______ _______ _____ _____    ______ ____
ROOT
ATOM      1  O   UNL     1      -0.826  10.732  23.556  0.00  0.00    +0.000 OA
ATOM      2  C   UNL     1      -0.997  11.026  22.375  0.00  0.00    +0.000 C 
ATOM      3  N   UNL     1      -1.665  12.154  21.946  0.00  0.00    +0.000 N 
ATOM      4  N   UNL     1      -0.545  10.185  21.371  0.00  0.00    +0.000 N 
ATOM      5  C   UNL     1      -0.069   8.841  21.742  0.00  0.00    +0.000 C 
ATOM      6  C   UNL     1       1.369   8.587  21.262  0.00  0.00    +0.000 C 
ATOM      7  N   UNL     1       1.468   8.856  19.825  0.00  0.00    +0.000 N 
ATOM      8  C   UNL     1       1.996   8.054  18.819  0.00  0.00    +0.000 C 
ATOM      9  O   UNL     1       2.023   8.490  17.663  0.00  0.00    +0.000 OA
ATOM     10  C   UNL     1       1.049  10.222  19.472  0.00  0.00    +0.000 C 
ATOM     11  C   UNL     1      -0.380  10.525  19.949  0.00  0.00    +0.000 C 
ATOM     12  H   UNL     1      -2.077  12.090  21.028  0.00  0.00    +0.000 HD
ENDROOT
BRANCH   8  13
ATOM     13  C   UNL     1       2.581   6.744  19.051  0.00  0.00    +0.000 A 
ATOM     14  C   UNL     1       3.665   5.998  18.605  0.00  0.00    +0.000 A 
ATOM     15  C   UNL     1       3.666   4.735  19.284  0.00  0.00    +0.000 A 
ATOM     16  C   UNL     1       4.482   3.586  19.247  0.00  0.00    +0.000 A 
ATOM     17  C   UNL     1       4.157   2.504  20.072  0.00  0.00    +0.000 A 
ATOM     18  F   UNL     1       4.922   1.404  20.039  0.00  0.00    +0.000 F 
ATOM     19  C   UNL     1       3.062   2.535  20.926  0.00  0.00    +0.000 A 
ATOM     20  C   UNL     1       2.254   3.670  20.995  0.00  0.00    +0.000 A 
ATOM     21  C   UNL     1       2.587   4.745  20.162  0.00  0.00    +0.000 A 
ATOM     22  N   UNL     1       1.994   5.970  20.038  0.00  0.00    +0.000 N 
ATOM     23  H   UNL     1       1.210   6.299  20.588  0.00  0.00    +0.000 HD
ENDBRANCH   8  13
BRANCH   3  24
ATOM     24  C   UNL     1      -2.181  13.172  22.783  0.00  0.00    +0.000 A 
ATOM     25  C   UNL     1      -1.372  14.122  23.417  0.00  0.00    +0.000 A 
ATOM     26  C   UNL     1      -1.924  15.058  24.297  0.00  0.00    +0.000 A 
ATOM     27  C   UNL     1      -3.291  15.059  24.524  0.00  0.00    +0.000 A 
ATOM     28  F   UNL     1      -3.818  15.940  25.384  0.00  0.00    +0.000 F 
ATOM     29  C   UNL     1      -4.121  14.157  23.869  0.00  0.00    +0.000 A 
ATOM     30  C   UNL     1      -3.568  13.218  22.990  0.00  0.00    +0.000 A 
ENDBRANCH   3  24
TORSDOF 2
ENDMDL
MODEL 3
REMARK VINA RESULT:      -8.4      1.546     10.556
REMARK  Name = 
REMARK  2 active torsions:
REMARK  status: ('A' for Active; 'I' for Inactive)
REMARK    1  A    between atoms: N_3  and  C_4
REMARK    2  A    between atoms: C_15  and  C_17
REMARK                            x       y       z     vdW  Elec       q    Type
REMARK                         _______ _______ _______ _____ _____    ______ ____
ROOT
ATOM      1  O   UNL     1       1.641   5.919  20.944  0.00  0.00    +0.000 OA
ATOM      2  C   UNL     1       1.984   6.622  19.996  0.00  0.00    +0.000 C 
ATOM      3  N   UNL     1       2.637   6.150  18.877  0.00  0.00    +0.000 N 
ATOM      4  N   UNL     1       1.759   7.989  20.020  0.00  0.00    +0.000 N 
ATOM      5  C   UNL     1       1.318   8.606  21.283  0.00  0.00    +0.000 C 
ATOM      6  C   UNL     1      -0.001   9.376  21.118  0.00  0.00    +0.000 C 
ATOM      7  N   UNL     1       0.118  10.337  20.019  0.00  0.00    +0.000 N 
ATOM      8  C   UNL     1      -0.183  11.695  20.008  0.00  0.00    +0.000 C 
ATOM      9  O   UNL     1      -0.049  12.326  18.954  0.00  0.00    +0.000 OA
ATOM     10  C   UNL     1       0.499   9.703  18.746  0.00  0.00    +0.000 C 
ATOM     11  C   UNL     1       1.807   8.906  18.872  0.00  0.00    +0.000 C 
ATOM     12  H   UNL     1       3.198   6.828  18.384  0.00  0.00    +0.000 HD
ENDROOT
BRANCH   8  13
ATOM     13  C   UNL     1      -0.711  12.417  21.153  0.00  0.00    +0.000 A 
ATOM     14  C   UNL     1      -0.291  13.395  22.047  0.00  0.00    +0.000 A 
ATOM     15  C   UNL     1      -1.360  13.672  22.963  0.00  0.00    +0.000 A 
ATOM     16  C   UNL     1      -1.526  14.531  24.067  0.00  0.00    +0.000 A 
ATOM     17  C   UNL     1      -2.746  14.520  24.751  0.00  0.00    +0.000 A 
ATOM     18  F   UNL     1      -2.912  15.329  25.806  0.00  0.00    +0.000 F 
ATOM     19  C   UNL     1      -3.795  13.695  24.366  0.00  0.00    +0.000 A 
ATOM     20  C   UNL     1      -3.660  12.852  23.263  0.00  0.00    +0.000 A 
ATOM     21  C   UNL     1      -2.432  12.869  22.589  0.00  0.00    +0.000 A 
ATOM     22  N   UNL     1      -2.035  12.175  21.482  0.00  0.00    +0.000 N 
ATOM     23  H   UNL     1      -2.617  11.544  20.945  0.00  0.00    +0.000 HD
ENDBRANCH   8  13
BRANCH   3  24
ATOM     24  C   UNL     1       2.941   4.792  18.614  0.00  0.00    +0.000 A 
ATOM     25  C   UNL     1       2.179   3.992  17.756  0.00  0.00    +0.000 A 
ATOM     26  C   UNL     1       2.475   2.636  17.591  0.00  0.00    +0.000 A 
ATOM     27  C   UNL     1       3.551   2.084  18.269  0.00  0.00    +0.000 A 
ATOM     28  F   UNL     1       3.822   0.780  18.130  0.00  0.00    +0.000 F 
ATOM     29  C   UNL     1       4.352   2.869  19.089  0.00  0.00    +0.000 A 
ATOM     30  C   UNL     1       4.054   4.227  19.255  0.00  0.00    +0.000 A 
ENDBRANCH   3  24
TORSDOF 2
ENDMDL
MODEL 4
REMARK VINA RESULT:      -8.3      0.741      1.537
REMARK  Name = 
REMARK  2 active torsions:
REMARK  status: ('A' for Active; 'I' for Inactive)
REMARK    1  A    between atoms: N_3  and  C_4
REMARK    2  A    between atoms: C_15  and  C_17
REMARK                            x       y       z     vdW  Elec       q    Type
REMARK                         _______ _______ _______ _____ _____    ______ ____
ROOT
ATOM      1  O   UNL     1      -0.831  10.500  23.384  0.00  0.00    +0.000 OA
ATOM      2  C   UNL     1      -0.861  11.036  22.279  0.00  0.00    +0.000 C 
ATOM      3  N   UNL     1      -1.314  12.319  22.051  0.00  0.00    +0.000 N 
ATOM      4  N   UNL     1      -0.464  10.338  21.150  0.00  0.00    +0.000 N 
ATOM      5  C   UNL     1      -0.228   8.888  21.268  0.00  0.00    +0.000 C 
ATOM      6  C   UNL     1       1.187   8.496  20.816  0.00  0.00    +0.000 C 
ATOM      7  N   UNL     1       1.440   9.012  19.468  0.00  0.00    +0.000 N 
ATOM      8  C   UNL     1       1.917   8.339  18.349  0.00  0.00    +0.000 C 
ATOM      9  O   UNL     1       2.101   8.975  17.306  0.00  0.00    +0.000 OA
ATOM     10  C   UNL     1       1.262  10.470  19.374  0.00  0.00    +0.000 C 
ATOM     11  C   UNL     1      -0.138  10.908  19.834  0.00  0.00    +0.000 C 
ATOM     12  H   UNL     1      -1.657  12.499  21.121  0.00  0.00    +0.000 HD
ENDROOT
BRANCH   8  13
ATOM     13  C   UNL     1       2.276   6.931  18.343  0.00  0.00    +0.000 A 
ATOM     14  C   UNL     1       1.757   5.729  17.876  0.00  0.00    +0.000 A 
ATOM     15  C   UNL     1       2.667   4.672  18.212  0.00  0.00    +0.000 A 
ATOM     16  C   UNL     1       2.684   3.276  18.022  0.00  0.00    +0.000 A 
ATOM     17  C   UNL     1       3.769   2.543  18.514  0.00  0.00    +0.000 A 
ATOM     18  F   UNL     1       3.791   1.214  18.344  0.00  0.00    +0.000 F 
ATOM     19  C   UNL     1       4.829   3.154  19.172  0.00  0.00    +0.000 A 
ATOM     20  C   UNL     1       4.843   4.537  19.352  0.00  0.00    +0.000 A 
ATOM     21  C   UNL     1       3.749   5.259  18.859  0.00  0.00    +0.000 A 
ATOM     22  N   UNL     1       3.513   6.605  18.876  0.00  0.00    +0.000 N 
ATOM     23  H   UNL     1       4.147   7.307  19.235  0.00  0.00    +0.000 HD
ENDBRANCH   8  13
BRANCH   3  24
ATOM     24  C   UNL     1      -1.734  13.231  23.049  0.00  0.00    +0.000 A 
ATOM     25  C   UNL     1      -2.979  13.149  23.683  0.00  0.00    +0.000 A 
ATOM     26  C   UNL     1      -3.378  14.120  24.605  0.00  0.00    +0.000 A 
ATOM     27  C   UNL     1      -2.519  15.164  24.912  0.00  0.00    +0.000 A 
ATOM     28  F   UNL     1      -2.909  16.108  25.778  0.00  0.00    +0.000 F 
ATOM     29  C   UNL     1      -1.258  15.241  24.333  0.00  0.00    +0.000 A 
ATOM     30  C   UNL     1      -0.860  14.268  23.407  0.00  0.00    +0.000 A 
ENDBRANCH   3  24
TORSDOF 2
ENDMDL
MODEL 5
REMARK VINA RESULT:      -8.1      2.059     10.836
REMARK  Name = 
REMARK  2 active torsions:
REMARK  status: ('A' for Active; 'I' for Inactive)
REMARK    1  A    between atoms: N_3  and  C_4
REMARK    2  A    between atoms: C_15  and  C_17
REMARK                            x       y       z     vdW  Elec       q    Type
REMARK                         _______ _______ _______ _____ _____    ______ ____
ROOT
ATOM      1  O   UNL     1       2.366   8.775  17.469  0.00  0.00    +0.000 OA
ATOM      2  C   UNL     1       2.212   8.058  18.456  0.00  0.00    +0.000 C 
ATOM      3  N   UNL     1       2.801   6.822  18.616  0.00  0.00    +0.000 N 
ATOM      4  N   UNL     1       1.370   8.453  19.483  0.00  0.00    +0.000 N 
ATOM      5  C   UNL     1       0.500   9.621  19.268  0.00  0.00    +0.000 C 
ATOM      6  C   UNL     1       0.714  10.704  20.337  0.00  0.00    +0.000 C 
ATOM      7  N   UNL     1       0.572  10.119  21.673  0.00  0.00    +0.000 N 
ATOM      8  C   UNL     1      -0.206  10.554  22.740  0.00  0.00    +0.000 C 
ATOM      9  O   UNL     1      -0.151   9.935  23.808  0.00  0.00    +0.000 OA
ATOM     10  C   UNL     1       1.490   8.991  21.901  0.00  0.00    +0.000 C 
ATOM     11  C   UNL     1       1.321   7.891  20.841  0.00  0.00    +0.000 C 
ATOM     12  H   UNL     1       2.316   6.187  19.229  0.00  0.00    +0.000 HD
ENDROOT
BRANCH   8  13
ATOM     13  C   UNL     1      -1.044  11.740  22.701  0.00  0.00    +0.000 A 
ATOM     14  C   UNL     1      -1.029  13.003  22.120  0.00  0.00    +0.000 A 
ATOM     15  C   UNL     1      -2.226  13.698  22.497  0.00  0.00    +0.000 A 
ATOM     16  C   UNL     1      -2.756  14.978  22.238  0.00  0.00    +0.000 A 
ATOM     17  C   UNL     1      -3.987  15.323  22.806  0.00  0.00    +0.000 A 
ATOM     18  F   UNL     1      -4.497  16.540  22.572  0.00  0.00    +0.000 F 
ATOM     19  C   UNL     1      -4.701  14.438  23.604  0.00  0.00    +0.000 A 
ATOM     20  C   UNL     1      -4.205  13.159  23.855  0.00  0.00    +0.000 A 
ATOM     21  C   UNL     1      -2.969  12.827  23.285  0.00  0.00    +0.000 A 
ATOM     22  N   UNL     1      -2.267  11.656  23.345  0.00  0.00    +0.000 N 
ATOM     23  H   UNL     1      -2.577  10.810  23.806  0.00  0.00    +0.000 HD
ENDBRANCH   8  13
BRANCH   3  24
ATOM     24  C   UNL     1       3.723   6.228  17.719  0.00  0.00    +0.000 A 
ATOM     25  C   UNL     1       4.690   6.962  17.022  0.00  0.00    +0.000 A 
ATOM     26  C   UNL     1       5.524   6.339  16.089  0.00  0.00    +0.000 A 
ATOM     27  C   UNL     1       5.408   4.975  15.872  0.00  0.00    +0.000 A 
ATOM     28  F   UNL     1       6.191   4.382  14.962  0.00  0.00    +0.000 F 
ATOM     29  C   UNL     1       4.489   4.217  16.587  0.00  0.00    +0.000 A 
ATOM     30  C   UNL     1       3.651   4.842  17.519  0.00  0.00    +0.000 A 
ENDBRANCH   3  24
TORSDOF 2
ENDMDL
MODEL 6
REMARK VINA RESULT:      -7.9      1.609     10.658
REMARK  Name = 
REMARK  2 active torsions:
REMARK  status: ('A' for Active; 'I' for Inactive)
REMARK    1  A    between atoms: N_3  and  C_4
REMARK    2  A    between atoms: C_15  and  C_17
REMARK                            x       y       z     vdW  Elec       q    Type
REMARK                         _______ _______ _______ _____ _____    ______ ____
ROOT
ATOM      1  O   UNL     1       1.512   5.888  20.920  0.00  0.00    +0.000 OA
ATOM      2  C   UNL     1       1.914   6.605  20.006  0.00  0.00    +0.000 C 
ATOM      3  N   UNL     1       2.636   6.148  18.923  0.00  0.00    +0.000 N 
ATOM      4  N   UNL     1       1.690   7.971  20.036  0.00  0.00    +0.000 N 
ATOM      5  C   UNL     1       1.171   8.570  21.278  0.00  0.00    +0.000 C 
ATOM      6  C   UNL     1      -0.135   9.346  21.041  0.00  0.00    +0.000 C 
ATOM      7  N   UNL     1       0.055  10.323  19.966  0.00  0.00    +0.000 N 
ATOM      8  C   UNL     1      -0.244  11.681  19.956  0.00  0.00    +0.000 C 
ATOM      9  O   UNL     1      -0.043  12.327  18.923  0.00  0.00    +0.000 OA
ATOM     10  C   UNL     1       0.514   9.707  18.711  0.00  0.00    +0.000 C 
ATOM     11  C   UNL     1       1.811   8.906  18.907  0.00  0.00    +0.000 C 
ATOM     12  H   UNL     1       3.227   6.832  18.477  0.00  0.00    +0.000 HD
ENDROOT
BRANCH   8  13
ATOM     13  C   UNL     1      -0.842  12.387  21.077  0.00  0.00    +0.000 A 
ATOM     14  C   UNL     1      -1.957  12.275  21.899  0.00  0.00    +0.000 A 
ATOM     15  C   UNL     1      -1.935  13.344  22.855  0.00  0.00    +0.000 A 
ATOM     16  C   UNL     1      -2.777  13.755  23.907  0.00  0.00    +0.000 A 
ATOM     17  C   UNL     1      -2.429  14.894  24.642  0.00  0.00    +0.000 A 
ATOM     18  F   UNL     1      -3.227  15.297  25.641  0.00  0.00    +0.000 F 
ATOM     19  C   UNL     1      -1.278  15.620  24.368  0.00  0.00    +0.000 A 
ATOM     20  C   UNL     1      -0.419  15.219  23.344  0.00  0.00    +0.000 A 
ATOM     21  C   UNL     1      -0.780  14.080  22.614  0.00  0.00    +0.000 A 
ATOM     22  N   UNL     1      -0.126  13.458  21.588  0.00  0.00    +0.000 N 
ATOM     23  H   UNL     1       0.776  13.729  21.218  0.00  0.00    +0.000 HD
ENDBRANCH   8  13
BRANCH   3  24
ATOM     24  C   UNL     1       2.954   4.793  18.660  0.00  0.00    +0.000 A 
ATOM     25  C   UNL     1       2.230   4.000  17.762  0.00  0.00    +0.000 A 
ATOM     26  C   UNL     1       2.537   2.646  17.597  0.00  0.00    +0.000 A 
ATOM     27  C   UNL     1       3.586   2.091  18.313  0.00  0.00    +0.000 A 
ATOM     28  F   UNL     1       3.865   0.789  18.173  0.00  0.00    +0.000 F 
ATOM     29  C   UNL     1       4.350   2.869  19.173  0.00  0.00    +0.000 A 
ATOM     30  C   UNL     1       4.041   4.225  19.341  0.00  0.00    +0.000 A 
ENDBRANCH   3  24
TORSDOF 2
ENDMDL
MODEL 7
REMARK VINA RESULT:      -7.9      1.055      1.142
REMARK  Name = 
REMARK  2 active torsions:
REMARK  status: ('A' for Active; 'I' for Inactive)
REMARK    1  A    between atoms: N_3  and  C_4
REMARK    2  A    between atoms: C_15  and  C_17
REMARK                            x       y       z     vdW  Elec       q    Type
REMARK                         _______ _______ _______ _____ _____    ______ ____
ROOT
ATOM      1  O   UNL     1      -1.059  11.106  23.429  0.00  0.00    +0.000 OA
ATOM      2  C   UNL     1      -1.155  11.512  22.273  0.00  0.00    +0.000 C 
ATOM      3  N   UNL     1      -1.743  12.708  21.918  0.00  0.00    +0.000 N 
ATOM      4  N   UNL     1      -0.696  10.740  21.218  0.00  0.00    +0.000 N 
ATOM      5  C   UNL     1      -0.306   9.345  21.487  0.00  0.00    +0.000 C 
ATOM      6  C   UNL     1       1.139   9.057  21.052  0.00  0.00    +0.000 C 
ATOM      7  N   UNL     1       1.325   9.447  19.652  0.00  0.00    +0.000 N 
ATOM      8  C   UNL     1       1.862   8.709  18.603  0.00  0.00    +0.000 C 
ATOM      9  O   UNL     1       1.969   9.243  17.494  0.00  0.00    +0.000 OA
ATOM     10  C   UNL     1       0.993  10.859  19.406  0.00  0.00    +0.000 C 
ATOM     11  C   UNL     1      -0.442  11.196  19.843  0.00  0.00    +0.000 C 
ATOM     12  H   UNL     1      -2.111  12.749  20.980  0.00  0.00    +0.000 HD
ENDROOT
BRANCH   8  13
ATOM     13  C   UNL     1       2.369   7.354  18.742  0.00  0.00    +0.000 A 
ATOM     14  C   UNL     1       2.277   6.298  19.641  0.00  0.00    +0.000 A 
ATOM     15  C   UNL     1       3.046   5.197  19.139  0.00  0.00    +0.000 A 
ATOM     16  C   UNL     1       3.339   3.897  19.598  0.00  0.00    +0.000 A 
ATOM     17  C   UNL     1       4.165   3.079  18.819  0.00  0.00    +0.000 A 
ATOM     18  F   UNL     1       4.455   1.843  19.250  0.00  0.00    +0.000 F 
ATOM     19  C   UNL     1       4.694   3.510  17.610  0.00  0.00    +0.000 A 
ATOM     20  C   UNL     1       4.400   4.785  17.127  0.00  0.00    +0.000 A 
ATOM     21  C   UNL     1       3.575   5.596  17.916  0.00  0.00    +0.000 A 
ATOM     22  N   UNL     1       3.114   6.860  17.683  0.00  0.00    +0.000 N 
ATOM     23  H   UNL     1       3.285   7.401  16.845  0.00  0.00    +0.000 HD
ENDBRANCH   8  13
BRANCH   3  24
ATOM     24  C   UNL     1      -2.250  13.675  22.820  0.00  0.00    +0.000 A 
ATOM     25  C   UNL     1      -1.431  14.560  23.530  0.00  0.00    +0.000 A 
ATOM     26  C   UNL     1      -1.975  15.442  24.468  0.00  0.00    +0.000 A 
ATOM     27  C   UNL     1      -3.345  15.456  24.678  0.00  0.00    +0.000 A 
ATOM     28  F   UNL     1      -3.865  16.284  25.593  0.00  0.00    +0.000 F 
ATOM     29  C   UNL     1      -4.184  14.621  23.950  0.00  0.00    +0.000 A 
ATOM     30  C   UNL     1      -3.638  13.735  23.013  0.00  0.00    +0.000 A 
ENDBRANCH   3  24
TORSDOF 2
ENDMDL
MODEL 8
REMARK VINA RESULT:      -7.7      2.144     10.862
REMARK  Name = 
REMARK  2 active torsions:
REMARK  status: ('A' for Active; 'I' for Inactive)
REMARK    1  A    between atoms: N_3  and  C_4
REMARK    2  A    between atoms: C_15  and  C_17
REMARK                            x       y       z     vdW  Elec       q    Type
REMARK                         _______ _______ _______ _____ _____    ______ ____
ROOT
ATOM      1  O   UNL     1       2.379   8.739  17.458  0.00  0.00    +0.000 OA
ATOM      2  C   UNL     1       2.208   8.055  18.465  0.00  0.00    +0.000 C 
ATOM      3  N   UNL     1       2.791   6.823  18.673  0.00  0.00    +0.000 N 
ATOM      4  N   UNL     1       1.355   8.485  19.468  0.00  0.00    +0.000 N 
ATOM      5  C   UNL     1       0.492   9.650  19.203  0.00  0.00    +0.000 C 
ATOM      6  C   UNL     1       0.695  10.766  20.240  0.00  0.00    +0.000 C 
ATOM      7  N   UNL     1       0.534  10.224  21.592  0.00  0.00    +0.000 N 
ATOM      8  C   UNL     1      -0.257  10.696  22.634  0.00  0.00    +0.000 C 
ATOM      9  O   UNL     1      -0.219  10.112  23.721  0.00  0.00    +0.000 OA
ATOM     10  C   UNL     1       1.444   9.102  21.868  0.00  0.00    +0.000 C 
ATOM     11  C   UNL     1       1.285   7.968  20.842  0.00  0.00    +0.000 C 
ATOM     12  H   UNL     1       2.295   6.209  19.300  0.00  0.00    +0.000 HD
ENDROOT
BRANCH   8  13
ATOM     13  C   UNL     1      -1.090  11.884  22.545  0.00  0.00    +0.000 A 
ATOM     14  C   UNL     1      -2.435  12.218  22.648  0.00  0.00    +0.000 A 
ATOM     15  C   UNL     1      -2.574  13.633  22.460  0.00  0.00    +0.000 A 
ATOM     16  C   UNL     1      -3.659  14.532  22.440  0.00  0.00    +0.000 A 
ATOM     17  C   UNL     1      -3.404  15.888  22.207  0.00  0.00    +0.000 A 
ATOM     18  F   UNL     1      -4.430  16.751  22.179  0.00  0.00    +0.000 F 
ATOM     19  C   UNL     1      -2.117  16.369  22.005  0.00  0.00    +0.000 A 
ATOM     20  C   UNL     1      -1.026  15.500  22.042  0.00  0.00    +0.000 A 
ATOM     21  C   UNL     1      -1.294  14.145  22.272  0.00  0.00    +0.000 A 
ATOM     22  N   UNL     1      -0.431  13.091  22.380  0.00  0.00    +0.000 N 
ATOM     23  H   UNL     1       0.578  13.154  22.341  0.00  0.00    +0.000 HD
ENDBRANCH   8  13
BRANCH   3  24
ATOM     24  C   UNL     1       3.722   6.197  17.809  0.00  0.00    +0.000 A 
ATOM     25  C   UNL     1       4.778   6.885  17.198  0.00  0.00    +0.000 A 
ATOM     26  C   UNL     1       5.622   6.238  16.292  0.00  0.00    +0.000 A 
ATOM     27  C   UNL     1       5.426   4.894  16.013  0.00  0.00    +0.000 A 
ATOM     28  F   UNL     1       6.219   4.280  15.127  0.00  0.00    +0.000 F 
ATOM     29  C   UNL     1       4.415   4.179  16.643  0.00  0.00    +0.000 A 
ATOM     30  C   UNL     1       3.567   4.828  17.549  0.00  0.00    +0.000 A 
ENDBRANCH   3  24
TORSDOF 2
ENDMDL
MODEL 9
REMARK VINA RESULT:      -7.7      1.665     10.659
REMARK  Name = 
REMARK  2 active torsions:
REMARK  status: ('A' for Active; 'I' for Inactive)
REMARK    1  A    between atoms: N_3  and  C_4
REMARK    2  A    between atoms: C_15  and  C_17
REMARK                            x       y       z     vdW  Elec       q    Type
REMARK                         _______ _______ _______ _____ _____    ______ ____
ROOT
ATOM      1  O   UNL     1       1.610   6.382  20.830  0.00  0.00    +0.000 OA
ATOM      2  C   UNL     1       1.864   7.095  19.863  0.00  0.00    +0.000 C 
ATOM      3  N   UNL     1       2.525   6.663  18.733  0.00  0.00    +0.000 N 
ATOM      4  N   UNL     1       1.522   8.438  19.873  0.00  0.00    +0.000 N 
ATOM      5  C   UNL     1       1.063   9.036  21.139  0.00  0.00    +0.000 C 
ATOM      6  C   UNL     1      -0.322   9.686  21.001  0.00  0.00    +0.000 C 
ATOM      7  N   UNL     1      -0.317  10.635  19.885  0.00  0.00    +0.000 N 
ATOM      8  C   UNL     1      -0.736  11.961  19.863  0.00  0.00    +0.000 C 
ATOM      9  O   UNL     1      -0.686  12.583  18.797  0.00  0.00    +0.000 OA
ATOM     10  C   UNL     1       0.082  10.015  18.612  0.00  0.00    +0.000 C 
ATOM     11  C   UNL     1       1.458   9.336  18.711  0.00  0.00    +0.000 C 
ATOM     12  H   UNL     1       3.010   7.378  18.214  0.00  0.00    +0.000 HD
ENDROOT
BRANCH   8  13
ATOM     13  C   UNL     1      -1.293  12.654  21.013  0.00  0.00    +0.000 A 
ATOM     14  C   UNL     1      -2.460  12.641  21.768  0.00  0.00    +0.000 A 
ATOM     15  C   UNL     1      -2.342  13.613  22.815  0.00  0.00    +0.000 A 
ATOM     16  C   UNL     1      -3.179  14.056  23.859  0.00  0.00    +0.000 A 
ATOM     17  C   UNL     1      -2.716  15.068  24.708  0.00  0.00    +0.000 A 
ATOM     18  F   UNL     1      -3.506  15.502  25.700  0.00  0.00    +0.000 F 
ATOM     19  C   UNL     1      -1.458  15.636  24.554  0.00  0.00    +0.000 A 
ATOM     20  C   UNL     1      -0.606  15.198  23.541  0.00  0.00    +0.000 A 
ATOM     21  C   UNL     1      -1.081  14.188  22.695  0.00  0.00    +0.000 A 
ATOM     22  N   UNL     1      -0.463  13.562  21.650  0.00  0.00    +0.000 N 
ATOM     23  H   UNL     1       0.489  13.726  21.349  0.00  0.00    +0.000 HD
ENDBRANCH   8  13
BRANCH   3  24
ATOM     24  C   UNL     1       2.939   5.332  18.481  0.00  0.00    +0.000 A 
ATOM     25  C   UNL     1       4.198   4.842  18.847  0.00  0.00    +0.000 A 
ATOM     26  C   UNL     1       4.587   3.544  18.505  0.00  0.00    +0.000 A 
ATOM     27  C   UNL     1       3.705   2.726  17.817  0.00  0.00    +0.000 A 
ATOM     28  F   UNL     1       4.085   1.490  17.468  0.00  0.00    +0.000 F 
ATOM     29  C   UNL     1       2.432   3.172  17.484  0.00  0.00    +0.000 A 
ATOM     30  C   UNL     1       2.044   4.474  17.825  0.00  0.00    +0.000 A 
ENDBRANCH   3  24
TORSDOF 2
ENDMDL
