MODEL 1
REMARK VINA RESULT:      -9.2      0.000      0.000
REMARK  Name = 
REMARK  4 active torsions:
REMARK  status: ('A' for Active; 'I' for Inactive)
REMARK    1  A    between atoms: C_2  and  C_14
REMARK    2  A    between atoms: N_3  and  C_4
REMARK    3  A    between atoms: C_16  and  C_17
REMARK    4  A    between atoms: C_23  and  N_24
REMARK                            x       y       z     vdW  Elec       q    Type
REMARK                         _______ _______ _______ _____ _____    ______ ____
ROOT
ATOM      1  C   UNL     1       2.532   8.033  17.949  0.00  0.00    +0.000 A 
ATOM      2  C   UNL     1       1.958   6.836  18.317  0.00  0.00    +0.000 A 
ATOM      3  C   UNL     1       2.779   5.684  18.067  0.00  0.00    +0.000 A 
ATOM      4  C   UNL     1       4.033   6.047  17.545  0.00  0.00    +0.000 A 
ATOM      5  S   UNL     1       4.063   7.777  17.276  0.00  0.00    +0.000 S 
ENDROOT
BRANCH   3   6
ATOM      6  C   UNL     1       2.353   4.312  18.387  0.00  0.00    +0.000 A 
ATOM      7  C   UNL     1       2.561   3.254  17.494  0.00  0.00    +0.000 A 
ATOM      8  C   UNL     1       2.348   1.932  17.894  0.00  0.00    +0.000 A 
ATOM      9  C   UNL     1       1.816   1.661  19.151  0.00  0.00    +0.000 A 
ATOM     10  C   UNL     1       1.475   2.712  19.998  0.00  0.00    +0.000 A 
ATOM     11  C   UNL     1       1.750   4.030  19.623  0.00  0.00    +0.000 A 
ENDBRANCH   3   6
BRANCH   4  12
ATOM     12  N   UNL     1       5.164   5.302  17.286  0.00  0.00    +0.000 N 
ATOM     13  C   UNL     1       6.055   4.767  18.329  0.00  0.00    +0.000 C 
ATOM     14  C   UNL     1       7.531   4.955  17.943  0.00  0.00    +0.000 C 
ATOM     15  O   UNL     1       7.818   4.426  16.639  0.00  0.00    +0.000 OA
ATOM     16  C   UNL     1       6.987   5.067  15.657  0.00  0.00    +0.000 C 
ATOM     17  C   UNL     1       5.499   4.810  15.938  0.00  0.00    +0.000 C 
ENDBRANCH   4  12
BRANCH   1  19
ATOM     18  O   UNL     1       2.381  10.319  17.532  0.00  0.00    +0.000 OA
ATOM     19  C   UNL     1       1.927   9.349  18.139  0.00  0.00    +0.000 C 
ATOM     20  N   UNL     1       0.884   9.431  19.049  0.00  0.00    +0.000 N 
ATOM     21  H   UNL     1       0.687   8.621  19.632  0.00  0.00    +0.000 HD
BRANCH  20  22
ATOM     22  C   UNL     1       0.187  10.616  19.431  0.00  0.00    +0.000 A 
ATOM     23  C   UNL     1       0.754  11.571  20.289  0.00  0.00    +0.000 A 
ATOM     24  C   UNL     1       0.026  12.680  20.706  0.00  0.00    +0.000 A 
ATOM     25  C   UNL     1      -1.280  12.849  20.267  0.00  0.00    +0.000 A 
ATOM     26  C   UNL     1      -1.847  11.925  19.377  0.00  0.00    +0.000 A 
ATOM     27  C   UNL     1      -3.161  12.101  18.919  0.00  0.00    +0.000 A 
ATOM     28  C   UNL     1      -3.713  11.187  18.034  0.00  0.00    +0.000 A 
ATOM     29  C   UNL     1      -2.925  10.124  17.633  0.00  0.00    +0.000 A 
ATOM     30  N   UNL     1      -1.658   9.909  18.059  0.00  0.00    +0.000 NA
ATOM     31  C   UNL     1      -1.115  10.802  18.927  0.00  0.00    +0.000 A 
ENDBRANCH  20  22
ENDBRANCH   1  19
TORSDOF 4
ENDMDL
MODEL 2
REMARK VINA RESULT:      -9.1      1.176      1.901
REMARK  Name = 
REMARK  4 active torsions:
REMARK  status: ('A' for Active; 'I' for Inactive)
REMARK    1  A    between atoms: C_2  and  C_14
REMARK    2  A    between atoms: N_3  and  C_4
REMARK    3  A    between atoms: C_16  and  C_17
REMARK    4  A    between atoms: C_23  and  N_24
REMARK                            x       y       z     vdW  Elec       q    Type
REMARK                         _______ _______ _______ _____ _____    ______ ____
ROOT
ATOM      1  C   UNL     1       2.511   8.080  17.932  0.00  0.00    +0.000 A 
ATOM      2  C   UNL     1       1.930   6.885  18.296  0.00  0.00    +0.000 A 
ATOM      3  C   UNL     1       2.748   5.730  18.049  0.00  0.00    +0.000 A 
ATOM      4  C   UNL     1       4.006   6.089  17.535  0.00  0.00    +0.000 A 
ATOM      5  S   UNL     1       4.045   7.819  17.268  0.00  0.00    +0.000 S 
ENDROOT
BRANCH   3   6
ATOM      6  C   UNL     1       2.314   4.359  18.366  0.00  0.00    +0.000 A 
ATOM      7  C   UNL     1       2.590   3.289  17.507  0.00  0.00    +0.000 A 
ATOM      8  C   UNL     1       2.364   1.971  17.916  0.00  0.00    +0.000 A 
ATOM      9  C   UNL     1       1.754   1.716  19.140  0.00  0.00    +0.000 A 
ATOM     10  C   UNL     1       1.348   2.778  19.944  0.00  0.00    +0.000 A 
ATOM     11  C   UNL     1       1.635   4.093  19.564  0.00  0.00    +0.000 A 
ENDBRANCH   3   6
BRANCH   4  12
ATOM     12  N   UNL     1       5.135   5.339  17.281  0.00  0.00    +0.000 N 
ATOM     13  C   UNL     1       6.018   4.798  18.328  0.00  0.00    +0.000 C 
ATOM     14  C   UNL     1       7.497   4.981  17.951  0.00  0.00    +0.000 C 
ATOM     15  O   UNL     1       7.789   4.453  16.649  0.00  0.00    +0.000 OA
ATOM     16  C   UNL     1       6.967   5.099  15.662  0.00  0.00    +0.000 C 
ATOM     17  C   UNL     1       5.476   4.848  15.934  0.00  0.00    +0.000 C 
ENDBRANCH   4  12
BRANCH   1  19
ATOM     18  O   UNL     1       2.459  10.389  17.638  0.00  0.00    +0.000 OA
ATOM     19  C   UNL     1       1.910   9.398  18.120  0.00  0.00    +0.000 C 
ATOM     20  N   UNL     1       0.758   9.456  18.889  0.00  0.00    +0.000 N 
ATOM     21  H   UNL     1       0.470   8.618  19.390  0.00  0.00    +0.000 HD
BRANCH  20  22
ATOM     22  C   UNL     1       0.038  10.633  19.247  0.00  0.00    +0.000 A 
ATOM     23  C   UNL     1      -0.216  11.661  18.326  0.00  0.00    +0.000 A 
ATOM     24  C   UNL     1      -0.855  12.833  18.718  0.00  0.00    +0.000 A 
ATOM     25  C   UNL     1      -1.250  12.990  20.039  0.00  0.00    +0.000 A 
ATOM     26  C   UNL     1      -1.041  11.955  20.963  0.00  0.00    +0.000 A 
ATOM     27  C   UNL     1      -1.453  12.105  22.295  0.00  0.00    +0.000 A 
ATOM     28  C   UNL     1      -1.248  11.075  23.202  0.00  0.00    +0.000 A 
ATOM     29  C   UNL     1      -0.637   9.924  22.740  0.00  0.00    +0.000 A 
ATOM     30  N   UNL     1      -0.212   9.742  21.468  0.00  0.00    +0.000 NA
ATOM     31  C   UNL     1      -0.410  10.750  20.578  0.00  0.00    +0.000 A 
ENDBRANCH  20  22
ENDBRANCH   1  19
TORSDOF 4
ENDMDL
MODEL 3
REMARK VINA RESULT:      -9.0      1.239      1.652
REMARK  Name = 
REMARK  4 active torsions:
REMARK  status: ('A' for Active; 'I' for Inactive)
REMARK    1  A    between atoms: C_2  and  C_14
REMARK    2  A    between atoms: N_3  and  C_4
REMARK    3  A    between atoms: C_16  and  C_17
REMARK    4  A    between atoms: C_23  and  N_24
REMARK                            x       y       z     vdW  Elec       q    Type
REMARK                         _______ _______ _______ _____ _____    ______ ____
ROOT
ATOM      1  C   UNL     1       2.373   7.764  18.613  0.00  0.00    +0.000 A 
ATOM      2  C   UNL     1       2.305   6.414  18.878  0.00  0.00    +0.000 A 
ATOM      3  C   UNL     1       3.292   5.625  18.195  0.00  0.00    +0.000 A 
ATOM      4  C   UNL     1       4.161   6.430  17.437  0.00  0.00    +0.000 A 
ATOM      5  S   UNL     1       3.618   8.093  17.516  0.00  0.00    +0.000 S 
ENDROOT
BRANCH   3   6
ATOM      6  C   UNL     1       3.392   4.164  18.342  0.00  0.00    +0.000 A 
ATOM      7  C   UNL     1       4.239   3.581  19.292  0.00  0.00    +0.000 A 
ATOM      8  C   UNL     1       4.167   2.212  19.566  0.00  0.00    +0.000 A 
ATOM      9  C   UNL     1       3.331   1.394  18.813  0.00  0.00    +0.000 A 
ATOM     10  C   UNL     1       2.585   1.940  17.771  0.00  0.00    +0.000 A 
ATOM     11  C   UNL     1       2.608   3.319  17.542  0.00  0.00    +0.000 A 
ENDBRANCH   3   6
BRANCH   4  12
ATOM     12  N   UNL     1       5.312   6.126  16.741  0.00  0.00    +0.000 N 
ATOM     13  C   UNL     1       5.371   5.957  15.280  0.00  0.00    +0.000 C 
ATOM     14  C   UNL     1       6.236   4.745  14.899  0.00  0.00    +0.000 C 
ATOM     15  O   UNL     1       7.536   4.799  15.507  0.00  0.00    +0.000 OA
ATOM     16  C   UNL     1       7.405   4.856  16.937  0.00  0.00    +0.000 C 
ATOM     17  C   UNL     1       6.643   6.115  17.374  0.00  0.00    +0.000 C 
ENDBRANCH   4  12
BRANCH   1  19
ATOM     18  O   UNL     1       1.177   8.673  20.392  0.00  0.00    +0.000 OA
ATOM     19  C   UNL     1       1.516   8.783  19.214  0.00  0.00    +0.000 C 
ATOM     20  N   UNL     1       1.092   9.810  18.385  0.00  0.00    +0.000 N 
ATOM     21  H   UNL     1       1.277   9.733  17.387  0.00  0.00    +0.000 HD
BRANCH  20  22
ATOM     22  C   UNL     1       0.213  10.875  18.741  0.00  0.00    +0.000 A 
ATOM     23  C   UNL     1       0.636  11.964  19.518  0.00  0.00    +0.000 A 
ATOM     24  C   UNL     1      -0.259  12.952  19.915  0.00  0.00    +0.000 A 
ATOM     25  C   UNL     1      -1.591  12.865  19.535  0.00  0.00    +0.000 A 
ATOM     26  C   UNL     1      -2.022  11.805  18.723  0.00  0.00    +0.000 A 
ATOM     27  C   UNL     1      -3.364  11.721  18.325  0.00  0.00    +0.000 A 
ATOM     28  C   UNL     1      -3.781  10.674  17.517  0.00  0.00    +0.000 A 
ATOM     29  C   UNL     1      -2.835   9.742  17.131  0.00  0.00    +0.000 A 
ATOM     30  N   UNL     1      -1.534   9.777  17.502  0.00  0.00    +0.000 NA
ATOM     31  C   UNL     1      -1.122  10.801  18.295  0.00  0.00    +0.000 A 
ENDBRANCH  20  22
ENDBRANCH   1  19
TORSDOF 4
ENDMDL
MODEL 4
REMARK VINA RESULT:      -9.0      1.552      3.323
REMARK  Name = 
REMARK  4 active torsions:
REMARK  status: ('A' for Active; 'I' for Inactive)
REMARK    1  A    between atoms: C_2  and  C_14
REMARK    2  A    between atoms: N_3  and  C_4
REMARK    3  A    between atoms: C_16  and  C_17
REMARK    4  A    between atoms: C_23  and  N_24
REMARK                            x       y       z     vdW  Elec       q    Type
REMARK                         _______ _______ _______ _____ _____    ______ ____
ROOT
ATOM      1  C   UNL     1       2.435   8.002  18.290  0.00  0.00    +0.000 A 
ATOM      2  C   UNL     1       3.548   7.692  17.539  0.00  0.00    +0.000 A 
ATOM      3  C   UNL     1       3.985   6.330  17.662  0.00  0.00    +0.000 A 
ATOM      4  C   UNL     1       3.129   5.586  18.493  0.00  0.00    +0.000 A 
ATOM      5  S   UNL     1       1.918   6.653  19.171  0.00  0.00    +0.000 S 
ENDROOT
BRANCH   3   6
ATOM      6  C   UNL     1       5.153   5.795  16.943  0.00  0.00    +0.000 A 
ATOM      7  C   UNL     1       6.264   5.290  17.627  0.00  0.00    +0.000 A 
ATOM      8  C   UNL     1       7.267   4.596  16.944  0.00  0.00    +0.000 A 
ATOM      9  C   UNL     1       7.227   4.501  15.556  0.00  0.00    +0.000 A 
ATOM     10  C   UNL     1       6.197   5.119  14.851  0.00  0.00    +0.000 A 
ATOM     11  C   UNL     1       5.161   5.755  15.540  0.00  0.00    +0.000 A 
ENDBRANCH   3   6
BRANCH   4  12
ATOM     12  N   UNL     1       3.084   4.239  18.784  0.00  0.00    +0.000 N 
ATOM     13  C   UNL     1       3.538   3.655  20.058  0.00  0.00    +0.000 C 
ATOM     14  C   UNL     1       4.342   2.368  19.819  0.00  0.00    +0.000 C 
ATOM     15  O   UNL     1       3.626   1.430  19.000  0.00  0.00    +0.000 OA
ATOM     16  C   UNL     1       3.307   2.030  17.734  0.00  0.00    +0.000 C 
ATOM     17  C   UNL     1       2.406   3.261  17.915  0.00  0.00    +0.000 C 
ENDBRANCH   4  12
BRANCH   1  19
ATOM     18  O   UNL     1       2.193  10.212  17.598  0.00  0.00    +0.000 OA
ATOM     19  C   UNL     1       1.766   9.300  18.307  0.00  0.00    +0.000 C 
ATOM     20  N   UNL     1       0.694   9.440  19.176  0.00  0.00    +0.000 N 
ATOM     21  H   UNL     1       0.517   8.695  19.847  0.00  0.00    +0.000 HD
BRANCH  20  22
ATOM     22  C   UNL     1      -0.066  10.626  19.397  0.00  0.00    +0.000 A 
ATOM     23  C   UNL     1       0.424  11.694  20.163  0.00  0.00    +0.000 A 
ATOM     24  C   UNL     1      -0.366  12.809  20.426  0.00  0.00    +0.000 A 
ATOM     25  C   UNL     1      -1.658  12.868  19.922  0.00  0.00    +0.000 A 
ATOM     26  C   UNL     1      -2.148  11.827  19.120  0.00  0.00    +0.000 A 
ATOM     27  C   UNL     1      -3.448  11.892  18.597  0.00  0.00    +0.000 A 
ATOM     28  C   UNL     1      -3.924  10.861  17.800  0.00  0.00    +0.000 A 
ATOM     29  C   UNL     1      -3.077   9.797  17.550  0.00  0.00    +0.000 A 
ATOM     30  N   UNL     1      -1.821   9.688  18.044  0.00  0.00    +0.000 NA
ATOM     31  C   UNL     1      -1.353  10.695  18.827  0.00  0.00    +0.000 A 
ENDBRANCH  20  22
ENDBRANCH   1  19
TORSDOF 4
ENDMDL
MODEL 5
REMARK VINA RESULT:      -8.9      0.979      1.367
REMARK  Name = 
REMARK  4 active torsions:
REMARK  status: ('A' for Active; 'I' for Inactive)
REMARK    1  A    between atoms: C_2  and  C_14
REMARK    2  A    between atoms: N_3  and  C_4
REMARK    3  A    between atoms: C_16  and  C_17
REMARK    4  A    between atoms: C_23  and  N_24
REMARK                            x       y       z     vdW  Elec       q    Type
REMARK                         _______ _______ _______ _____ _____    ______ ____
ROOT
ATOM      1  C   UNL     1       2.564   8.246  17.884  0.00  0.00    +0.000 A 
ATOM      2  C   UNL     1       2.245   6.967  18.285  0.00  0.00    +0.000 A 
ATOM      3  C   UNL     1       3.241   5.981  17.968  0.00  0.00    +0.000 A 
ATOM      4  C   UNL     1       4.367   6.562  17.360  0.00  0.00    +0.000 A 
ATOM      5  S   UNL     1       4.063   8.267  17.101  0.00  0.00    +0.000 S 
ENDROOT
BRANCH   3   6
ATOM      6  C   UNL     1       3.095   4.557  18.310  0.00  0.00    +0.000 A 
ATOM      7  C   UNL     1       2.328   3.691  17.522  0.00  0.00    +0.000 A 
ATOM      8  C   UNL     1       2.370   2.310  17.733  0.00  0.00    +0.000 A 
ATOM      9  C   UNL     1       3.088   1.790  18.806  0.00  0.00    +0.000 A 
ATOM     10  C   UNL     1       3.744   2.653  19.680  0.00  0.00    +0.000 A 
ATOM     11  C   UNL     1       3.756   4.028  19.429  0.00  0.00    +0.000 A 
ENDBRANCH   3   6
BRANCH   4  12
ATOM     12  N   UNL     1       5.592   6.033  17.014  0.00  0.00    +0.000 N 
ATOM     13  C   UNL     1       5.904   5.474  15.688  0.00  0.00    +0.000 C 
ATOM     14  C   UNL     1       6.705   4.168  15.815  0.00  0.00    +0.000 C 
ATOM     15  O   UNL     1       7.869   4.329  16.640  0.00  0.00    +0.000 OA
ATOM     16  C   UNL     1       7.483   4.775  17.950  0.00  0.00    +0.000 C 
ATOM     17  C   UNL     1       6.777   6.137  17.885  0.00  0.00    +0.000 C 
ENDBRANCH   4  12
BRANCH   1  19
ATOM     18  O   UNL     1       2.198  10.545  17.862  0.00  0.00    +0.000 OA
ATOM     19  C   UNL     1       1.746   9.431  18.126  0.00  0.00    +0.000 C 
ATOM     20  N   UNL     1       0.499   9.224  18.697  0.00  0.00    +0.000 N 
ATOM     21  H   UNL     1       0.274   8.293  19.041  0.00  0.00    +0.000 HD
BRANCH  20  22
ATOM     22  C   UNL     1      -0.439  10.232  19.069  0.00  0.00    +0.000 A 
ATOM     23  C   UNL     1      -0.305  10.976  20.251  0.00  0.00    +0.000 A 
ATOM     24  C   UNL     1      -1.273  11.901  20.629  0.00  0.00    +0.000 A 
ATOM     25  C   UNL     1      -2.387  12.096  19.826  0.00  0.00    +0.000 A 
ATOM     26  C   UNL     1      -2.516  11.390  18.620  0.00  0.00    +0.000 A 
ATOM     27  C   UNL     1      -3.633  11.596  17.798  0.00  0.00    +0.000 A 
ATOM     28  C   UNL     1      -3.751  10.900  16.604  0.00  0.00    +0.000 A 
ATOM     29  C   UNL     1      -2.739  10.018  16.271  0.00  0.00    +0.000 A 
ATOM     30  N   UNL     1      -1.650   9.780  17.039  0.00  0.00    +0.000 NA
ATOM     31  C   UNL     1      -1.533  10.459  18.211  0.00  0.00    +0.000 A 
ENDBRANCH  20  22
ENDBRANCH   1  19
TORSDOF 4
ENDMDL
MODEL 6
REMARK VINA RESULT:      -8.8      1.921      3.835
REMARK  Name = 
REMARK  4 active torsions:
REMARK  status: ('A' for Active; 'I' for Inactive)
REMARK    1  A    between atoms: C_2  and  C_14
REMARK    2  A    between atoms: N_3  and  C_4
REMARK    3  A    between atoms: C_16  and  C_17
REMARK    4  A    between atoms: C_23  and  N_24
REMARK                            x       y       z     vdW  Elec       q    Type
REMARK                         _______ _______ _______ _____ _____    ______ ____
ROOT
ATOM      1  C   UNL     1       2.421   7.951  18.410  0.00  0.00    +0.000 A 
ATOM      2  C   UNL     1       3.523   7.663  17.634  0.00  0.00    +0.000 A 
ATOM      3  C   UNL     1       3.976   6.303  17.730  0.00  0.00    +0.000 A 
ATOM      4  C   UNL     1       3.142   5.539  18.566  0.00  0.00    +0.000 A 
ATOM      5  S   UNL     1       1.934   6.585  19.281  0.00  0.00    +0.000 S 
ENDROOT
BRANCH   3   6
ATOM      6  C   UNL     1       5.135   5.790  16.981  0.00  0.00    +0.000 A 
ATOM      7  C   UNL     1       6.245   5.245  17.637  0.00  0.00    +0.000 A 
ATOM      8  C   UNL     1       7.238   4.572  16.919  0.00  0.00    +0.000 A 
ATOM      9  C   UNL     1       7.189   4.538  15.529  0.00  0.00    +0.000 A 
ATOM     10  C   UNL     1       6.163   5.197  14.856  0.00  0.00    +0.000 A 
ATOM     11  C   UNL     1       5.135   5.811  15.578  0.00  0.00    +0.000 A 
ENDBRANCH   3   6
BRANCH   4  12
ATOM     12  N   UNL     1       3.115   4.188  18.838  0.00  0.00    +0.000 N 
ATOM     13  C   UNL     1       3.530   3.598  20.122  0.00  0.00    +0.000 C 
ATOM     14  C   UNL     1       4.371   2.331  19.900  0.00  0.00    +0.000 C 
ATOM     15  O   UNL     1       3.709   1.389  19.041  0.00  0.00    +0.000 OA
ATOM     16  C   UNL     1       3.428   1.998  17.770  0.00  0.00    +0.000 C 
ATOM     17  C   UNL     1       2.494   3.207  17.930  0.00  0.00    +0.000 C 
ENDBRANCH   4  12
BRANCH   1  19
ATOM     18  O   UNL     1       2.290  10.236  17.980  0.00  0.00    +0.000 OA
ATOM     19  C   UNL     1       1.741   9.242  18.457  0.00  0.00    +0.000 C 
ATOM     20  N   UNL     1       0.510   9.277  19.094  0.00  0.00    +0.000 N 
ATOM     21  H   UNL     1       0.210   8.452  19.609  0.00  0.00    +0.000 HD
BRANCH  20  22
ATOM     22  C   UNL     1      -0.301  10.431  19.306  0.00  0.00    +0.000 A 
ATOM     23  C   UNL     1      -0.708  11.260  18.249  0.00  0.00    +0.000 A 
ATOM     24  C   UNL     1      -1.436  12.421  18.490  0.00  0.00    +0.000 A 
ATOM     25  C   UNL     1      -1.768  12.766  19.792  0.00  0.00    +0.000 A 
ATOM     26  C   UNL     1      -1.404  11.927  20.856  0.00  0.00    +0.000 A 
ATOM     27  C   UNL     1      -1.750  12.265  22.171  0.00  0.00    +0.000 A 
ATOM     28  C   UNL     1      -1.393  11.427  23.218  0.00  0.00    +0.000 A 
ATOM     29  C   UNL     1      -0.698  10.272  22.909  0.00  0.00    +0.000 A 
ATOM     30  N   UNL     1      -0.332   9.914  21.655  0.00  0.00    +0.000 NA
ATOM     31  C   UNL     1      -0.680  10.733  20.628  0.00  0.00    +0.000 A 
ENDBRANCH  20  22
ENDBRANCH   1  19
TORSDOF 4
ENDMDL
MODEL 7
REMARK VINA RESULT:      -8.8      1.664      2.728
REMARK  Name = 
REMARK  4 active torsions:
REMARK  status: ('A' for Active; 'I' for Inactive)
REMARK    1  A    between atoms: C_2  and  C_14
REMARK    2  A    between atoms: N_3  and  C_4
REMARK    3  A    between atoms: C_16  and  C_17
REMARK    4  A    between atoms: C_23  and  N_24
REMARK                            x       y       z     vdW  Elec       q    Type
REMARK                         _______ _______ _______ _____ _____    ______ ____
ROOT
ATOM      1  C   UNL     1       2.429   7.721  18.592  0.00  0.00    +0.000 A 
ATOM      2  C   UNL     1       2.353   6.374  18.871  0.00  0.00    +0.000 A 
ATOM      3  C   UNL     1       3.335   5.573  18.194  0.00  0.00    +0.000 A 
ATOM      4  C   UNL     1       4.208   6.365  17.428  0.00  0.00    +0.000 A 
ATOM      5  S   UNL     1       3.675   8.031  17.491  0.00  0.00    +0.000 S 
ENDROOT
BRANCH   3   6
ATOM      6  C   UNL     1       3.427   4.113  18.356  0.00  0.00    +0.000 A 
ATOM      7  C   UNL     1       4.274   3.535  19.308  0.00  0.00    +0.000 A 
ATOM      8  C   UNL     1       4.195   2.169  19.597  0.00  0.00    +0.000 A 
ATOM      9  C   UNL     1       3.351   1.348  18.856  0.00  0.00    +0.000 A 
ATOM     10  C   UNL     1       2.604   1.888  17.812  0.00  0.00    +0.000 A 
ATOM     11  C   UNL     1       2.634   3.264  17.569  0.00  0.00    +0.000 A 
ENDBRANCH   3   6
BRANCH   4  12
ATOM     12  N   UNL     1       5.357   6.047  16.735  0.00  0.00    +0.000 N 
ATOM     13  C   UNL     1       5.419   5.886  15.273  0.00  0.00    +0.000 C 
ATOM     14  C   UNL     1       6.266   4.663  14.888  0.00  0.00    +0.000 C 
ATOM     15  O   UNL     1       7.565   4.693  15.501  0.00  0.00    +0.000 OA
ATOM     16  C   UNL     1       7.430   4.744  16.931  0.00  0.00    +0.000 C 
ATOM     17  C   UNL     1       6.686   6.012  17.372  0.00  0.00    +0.000 C 
ENDBRANCH   4  12
BRANCH   1  19
ATOM     18  O   UNL     1       1.309   8.701  20.383  0.00  0.00    +0.000 OA
ATOM     19  C   UNL     1       1.579   8.751  19.183  0.00  0.00    +0.000 C 
ATOM     20  N   UNL     1       1.078   9.717  18.323  0.00  0.00    +0.000 N 
ATOM     21  H   UNL     1       1.209   9.587  17.322  0.00  0.00    +0.000 HD
BRANCH  20  22
ATOM     22  C   UNL     1       0.191  10.778  18.669  0.00  0.00    +0.000 A 
ATOM     23  C   UNL     1      -1.172  10.558  18.920  0.00  0.00    +0.000 A 
ATOM     24  C   UNL     1      -2.033  11.620  19.182  0.00  0.00    +0.000 A 
ATOM     25  C   UNL     1      -1.538  12.916  19.198  0.00  0.00    +0.000 A 
ATOM     26  C   UNL     1      -0.171  13.149  18.990  0.00  0.00    +0.000 A 
ATOM     27  C   UNL     1       0.334  14.457  19.020  0.00  0.00    +0.000 A 
ATOM     28  C   UNL     1       1.689  14.680  18.820  0.00  0.00    +0.000 A 
ATOM     29  C   UNL     1       2.496  13.579  18.596  0.00  0.00    +0.000 A 
ATOM     30  N   UNL     1       2.048  12.302  18.546  0.00  0.00    +0.000 NA
ATOM     31  C   UNL     1       0.722  12.081  18.740  0.00  0.00    +0.000 A 
ENDBRANCH  20  22
ENDBRANCH   1  19
TORSDOF 4
ENDMDL
MODEL 8
REMARK VINA RESULT:      -8.8      1.631      3.649
REMARK  Name = 
REMARK  4 active torsions:
REMARK  status: ('A' for Active; 'I' for Inactive)
REMARK    1  A    between atoms: C_2  and  C_14
REMARK    2  A    between atoms: N_3  and  C_4
REMARK    3  A    between atoms: C_16  and  C_17
REMARK    4  A    between atoms: C_23  and  N_24
REMARK                            x       y       z     vdW  Elec       q    Type
REMARK                         _______ _______ _______ _____ _____    ______ ____
ROOT
ATOM      1  C   UNL     1       2.458   8.051  18.222  0.00  0.00    +0.000 A 
ATOM      2  C   UNL     1       3.582   7.750  17.483  0.00  0.00    +0.000 A 
ATOM      3  C   UNL     1       4.006   6.381  17.580  0.00  0.00    +0.000 A 
ATOM      4  C   UNL     1       3.129   5.624  18.377  0.00  0.00    +0.000 A 
ATOM      5  S   UNL     1       1.915   6.685  19.060  0.00  0.00    +0.000 S 
ENDROOT
BRANCH   3   6
ATOM      6  C   UNL     1       5.182   5.855  16.869  0.00  0.00    +0.000 A 
ATOM      7  C   UNL     1       6.312   5.401  17.560  0.00  0.00    +0.000 A 
ATOM      8  C   UNL     1       7.327   4.712  16.890  0.00  0.00    +0.000 A 
ATOM      9  C   UNL     1       7.279   4.570  15.507  0.00  0.00    +0.000 A 
ATOM     10  C   UNL     1       6.228   5.137  14.791  0.00  0.00    +0.000 A 
ATOM     11  C   UNL     1       5.180   5.768  15.468  0.00  0.00    +0.000 A 
ENDBRANCH   3   6
BRANCH   4  12
ATOM     12  N   UNL     1       3.067   4.271  18.634  0.00  0.00    +0.000 N 
ATOM     13  C   UNL     1       2.451   3.288  17.728  0.00  0.00    +0.000 C 
ATOM     14  C   UNL     1       1.604   2.272  18.510  0.00  0.00    +0.000 C 
ATOM     15  O   UNL     1       2.348   1.658  19.575  0.00  0.00    +0.000 OA
ATOM     16  C   UNL     1       2.831   2.666  20.478  0.00  0.00    +0.000 C 
ATOM     17  C   UNL     1       3.776   3.644  19.764  0.00  0.00    +0.000 C 
ENDBRANCH   4  12
BRANCH   1  19
ATOM     18  O   UNL     1       2.233  10.272  17.562  0.00  0.00    +0.000 OA
ATOM     19  C   UNL     1       1.800   9.354  18.259  0.00  0.00    +0.000 C 
ATOM     20  N   UNL     1       0.733   9.490  19.133  0.00  0.00    +0.000 N 
ATOM     21  H   UNL     1       0.551   8.738  19.794  0.00  0.00    +0.000 HD
BRANCH  20  22
ATOM     22  C   UNL     1      -0.017  10.679  19.373  0.00  0.00    +0.000 A 
ATOM     23  C   UNL     1       0.486  11.735  20.148  0.00  0.00    +0.000 A 
ATOM     24  C   UNL     1      -0.294  12.852  20.429  0.00  0.00    +0.000 A 
ATOM     25  C   UNL     1      -1.589  12.927  19.936  0.00  0.00    +0.000 A 
ATOM     26  C   UNL     1      -2.093  11.898  19.126  0.00  0.00    +0.000 A 
ATOM     27  C   UNL     1      -3.396  11.978  18.614  0.00  0.00    +0.000 A 
ATOM     28  C   UNL     1      -3.885  10.960  17.808  0.00  0.00    +0.000 A 
ATOM     29  C   UNL     1      -3.048   9.893  17.540  0.00  0.00    +0.000 A 
ATOM     30  N   UNL     1      -1.790   9.770  18.023  0.00  0.00    +0.000 NA
ATOM     31  C   UNL     1      -1.308  10.764  18.814  0.00  0.00    +0.000 A 
ENDBRANCH  20  22
ENDBRANCH   1  19
TORSDOF 4
ENDMDL
MODEL 9
REMARK VINA RESULT:      -8.7      1.330      2.312
REMARK  Name = 
REMARK  4 active torsions:
REMARK  status: ('A' for Active; 'I' for Inactive)
REMARK    1  A    between atoms: C_2  and  C_14
REMARK    2  A    between atoms: N_3  and  C_4
REMARK    3  A    between atoms: C_16  and  C_17
REMARK    4  A    between atoms: C_23  and  N_24
REMARK                            x       y       z     vdW  Elec       q    Type
REMARK                         _______ _______ _______ _____ _____    ______ ____
ROOT
ATOM      1  C   UNL     1       2.560   8.241  17.902  0.00  0.00    +0.000 A 
ATOM      2  C   UNL     1       2.258   6.961  18.314  0.00  0.00    +0.000 A 
ATOM      3  C   UNL     1       3.248   5.979  17.969  0.00  0.00    +0.000 A 
ATOM      4  C   UNL     1       4.353   6.564  17.326  0.00  0.00    +0.000 A 
ATOM      5  S   UNL     1       4.035   8.267  17.074  0.00  0.00    +0.000 S 
ENDROOT
BRANCH   3   6
ATOM      6  C   UNL     1       3.118   4.555  18.317  0.00  0.00    +0.000 A 
ATOM      7  C   UNL     1       2.236   3.712  17.631  0.00  0.00    +0.000 A 
ATOM      8  C   UNL     1       2.276   2.328  17.825  0.00  0.00    +0.000 A 
ATOM      9  C   UNL     1       3.117   1.784  18.790  0.00  0.00    +0.000 A 
ATOM     10  C   UNL     1       3.901   2.625  19.577  0.00  0.00    +0.000 A 
ATOM     11  C   UNL     1       3.909   4.002  19.336  0.00  0.00    +0.000 A 
ENDBRANCH   3   6
BRANCH   4  12
ATOM     12  N   UNL     1       5.570   6.039  16.945  0.00  0.00    +0.000 N 
ATOM     13  C   UNL     1       5.853   5.507  15.602  0.00  0.00    +0.000 C 
ATOM     14  C   UNL     1       6.652   4.197  15.684  0.00  0.00    +0.000 C 
ATOM     15  O   UNL     1       7.833   4.337  16.489  0.00  0.00    +0.000 OA
ATOM     16  C   UNL     1       7.475   4.756  17.816  0.00  0.00    +0.000 C 
ATOM     17  C   UNL     1       6.772   6.121  17.794  0.00  0.00    +0.000 C 
ENDBRANCH   4  12
BRANCH   1  19
ATOM     18  O   UNL     1       2.230  10.544  18.006  0.00  0.00    +0.000 OA
ATOM     19  C   UNL     1       1.745   9.423  18.167  0.00  0.00    +0.000 C 
ATOM     20  N   UNL     1       0.460   9.204  18.639  0.00  0.00    +0.000 N 
ATOM     21  H   UNL     1       0.199   8.257  18.905  0.00  0.00    +0.000 HD
BRANCH  20  22
ATOM     22  C   UNL     1      -0.486  10.203  19.014  0.00  0.00    +0.000 A 
ATOM     23  C   UNL     1      -1.219  10.930  18.063  0.00  0.00    +0.000 A 
ATOM     24  C   UNL     1      -2.080  11.951  18.451  0.00  0.00    +0.000 A 
ATOM     25  C   UNL     1      -2.221  12.256  19.797  0.00  0.00    +0.000 A 
ATOM     26  C   UNL     1      -1.527  11.512  20.763  0.00  0.00    +0.000 A 
ATOM     27  C   UNL     1      -1.678  11.808  22.125  0.00  0.00    +0.000 A 
ATOM     28  C   UNL     1      -0.993  11.063  23.075  0.00  0.00    +0.000 A 
ATOM     29  C   UNL     1      -0.178  10.041  22.625  0.00  0.00    +0.000 A 
ATOM     30  N   UNL     1       0.007   9.730  21.321  0.00  0.00    +0.000 NA
ATOM     31  C   UNL     1      -0.661  10.458  20.388  0.00  0.00    +0.000 A 
ENDBRANCH  20  22
ENDBRANCH   1  19
TORSDOF 4
ENDMDL
