MODEL 1
REMARK VINA RESULT:      -7.4      0.000      0.000
REMARK  Name = 
REMARK  3 active torsions:
REMARK  status: ('A' for Active; 'I' for Inactive)
REMARK    1  A    between atoms: S_2  and  C_4
REMARK    2  A    between atoms: S_2  and  N_14
REMARK    3  A    between atoms: N_22  and  C_23
REMARK                            x       y       z     vdW  Elec       q    Type
REMARK                         _______ _______ _______ _____ _____    ______ ____
ROOT
ATOM      1  N   UNL     1       0.905  11.234  20.612  0.00  0.00    +0.000 NA
ATOM      2  C   UNL     1      -0.482  11.363  21.219  0.00  0.00    +0.000 C 
ATOM      3  C   UNL     1      -1.067  12.824  21.406  0.00  0.00    +0.000 C 
ATOM      4  N   UNL     1      -0.298  13.983  20.856  0.00  0.00    +0.000 N 
ATOM      5  C   UNL     1      -0.057  15.079  21.656  0.00  0.00    +0.000 A 
ATOM      6  N   UNL     1       0.159  15.089  22.957  0.00  0.00    +0.000 NA
ATOM      7  N   UNL     1       0.848  16.243  23.229  0.00  0.00    +0.000 NA
ATOM      8  N   UNL     1       1.023  16.972  22.137  0.00  0.00    +0.000 NA
ATOM      9  N   UNL     1       0.356  16.332  21.145  0.00  0.00    +0.000 N 
ATOM     10  C   UNL     1       0.903  13.614  20.089  0.00  0.00    +0.000 C 
ATOM     11  C   UNL     1       1.646  12.507  20.842  0.00  0.00    +0.000 C 
ENDROOT
BRANCH   9  12
ATOM     12  C   UNL     1       0.264  16.868  19.826  0.00  0.00    +0.000 A 
ATOM     13  C   UNL     1      -0.993  17.186  19.286  0.00  0.00    +0.000 A 
ATOM     14  C   UNL     1      -1.088  17.778  18.020  0.00  0.00    +0.000 A 
ATOM     15  C   UNL     1       0.062  18.037  17.273  0.00  0.00    +0.000 A 
ATOM     16  C   UNL     1       1.311  17.700  17.794  0.00  0.00    +0.000 A 
ATOM     17  C   UNL     1       1.412  17.118  19.061  0.00  0.00    +0.000 A 
ENDBRANCH   9  12
BRANCH   1  19
ATOM     18  O   UNL     1       2.043  11.576  18.337  0.00  0.00    +0.000 OA
ATOM     19  S   UNL     1       1.019  10.764  18.953  0.00  0.00    +0.000 S 
ATOM     20  O   UNL     1      -0.334  10.757  18.427  0.00  0.00    +0.000 OA
BRANCH  19  21
ATOM     21  C   UNL     1       1.620   9.110  18.898  0.00  0.00    +0.000 A 
ATOM     22  C   UNL     1       2.382   8.750  17.788  0.00  0.00    +0.000 A 
ATOM     23  C   UNL     1       2.837   7.446  17.658  0.00  0.00    +0.000 A 
ATOM     24  C   UNL     1       2.581   6.509  18.662  0.00  0.00    +0.000 A 
ATOM     25  C   UNL     1       2.948   5.171  18.471  0.00  0.00    +0.000 A 
ATOM     26  C   UNL     1       2.795   4.243  19.497  0.00  0.00    +0.000 A 
ATOM     27  C   UNL     1       2.305   4.654  20.733  0.00  0.00    +0.000 A 
ATOM     28  C   UNL     1       1.884   5.976  20.921  0.00  0.00    +0.000 A 
ATOM     29  C   UNL     1       1.965   6.913  19.871  0.00  0.00    +0.000 A 
ATOM     30  C   UNL     1       1.460   8.229  19.973  0.00  0.00    +0.000 A 
ENDBRANCH  19  21
ENDBRANCH   1  19
TORSDOF 3
ENDMDL
MODEL 2
REMARK VINA RESULT:      -7.2      2.082      3.622
REMARK  Name = 
REMARK  3 active torsions:
REMARK  status: ('A' for Active; 'I' for Inactive)
REMARK    1  A    between atoms: S_2  and  C_4
REMARK    2  A    between atoms: S_2  and  N_14
REMARK    3  A    between atoms: N_22  and  C_23
REMARK                            x       y       z     vdW  Elec       q    Type
REMARK                         _______ _______ _______ _____ _____    ______ ____
ROOT
ATOM      1  N   UNL     1       0.691  11.703  19.358  0.00  0.00    +0.000 NA
ATOM      2  C   UNL     1       1.875  12.623  19.601  0.00  0.00    +0.000 C 
ATOM      3  C   UNL     1       1.598  13.996  20.344  0.00  0.00    +0.000 C 
ATOM      4  N   UNL     1       0.229  14.254  20.888  0.00  0.00    +0.000 N 
ATOM      5  C   UNL     1      -0.397  15.451  20.612  0.00  0.00    +0.000 A 
ATOM      6  N   UNL     1      -0.309  16.163  19.506  0.00  0.00    +0.000 NA
ATOM      7  N   UNL     1      -1.440  16.936  19.450  0.00  0.00    +0.000 NA
ATOM      8  N   UNL     1      -2.204  16.757  20.517  0.00  0.00    +0.000 NA
ATOM      9  N   UNL     1      -1.519  15.920  21.335  0.00  0.00    +0.000 N 
ATOM     10  C   UNL     1      -0.707  13.125  20.758  0.00  0.00    +0.000 C 
ATOM     11  C   UNL     1      -0.556  12.520  19.359  0.00  0.00    +0.000 C 
ENDROOT
BRANCH   9  12
ATOM     12  C   UNL     1      -2.008  15.553  22.623  0.00  0.00    +0.000 A 
ATOM     13  C   UNL     1      -3.275  14.960  22.747  0.00  0.00    +0.000 A 
ATOM     14  C   UNL     1      -3.735  14.532  23.999  0.00  0.00    +0.000 A 
ATOM     15  C   UNL     1      -2.950  14.710  25.139  0.00  0.00    +0.000 A 
ATOM     16  C   UNL     1      -1.702  15.321  25.025  0.00  0.00    +0.000 A 
ATOM     17  C   UNL     1      -1.235  15.742  23.777  0.00  0.00    +0.000 A 
ENDBRANCH   9  12
BRANCH   1  19
ATOM     18  O   UNL     1      -0.885   9.956  20.385  0.00  0.00    +0.000 OA
ATOM     19  S   UNL     1       0.510  10.331  20.393  0.00  0.00    +0.000 S 
ATOM     20  O   UNL     1       1.181  10.656  21.638  0.00  0.00    +0.000 OA
BRANCH  19  21
ATOM     21  C   UNL     1       1.373   8.982  19.660  0.00  0.00    +0.000 A 
ATOM     22  C   UNL     1       1.913   9.191  18.391  0.00  0.00    +0.000 A 
ATOM     23  C   UNL     1       2.555   8.150  17.736  0.00  0.00    +0.000 A 
ATOM     24  C   UNL     1       2.711   6.913  18.366  0.00  0.00    +0.000 A 
ATOM     25  C   UNL     1       3.262   5.839  17.656  0.00  0.00    +0.000 A 
ATOM     26  C   UNL     1       3.520   4.629  18.293  0.00  0.00    +0.000 A 
ATOM     27  C   UNL     1       3.261   4.495  19.653  0.00  0.00    +0.000 A 
ATOM     28  C   UNL     1       2.661   5.543  20.363  0.00  0.00    +0.000 A 
ATOM     29  C   UNL     1       2.327   6.750  19.719  0.00  0.00    +0.000 A 
ATOM     30  C   UNL     1       1.627   7.798  20.360  0.00  0.00    +0.000 A 
ENDBRANCH  19  21
ENDBRANCH   1  19
TORSDOF 3
ENDMDL
MODEL 3
REMARK VINA RESULT:      -7.2      1.235      1.933
REMARK  Name = 
REMARK  3 active torsions:
REMARK  status: ('A' for Active; 'I' for Inactive)
REMARK    1  A    between atoms: S_2  and  C_4
REMARK    2  A    between atoms: S_2  and  N_14
REMARK    3  A    between atoms: N_22  and  C_23
REMARK                            x       y       z     vdW  Elec       q    Type
REMARK                         _______ _______ _______ _____ _____    ______ ____
ROOT
ATOM      1  N   UNL     1       0.671  10.330  20.177  0.00  0.00    +0.000 NA
ATOM      2  C   UNL     1      -0.828  10.461  20.386  0.00  0.00    +0.000 C 
ATOM      3  C   UNL     1      -1.421  11.922  20.549  0.00  0.00    +0.000 C 
ATOM      4  N   UNL     1      -0.512  13.093  20.351  0.00  0.00    +0.000 N 
ATOM      5  C   UNL     1      -0.488  14.101  21.291  0.00  0.00    +0.000 A 
ATOM      6  N   UNL     1      -0.644  13.983  22.595  0.00  0.00    +0.000 NA
ATOM      7  N   UNL     1      -0.042  15.077  23.159  0.00  0.00    +0.000 NA
ATOM      8  N   UNL     1       0.442  15.895  22.237  0.00  0.00    +0.000 NA
ATOM      9  N   UNL     1       0.069  15.377  21.040  0.00  0.00    +0.000 N 
ATOM     10  C   UNL     1       0.850  12.746  19.913  0.00  0.00    +0.000 C 
ATOM     11  C   UNL     1       1.337  11.544  20.729  0.00  0.00    +0.000 C 
ENDROOT
BRANCH   9  12
ATOM     12  C   UNL     1       0.358  16.034  19.808  0.00  0.00    +0.000 A 
ATOM     13  C   UNL     1      -0.691  16.534  19.019  0.00  0.00    +0.000 A 
ATOM     14  C   UNL     1      -0.415  17.242  17.843  0.00  0.00    +0.000 A 
ATOM     15  C   UNL     1       0.904  17.439  17.430  0.00  0.00    +0.000 A 
ATOM     16  C   UNL     1       1.948  16.923  18.196  0.00  0.00    +0.000 A 
ATOM     17  C   UNL     1       1.678  16.224  19.375  0.00  0.00    +0.000 A 
ENDBRANCH   9  12
BRANCH   1  19
ATOM     18  O   UNL     1       2.201  11.031  18.239  0.00  0.00    +0.000 OA
ATOM     19  S   UNL     1       1.237  10.009  18.576  0.00  0.00    +0.000 S 
ATOM     20  O   UNL     1       0.061   9.802  17.751  0.00  0.00    +0.000 OA
BRANCH  19  21
ATOM     21  C   UNL     1       2.136   8.495  18.613  0.00  0.00    +0.000 A 
ATOM     22  C   UNL     1       1.834   7.605  19.642  0.00  0.00    +0.000 A 
ATOM     23  C   UNL     1       2.546   6.420  19.759  0.00  0.00    +0.000 A 
ATOM     24  C   UNL     1       3.524   6.092  18.818  0.00  0.00    +0.000 A 
ATOM     25  C   UNL     1       4.311   4.949  19.007  0.00  0.00    +0.000 A 
ATOM     26  C   UNL     1       5.220   4.549  18.032  0.00  0.00    +0.000 A 
ATOM     27  C   UNL     1       5.324   5.269  16.846  0.00  0.00    +0.000 A 
ATOM     28  C   UNL     1       4.582   6.443  16.667  0.00  0.00    +0.000 A 
ATOM     29  C   UNL     1       3.709   6.903  17.673  0.00  0.00    +0.000 A 
ATOM     30  C   UNL     1       3.017   8.133  17.589  0.00  0.00    +0.000 A 
ENDBRANCH  19  21
ENDBRANCH   1  19
TORSDOF 3
ENDMDL
MODEL 4
REMARK VINA RESULT:      -7.2      2.138      3.363
REMARK  Name = 
REMARK  3 active torsions:
REMARK  status: ('A' for Active; 'I' for Inactive)
REMARK    1  A    between atoms: S_2  and  C_4
REMARK    2  A    between atoms: S_2  and  N_14
REMARK    3  A    between atoms: N_22  and  C_23
REMARK                            x       y       z     vdW  Elec       q    Type
REMARK                         _______ _______ _______ _____ _____    ______ ____
ROOT
ATOM      1  N   UNL     1       1.016  12.202  18.874  0.00  0.00    +0.000 NA
ATOM      2  C   UNL     1       2.176  13.087  19.294  0.00  0.00    +0.000 C 
ATOM      3  C   UNL     1       1.836  14.547  19.809  0.00  0.00    +0.000 C 
ATOM      4  N   UNL     1       0.402  14.930  19.988  0.00  0.00    +0.000 N 
ATOM      5  C   UNL     1      -0.057  16.115  19.453  0.00  0.00    +0.000 A 
ATOM      6  N   UNL     1       0.332  16.691  18.333  0.00  0.00    +0.000 NA
ATOM      7  N   UNL     1      -0.697  17.504  17.935  0.00  0.00    +0.000 NA
ATOM      8  N   UNL     1      -1.695  17.484  18.805  0.00  0.00    +0.000 NA
ATOM      9  N   UNL     1      -1.277  16.716  19.842  0.00  0.00    +0.000 N 
ATOM     10  C   UNL     1      -0.559  13.838  19.756  0.00  0.00    +0.000 C 
ATOM     11  C   UNL     1      -0.136  13.071  18.500  0.00  0.00    +0.000 C 
ENDROOT
BRANCH   9  12
ATOM     12  C   UNL     1      -2.073  16.522  21.009  0.00  0.00    +0.000 A 
ATOM     13  C   UNL     1      -1.573  16.900  22.267  0.00  0.00    +0.000 A 
ATOM     14  C   UNL     1      -2.373  16.779  23.409  0.00  0.00    +0.000 A 
ATOM     15  C   UNL     1      -3.666  16.261  23.316  0.00  0.00    +0.000 A 
ATOM     16  C   UNL     1      -4.157  15.861  22.074  0.00  0.00    +0.000 A 
ATOM     17  C   UNL     1      -3.367  15.988  20.929  0.00  0.00    +0.000 A 
ENDBRANCH   9  12
BRANCH   1  19
ATOM     18  O   UNL     1      -0.916  10.782  19.792  0.00  0.00    +0.000 OA
ATOM     19  S   UNL     1       0.505  10.967  19.971  0.00  0.00    +0.000 S 
ATOM     20  O   UNL     1       1.048  11.313  21.271  0.00  0.00    +0.000 OA
BRANCH  19  21
ATOM     21  C   UNL     1       1.252   9.453  19.468  0.00  0.00    +0.000 A 
ATOM     22  C   UNL     1       1.891   9.444  18.229  0.00  0.00    +0.000 A 
ATOM     23  C   UNL     1       2.449   8.268  17.751  0.00  0.00    +0.000 A 
ATOM     24  C   UNL     1       2.422   7.109  18.531  0.00  0.00    +0.000 A 
ATOM     25  C   UNL     1       2.890   5.903  17.995  0.00  0.00    +0.000 A 
ATOM     26  C   UNL     1       2.967   4.761  18.787  0.00  0.00    +0.000 A 
ATOM     27  C   UNL     1       2.609   4.826  20.130  0.00  0.00    +0.000 A 
ATOM     28  C   UNL     1       2.089   6.011  20.665  0.00  0.00    +0.000 A 
ATOM     29  C   UNL     1       1.938   7.158  19.860  0.00  0.00    +0.000 A 
ATOM     30  C   UNL     1       1.324   8.345  20.319  0.00  0.00    +0.000 A 
ENDBRANCH  19  21
ENDBRANCH   1  19
TORSDOF 3
ENDMDL
MODEL 5
REMARK VINA RESULT:      -7.2      0.927      1.579
REMARK  Name = 
REMARK  3 active torsions:
REMARK  status: ('A' for Active; 'I' for Inactive)
REMARK    1  A    between atoms: S_2  and  C_4
REMARK    2  A    between atoms: S_2  and  N_14
REMARK    3  A    between atoms: N_22  and  C_23
REMARK                            x       y       z     vdW  Elec       q    Type
REMARK                         _______ _______ _______ _____ _____    ______ ____
ROOT
ATOM      1  N   UNL     1       0.166  11.425  20.393  0.00  0.00    +0.000 NA
ATOM      2  C   UNL     1      -1.338  11.629  20.462  0.00  0.00    +0.000 C 
ATOM      3  C   UNL     1      -1.881  13.115  20.375  0.00  0.00    +0.000 C 
ATOM      4  N   UNL     1      -0.913  14.219  20.092  0.00  0.00    +0.000 N 
ATOM      5  C   UNL     1      -0.919  15.347  20.884  0.00  0.00    +0.000 A 
ATOM      6  N   UNL     1      -1.175  15.417  22.175  0.00  0.00    +0.000 NA
ATOM      7  N   UNL     1      -0.573  16.560  22.631  0.00  0.00    +0.000 NA
ATOM      8  N   UNL     1       0.011  17.227  21.647  0.00  0.00    +0.000 NA
ATOM      9  N   UNL     1      -0.292  16.558  20.506  0.00  0.00    +0.000 N 
ATOM     10  C   UNL     1       0.463  13.773  19.815  0.00  0.00    +0.000 C 
ATOM     11  C   UNL     1       0.838  12.684  20.824  0.00  0.00    +0.000 C 
ENDROOT
BRANCH   9  12
ATOM     12  C   UNL     1       0.114  17.028  19.223  0.00  0.00    +0.000 A 
ATOM     13  C   UNL     1      -0.846  17.517  18.321  0.00  0.00    +0.000 A 
ATOM     14  C   UNL     1      -0.450  18.046  17.087  0.00  0.00    +0.000 A 
ATOM     15  C   UNL     1       0.899  18.071  16.729  0.00  0.00    +0.000 A 
ATOM     16  C   UNL     1       1.853  17.563  17.609  0.00  0.00    +0.000 A 
ATOM     17  C   UNL     1       1.464  17.044  18.846  0.00  0.00    +0.000 A 
ENDBRANCH   9  12
BRANCH   1  19
ATOM     18  O   UNL     1       1.988  11.686  18.603  0.00  0.00    +0.000 OA
ATOM     19  S   UNL     1       0.836  10.867  18.901  0.00  0.00    +0.000 S 
ATOM     20  O   UNL     1      -0.264  10.770  17.959  0.00  0.00    +0.000 OA
BRANCH  19  21
ATOM     21  C   UNL     1       1.459   9.240  19.161  0.00  0.00    +0.000 A 
ATOM     22  C   UNL     1       1.070   8.594  20.333  0.00  0.00    +0.000 A 
ATOM     23  C   UNL     1       1.572   7.334  20.625  0.00  0.00    +0.000 A 
ATOM     24  C   UNL     1       2.419   6.689  19.721  0.00  0.00    +0.000 A 
ATOM     25  C   UNL     1       3.005   5.467  20.073  0.00  0.00    +0.000 A 
ATOM     26  C   UNL     1       3.771   4.759  19.151  0.00  0.00    +0.000 A 
ATOM     27  C   UNL     1       3.926   5.251  17.859  0.00  0.00    +0.000 A 
ATOM     28  C   UNL     1       3.390   6.497  17.509  0.00  0.00    +0.000 A 
ATOM     29  C   UNL     1       2.672   7.261  18.451  0.00  0.00    +0.000 A 
ATOM     30  C   UNL     1       2.201   8.566  18.185  0.00  0.00    +0.000 A 
ENDBRANCH  19  21
ENDBRANCH   1  19
TORSDOF 3
ENDMDL
MODEL 6
REMARK VINA RESULT:      -7.1      2.240      3.477
REMARK  Name = 
REMARK  3 active torsions:
REMARK  status: ('A' for Active; 'I' for Inactive)
REMARK    1  A    between atoms: S_2  and  C_4
REMARK    2  A    between atoms: S_2  and  N_14
REMARK    3  A    between atoms: N_22  and  C_23
REMARK                            x       y       z     vdW  Elec       q    Type
REMARK                         _______ _______ _______ _____ _____    ______ ____
ROOT
ATOM      1  N   UNL     1       1.637  12.943  19.305  0.00  0.00    +0.000 NA
ATOM      2  C   UNL     1       2.736  13.664  20.067  0.00  0.00    +0.000 C 
ATOM      3  C   UNL     1       2.615  15.238  20.215  0.00  0.00    +0.000 C 
ATOM      4  N   UNL     1       1.372  15.912  19.727  0.00  0.00    +0.000 N 
ATOM      5  C   UNL     1       1.476  17.020  18.915  0.00  0.00    +0.000 A 
ATOM      6  N   UNL     1       2.397  17.261  18.003  0.00  0.00    +0.000 NA
ATOM      7  N   UNL     1       1.846  18.149  17.117  0.00  0.00    +0.000 NA
ATOM      8  N   UNL     1       0.623  18.503  17.481  0.00  0.00    +0.000 NA
ATOM      9  N   UNL     1       0.399  17.908  18.680  0.00  0.00    +0.000 N 
ATOM     10  C   UNL     1       0.326  14.996  19.243  0.00  0.00    +0.000 C 
ATOM     11  C   UNL     1       0.983  13.913  18.381  0.00  0.00    +0.000 C 
ENDROOT
BRANCH   9  12
ATOM     12  C   UNL     1      -0.802  18.120  19.418  0.00  0.00    +0.000 A 
ATOM     13  C   UNL     1      -2.048  17.935  18.795  0.00  0.00    +0.000 A 
ATOM     14  C   UNL     1      -3.232  18.072  19.530  0.00  0.00    +0.000 A 
ATOM     15  C   UNL     1      -3.189  18.417  20.882  0.00  0.00    +0.000 A 
ATOM     16  C   UNL     1      -1.956  18.627  21.498  0.00  0.00    +0.000 A 
ATOM     17  C   UNL     1      -0.771  18.482  20.772  0.00  0.00    +0.000 A 
ENDBRANCH   9  12
BRANCH   1  19
ATOM     18  O   UNL     1      -0.805  12.180  19.506  0.00  0.00    +0.000 OA
ATOM     19  S   UNL     1       0.447  12.089  20.221  0.00  0.00    +0.000 S 
ATOM     20  O   UNL     1       0.553  12.562  21.589  0.00  0.00    +0.000 OA
BRANCH  19  21
ATOM     21  C   UNL     1       0.880  10.381  20.214  0.00  0.00    +0.000 A 
ATOM     22  C   UNL     1       0.520   9.632  21.333  0.00  0.00    +0.000 A 
ATOM     23  C   UNL     1       0.883   8.296  21.413  0.00  0.00    +0.000 A 
ATOM     24  C   UNL     1       1.557   7.686  20.353  0.00  0.00    +0.000 A 
ATOM     25  C   UNL     1       2.014   6.369  20.490  0.00  0.00    +0.000 A 
ATOM     26  C   UNL     1       2.597   5.709  19.412  0.00  0.00    +0.000 A 
ATOM     27  C   UNL     1       2.696   6.349  18.180  0.00  0.00    +0.000 A 
ATOM     28  C   UNL     1       2.292   7.683  18.044  0.00  0.00    +0.000 A 
ATOM     29  C   UNL     1       1.765   8.391  19.143  0.00  0.00    +0.000 A 
ATOM     30  C   UNL     1       1.440   9.765  19.089  0.00  0.00    +0.000 A 
ENDBRANCH  19  21
ENDBRANCH   1  19
TORSDOF 3
ENDMDL
MODEL 7
REMARK VINA RESULT:      -7.0      1.603      1.972
REMARK  Name = 
REMARK  3 active torsions:
REMARK  status: ('A' for Active; 'I' for Inactive)
REMARK    1  A    between atoms: S_2  and  C_4
REMARK    2  A    between atoms: S_2  and  N_14
REMARK    3  A    between atoms: N_22  and  C_23
REMARK                            x       y       z     vdW  Elec       q    Type
REMARK                         _______ _______ _______ _____ _____    ______ ____
ROOT
ATOM      1  N   UNL     1       0.606  11.709  21.240  0.00  0.00    +0.000 NA
ATOM      2  C   UNL     1      -0.469  11.317  22.239  0.00  0.00    +0.000 C 
ATOM      3  C   UNL     1      -1.415  12.464  22.787  0.00  0.00    +0.000 C 
ATOM      4  N   UNL     1      -1.299  13.834  22.198  0.00  0.00    +0.000 N 
ATOM      5  C   UNL     1      -1.194  14.926  23.033  0.00  0.00    +0.000 A 
ATOM      6  N   UNL     1      -0.586  14.985  24.201  0.00  0.00    +0.000 NA
ATOM      7  N   UNL     1      -0.274  16.302  24.412  0.00  0.00    +0.000 NA
ATOM      8  N   UNL     1      -0.716  17.069  23.427  0.00  0.00    +0.000 NA
ATOM      9  N   UNL     1      -1.413  16.254  22.597  0.00  0.00    +0.000 N 
ATOM     10  C   UNL     1      -0.361  13.939  21.068  0.00  0.00    +0.000 C 
ATOM     11  C   UNL     1       0.911  13.158  21.412  0.00  0.00    +0.000 C 
ENDROOT
BRANCH   9  12
ATOM     12  C   UNL     1      -2.099  16.749  21.449  0.00  0.00    +0.000 A 
ATOM     13  C   UNL     1      -3.494  16.608  21.353  0.00  0.00    +0.000 A 
ATOM     14  C   UNL     1      -4.185  17.153  20.264  0.00  0.00    +0.000 A 
ATOM     15  C   UNL     1      -3.494  17.822  19.252  0.00  0.00    +0.000 A 
ATOM     16  C   UNL     1      -2.108  17.943  19.330  0.00  0.00    +0.000 A 
ATOM     17  C   UNL     1      -1.414  17.409  20.419  0.00  0.00    +0.000 A 
ENDBRANCH   9  12
BRANCH   1  19
ATOM     18  O   UNL     1       1.022  12.342  18.787  0.00  0.00    +0.000 OA
ATOM     19  S   UNL     1       0.327  11.348  19.573  0.00  0.00    +0.000 S 
ATOM     20  O   UNL     1      -1.103  11.153  19.421  0.00  0.00    +0.000 OA
BRANCH  19  21
ATOM     21  C   UNL     1       1.115   9.815  19.212  0.00  0.00    +0.000 A 
ATOM     22  C   UNL     1       1.829   9.736  18.017  0.00  0.00    +0.000 A 
ATOM     23  C   UNL     1       2.423   8.539  17.648  0.00  0.00    +0.000 A 
ATOM     24  C   UNL     1       2.357   7.430  18.495  0.00  0.00    +0.000 A 
ATOM     25  C   UNL     1       2.866   6.198  18.065  0.00  0.00    +0.000 A 
ATOM     26  C   UNL     1       2.903   5.108  18.930  0.00  0.00    +0.000 A 
ATOM     27  C   UNL     1       2.462   5.252  20.242  0.00  0.00    +0.000 A 
ATOM     28  C   UNL     1       1.902   6.462  20.669  0.00  0.00    +0.000 A 
ATOM     29  C   UNL     1       1.792   7.556  19.787  0.00  0.00    +0.000 A 
ATOM     30  C   UNL     1       1.142   8.762  20.133  0.00  0.00    +0.000 A 
ENDBRANCH  19  21
ENDBRANCH   1  19
TORSDOF 3
ENDMDL
MODEL 8
REMARK VINA RESULT:      -7.0      1.082      1.911
REMARK  Name = 
REMARK  3 active torsions:
REMARK  status: ('A' for Active; 'I' for Inactive)
REMARK    1  A    between atoms: S_2  and  C_4
REMARK    2  A    between atoms: S_2  and  N_14
REMARK    3  A    between atoms: N_22  and  C_23
REMARK                            x       y       z     vdW  Elec       q    Type
REMARK                         _______ _______ _______ _____ _____    ______ ____
ROOT
ATOM      1  N   UNL     1      -0.102  11.897  20.623  0.00  0.00    +0.000 NA
ATOM      2  C   UNL     1      -1.607  12.086  20.711  0.00  0.00    +0.000 C 
ATOM      3  C   UNL     1      -2.166  13.566  20.619  0.00  0.00    +0.000 C 
ATOM      4  N   UNL     1      -1.213  14.678  20.312  0.00  0.00    +0.000 N 
ATOM      5  C   UNL     1      -1.219  15.812  21.095  0.00  0.00    +0.000 A 
ATOM      6  N   UNL     1      -1.460  15.892  22.388  0.00  0.00    +0.000 NA
ATOM      7  N   UNL     1      -0.863  17.045  22.826  0.00  0.00    +0.000 NA
ATOM      8  N   UNL     1      -0.299  17.708  21.828  0.00  0.00    +0.000 NA
ATOM      9  N   UNL     1      -0.610  17.026  20.698  0.00  0.00    +0.000 N 
ATOM     10  C   UNL     1       0.163  14.243  20.021  0.00  0.00    +0.000 C 
ATOM     11  C   UNL     1       0.563  13.166  21.034  0.00  0.00    +0.000 C 
ENDROOT
BRANCH   9  12
ATOM     12  C   UNL     1      -0.226  17.488  19.405  0.00  0.00    +0.000 A 
ATOM     13  C   UNL     1       1.121  17.428  19.012  0.00  0.00    +0.000 A 
ATOM     14  C   UNL     1       1.498  17.814  17.720  0.00  0.00    +0.000 A 
ATOM     15  C   UNL     1       0.543  18.284  16.816  0.00  0.00    +0.000 A 
ATOM     16  C   UNL     1      -0.791  18.370  17.209  0.00  0.00    +0.000 A 
ATOM     17  C   UNL     1      -1.174  17.977  18.494  0.00  0.00    +0.000 A 
ENDBRANCH   9  12
BRANCH   1  19
ATOM     18  O   UNL     1       1.715  12.137  18.826  0.00  0.00    +0.000 OA
ATOM     19  S   UNL     1       0.554  11.332  19.127  0.00  0.00    +0.000 S 
ATOM     20  O   UNL     1      -0.552  11.251  18.191  0.00  0.00    +0.000 OA
BRANCH  19  21
ATOM     21  C   UNL     1       1.156   9.697  19.383  0.00  0.00    +0.000 A 
ATOM     22  C   UNL     1       0.844   9.090  20.599  0.00  0.00    +0.000 A 
ATOM     23  C   UNL     1       1.337   7.826  20.884  0.00  0.00    +0.000 A 
ATOM     24  C   UNL     1       2.096   7.136  19.936  0.00  0.00    +0.000 A 
ATOM     25  C   UNL     1       2.678   5.909  20.274  0.00  0.00    +0.000 A 
ATOM     26  C   UNL     1       3.352   5.158  19.314  0.00  0.00    +0.000 A 
ATOM     27  C   UNL     1       3.418   5.614  18.002  0.00  0.00    +0.000 A 
ATOM     28  C   UNL     1       2.886   6.864  17.661  0.00  0.00    +0.000 A 
ATOM     29  C   UNL     1       2.263   7.670  18.635  0.00  0.00    +0.000 A 
ATOM     30  C   UNL     1       1.803   8.980  18.370  0.00  0.00    +0.000 A 
ENDBRANCH  19  21
ENDBRANCH   1  19
TORSDOF 3
ENDMDL
MODEL 9
REMARK VINA RESULT:      -7.0      3.275      4.590
REMARK  Name = 
REMARK  3 active torsions:
REMARK  status: ('A' for Active; 'I' for Inactive)
REMARK    1  A    between atoms: S_2  and  C_4
REMARK    2  A    between atoms: S_2  and  N_14
REMARK    3  A    between atoms: N_22  and  C_23
REMARK                            x       y       z     vdW  Elec       q    Type
REMARK                         _______ _______ _______ _____ _____    ______ ____
ROOT
ATOM      1  N   UNL     1      -1.573  11.732  21.279  0.00  0.00    +0.000 NA
ATOM      2  C   UNL     1      -1.794  12.740  20.164  0.00  0.00    +0.000 C 
ATOM      3  C   UNL     1      -2.294  14.188  20.573  0.00  0.00    +0.000 C 
ATOM      4  N   UNL     1      -2.388  14.532  22.025  0.00  0.00    +0.000 N 
ATOM      5  C   UNL     1      -3.540  15.109  22.513  0.00  0.00    +0.000 A 
ATOM      6  N   UNL     1      -4.778  14.885  22.116  0.00  0.00    +0.000 NA
ATOM      7  N   UNL     1      -5.591  15.229  23.164  0.00  0.00    +0.000 NA
ATOM      8  N   UNL     1      -4.894  15.706  24.184  0.00  0.00    +0.000 NA
ATOM      9  N   UNL     1      -3.605  15.764  23.765  0.00  0.00    +0.000 N 
ATOM     10  C   UNL     1      -1.891  13.489  22.937  0.00  0.00    +0.000 C 
ATOM     11  C   UNL     1      -2.402  12.129  22.452  0.00  0.00    +0.000 C 
ENDROOT
BRANCH   9  12
ATOM     12  C   UNL     1      -2.567  16.299  24.584  0.00  0.00    +0.000 A 
ATOM     13  C   UNL     1      -2.042  17.572  24.306  0.00  0.00    +0.000 A 
ATOM     14  C   UNL     1      -1.073  18.134  25.146  0.00  0.00    +0.000 A 
ATOM     15  C   UNL     1      -0.601  17.427  26.253  0.00  0.00    +0.000 A 
ATOM     16  C   UNL     1      -1.099  16.153  26.518  0.00  0.00    +0.000 A 
ATOM     17  C   UNL     1      -2.074  15.591  25.689  0.00  0.00    +0.000 A 
ENDBRANCH   9  12
BRANCH   1  19
ATOM     18  O   UNL     1       0.003  10.741  23.046  0.00  0.00    +0.000 OA
ATOM     19  S   UNL     1       0.054  11.419  21.772  0.00  0.00    +0.000 S 
ATOM     20  O   UNL     1       0.782  12.667  21.627  0.00  0.00    +0.000 OA
BRANCH  19  21
ATOM     21  C   UNL     1       0.750  10.263  20.640  0.00  0.00    +0.000 A 
ATOM     22  C   UNL     1       1.085  10.739  19.374  0.00  0.00    +0.000 A 
ATOM     23  C   UNL     1       1.584   9.866  18.419  0.00  0.00    +0.000 A 
ATOM     24  C   UNL     1       1.804   8.524  18.740  0.00  0.00    +0.000 A 
ATOM     25  C   UNL     1       2.204   7.630  17.740  0.00  0.00    +0.000 A 
ATOM     26  C   UNL     1       2.527   6.313  18.057  0.00  0.00    +0.000 A 
ATOM     27  C   UNL     1       2.485   5.892  19.383  0.00  0.00    +0.000 A 
ATOM     28  C   UNL     1       2.037   6.761  20.385  0.00  0.00    +0.000 A 
ATOM     29  C   UNL     1       1.638   8.076  20.072  0.00  0.00    +0.000 A 
ATOM     30  C   UNL     1       1.080   8.958  21.025  0.00  0.00    +0.000 A 
ENDBRANCH  19  21
ENDBRANCH   1  19
TORSDOF 3
ENDMDL
