MODEL 1
REMARK VINA RESULT:      -8.2      0.000      0.000
REMARK  Name = 
REMARK  9 active torsions:
REMARK  status: ('A' for Active; 'I' for Inactive)
REMARK    1  A    between atoms: C_1  and  N_2
REMARK    2  A    between atoms: N_2  and  C_3
REMARK    3  A    between atoms: C_3  and  C_4
REMARK    4  A    between atoms: C_6  and  C_7
REMARK    5  A    between atoms: C_7  and  C_8
REMARK    6  A    between atoms: C_8  and  O_9
REMARK    7  A    between atoms: C_11  and  N_12
REMARK    8  A    between atoms: C_19  and  C_20
REMARK    9  A    between atoms: N_31  and  C_32
REMARK                            x       y       z     vdW  Elec       q    Type
REMARK                         _______ _______ _______ _____ _____    ______ ____
ROOT
ATOM      1  C   UNL     1      -4.132  11.548  17.750  0.00  0.00    +0.000 A 
ATOM      2  C   UNL     1      -4.106  11.043  16.439  0.00  0.00    +0.000 A 
ATOM      3  C   UNL     1      -3.040  10.243  16.010  0.00  0.00    +0.000 A 
ATOM      4  C   UNL     1      -2.034   9.912  16.913  0.00  0.00    +0.000 A 
ATOM      5  C   UNL     1      -1.864  10.721  18.041  0.00  0.00    +0.000 A 
ATOM      6  C   UNL     1      -2.975  11.406  18.543  0.00  0.00    +0.000 A 
ENDROOT
BRANCH   5   7
ATOM      7  N   UNL     1      -0.515  11.249  18.289  0.00  0.00    +0.000 N 
ATOM      8  C   UNL     1       0.211  10.429  19.288  0.00  0.00    +0.000 C 
ATOM      9  C   UNL     1      -0.135  11.092  20.589  0.00  0.00    +0.000 A 
ATOM     10  C   UNL     1      -0.432  12.426  20.301  0.00  0.00    +0.000 A 
ATOM     11  C   UNL     1      -0.971  13.292  21.235  0.00  0.00    +0.000 A 
ATOM     12  C   UNL     1      -1.223  12.787  22.509  0.00  0.00    +0.000 A 
ATOM     13  C   UNL     1      -0.916  11.449  22.820  0.00  0.00    +0.000 A 
ATOM     14  C   UNL     1      -0.350  10.575  21.866  0.00  0.00    +0.000 A 
ATOM     15  C   UNL     1      -0.482  12.569  18.825  0.00  0.00    +0.000 C 
ATOM     16  O   UNL     1      -0.689  13.620  18.249  0.00  0.00    +0.000 OA
BRANCH  14  17
ATOM     17  C   UNL     1      -0.091   9.142  22.247  0.00  0.00    +0.000 C 
ATOM     18  F   UNL     1      -0.903   8.246  21.620  0.00  0.00    +0.000 F 
ATOM     19  F   UNL     1       1.180   8.751  21.952  0.00  0.00    +0.000 F 
ATOM     20  F   UNL     1      -0.250   8.915  23.580  0.00  0.00    +0.000 F 
ENDBRANCH  14  17
ENDBRANCH   5   7
BRANCH   1  21
ATOM     21  C   UNL     1      -5.323  12.357  18.244  0.00  0.00    +0.000 C 
BRANCH  21  23
ATOM     22  C   UNL     1      -6.839  10.526  19.072  0.00  0.00    +0.000 C 
ATOM     23  N   UNL     1      -6.098  11.744  19.356  0.00  0.00    +0.000 N 
ATOM     24  C   UNL     1      -6.683  12.688  20.174  0.00  0.00    +0.000 A 
ATOM     25  N   UNL     1      -6.545  14.000  20.086  0.00  0.00    +0.000 NA
ATOM     26  N   UNL     1      -7.332  14.605  21.035  0.00  0.00    +0.000 NA
ATOM     27  C   UNL     1      -7.916  13.652  21.715  0.00  0.00    +0.000 A 
ATOM     28  N   UNL     1      -7.524  12.435  21.237  0.00  0.00    +0.000 N 
ATOM     29  C   UNL     1      -7.916  11.189  21.829  0.00  0.00    +0.000 C 
ENDBRANCH  21  23
ENDBRANCH   1  21
BRANCH   3  30
ATOM     30  C   UNL     1      -2.800   9.932  14.547  0.00  0.00    +0.000 C 
BRANCH  30  31
ATOM     31  C   UNL     1      -4.040   9.947  13.665  0.00  0.00    +0.000 C 
BRANCH  31  32
ATOM     32  O   UNL     1      -3.682   9.900  12.296  0.00  0.00    +0.000 OA
ATOM     33  H   UNL     1      -2.711   9.965  12.260  0.00  0.00    +0.000 HD
ENDBRANCH  31  32
ENDBRANCH  30  31
ENDBRANCH   3  30
TORSDOF 7
ENDMDL
MODEL 2
REMARK VINA RESULT:      -7.7      3.284      5.397
REMARK  Name = 
REMARK  9 active torsions:
REMARK  status: ('A' for Active; 'I' for Inactive)
REMARK    1  A    between atoms: C_1  and  N_2
REMARK    2  A    between atoms: N_2  and  C_3
REMARK    3  A    between atoms: C_3  and  C_4
REMARK    4  A    between atoms: C_6  and  C_7
REMARK    5  A    between atoms: C_7  and  C_8
REMARK    6  A    between atoms: C_8  and  O_9
REMARK    7  A    between atoms: C_11  and  N_12
REMARK    8  A    between atoms: C_19  and  C_20
REMARK    9  A    between atoms: N_31  and  C_32
REMARK                            x       y       z     vdW  Elec       q    Type
REMARK                         _______ _______ _______ _____ _____    ______ ____
ROOT
ATOM      1  C   UNL     1      -2.016  12.899  22.927  0.00  0.00    +0.000 A 
ATOM      2  C   UNL     1      -1.733  11.523  22.893  0.00  0.00    +0.000 A 
ATOM      3  C   UNL     1      -0.548  11.058  22.310  0.00  0.00    +0.000 A 
ATOM      4  C   UNL     1       0.369  11.980  21.812  0.00  0.00    +0.000 A 
ATOM      5  C   UNL     1      -0.088  13.262  21.491  0.00  0.00    +0.000 A 
ATOM      6  C   UNL     1      -1.191  13.769  22.185  0.00  0.00    +0.000 A 
ENDROOT
BRANCH   5   7
ATOM      7  N   UNL     1       0.211  13.761  20.141  0.00  0.00    +0.000 N 
ATOM      8  C   UNL     1      -0.898  13.473  19.201  0.00  0.00    +0.000 C 
ATOM      9  C   UNL     1      -0.525  12.133  18.636  0.00  0.00    +0.000 A 
ATOM     10  C   UNL     1       0.864  12.021  18.730  0.00  0.00    +0.000 A 
ATOM     11  C   UNL     1       1.540  10.843  18.473  0.00  0.00    +0.000 A 
ATOM     12  C   UNL     1       0.781   9.733  18.110  0.00  0.00    +0.000 A 
ATOM     13  C   UNL     1      -0.618   9.831  17.996  0.00  0.00    +0.000 A 
ATOM     14  C   UNL     1      -1.301  11.043  18.243  0.00  0.00    +0.000 A 
ATOM     15  C   UNL     1       1.355  13.171  19.529  0.00  0.00    +0.000 C 
ATOM     16  O   UNL     1       2.529  13.382  19.769  0.00  0.00    +0.000 OA
BRANCH  14  17
ATOM     17  C   UNL     1      -2.804  11.069  18.153  0.00  0.00    +0.000 C 
ATOM     18  F   UNL     1      -3.283  11.804  17.111  0.00  0.00    +0.000 F 
ATOM     19  F   UNL     1      -3.333   9.824  17.996  0.00  0.00    +0.000 F 
ATOM     20  F   UNL     1      -3.389  11.585  19.268  0.00  0.00    +0.000 F 
ENDBRANCH  14  17
ENDBRANCH   5   7
BRANCH   1  21
ATOM     21  C   UNL     1      -3.268  13.416  23.623  0.00  0.00    +0.000 C 
BRANCH  21  23
ATOM     22  C   UNL     1      -4.539  15.100  22.252  0.00  0.00    +0.000 C 
ATOM     23  N   UNL     1      -4.414  13.734  22.731  0.00  0.00    +0.000 N 
ATOM     24  C   UNL     1      -5.563  13.059  23.089  0.00  0.00    +0.000 A 
ATOM     25  N   UNL     1      -5.681  12.161  24.051  0.00  0.00    +0.000 NA
ATOM     26  N   UNL     1      -6.992  11.763  24.144  0.00  0.00    +0.000 NA
ATOM     27  C   UNL     1      -7.655  12.401  23.213  0.00  0.00    +0.000 A 
ATOM     28  N   UNL     1      -6.805  13.202  22.507  0.00  0.00    +0.000 N 
ATOM     29  C   UNL     1      -7.207  13.963  21.360  0.00  0.00    +0.000 C 
ENDBRANCH  21  23
ENDBRANCH   1  21
BRANCH   3  30
ATOM     30  C   UNL     1      -0.333   9.599  21.968  0.00  0.00    +0.000 C 
BRANCH  30  31
ATOM     31  C   UNL     1       1.110   9.195  21.708  0.00  0.00    +0.000 C 
BRANCH  31  32
ATOM     32  O   UNL     1       1.866   9.236  22.904  0.00  0.00    +0.000 OA
ATOM     33  H   UNL     1       1.520   8.529  23.477  0.00  0.00    +0.000 HD
ENDBRANCH  31  32
ENDBRANCH  30  31
ENDBRANCH   3  30
TORSDOF 7
ENDMDL
MODEL 3
REMARK VINA RESULT:      -7.5      6.820      9.414
REMARK  Name = 
REMARK  9 active torsions:
REMARK  status: ('A' for Active; 'I' for Inactive)
REMARK    1  A    between atoms: C_1  and  N_2
REMARK    2  A    between atoms: N_2  and  C_3
REMARK    3  A    between atoms: C_3  and  C_4
REMARK    4  A    between atoms: C_6  and  C_7
REMARK    5  A    between atoms: C_7  and  C_8
REMARK    6  A    between atoms: C_8  and  O_9
REMARK    7  A    between atoms: C_11  and  N_12
REMARK    8  A    between atoms: C_19  and  C_20
REMARK    9  A    between atoms: N_31  and  C_32
REMARK                            x       y       z     vdW  Elec       q    Type
REMARK                         _______ _______ _______ _____ _____    ______ ____
ROOT
ATOM      1  C   UNL     1       2.546   6.451  19.220  0.00  0.00    +0.000 A 
ATOM      2  C   UNL     1       1.477   5.567  19.441  0.00  0.00    +0.000 A 
ATOM      3  C   UNL     1       1.702   4.316  20.028  0.00  0.00    +0.000 A 
ATOM      4  C   UNL     1       2.990   3.982  20.437  0.00  0.00    +0.000 A 
ATOM      5  C   UNL     1       4.066   4.666  19.863  0.00  0.00    +0.000 A 
ATOM      6  C   UNL     1       3.859   5.972  19.408  0.00  0.00    +0.000 A 
ENDROOT
BRANCH   5   7
ATOM      7  N   UNL     1       5.136   3.852  19.268  0.00  0.00    +0.000 N 
ATOM      8  C   UNL     1       6.356   4.658  19.026  0.00  0.00    +0.000 C 
ATOM      9  C   UNL     1       6.157   5.166  17.628  0.00  0.00    +0.000 A 
ATOM     10  C   UNL     1       5.321   4.256  16.977  0.00  0.00    +0.000 A 
ATOM     11  C   UNL     1       4.775   4.499  15.731  0.00  0.00    +0.000 A 
ATOM     12  C   UNL     1       5.085   5.713  15.119  0.00  0.00    +0.000 A 
ATOM     13  C   UNL     1       5.938   6.634  15.754  0.00  0.00    +0.000 A 
ATOM     14  C   UNL     1       6.506   6.372  17.020  0.00  0.00    +0.000 A 
ATOM     15  C   UNL     1       4.821   3.297  17.993  0.00  0.00    +0.000 C 
ATOM     16  O   UNL     1       4.091   2.357  17.742  0.00  0.00    +0.000 OA
BRANCH  14  17
ATOM     17  C   UNL     1       7.371   7.421  17.668  0.00  0.00    +0.000 C 
ATOM     18  F   UNL     1       8.013   6.994  18.790  0.00  0.00    +0.000 F 
ATOM     19  F   UNL     1       8.350   7.868  16.834  0.00  0.00    +0.000 F 
ATOM     20  F   UNL     1       6.668   8.524  18.042  0.00  0.00    +0.000 F 
ENDBRANCH  14  17
ENDBRANCH   5   7
BRANCH   1  21
ATOM     21  C   UNL     1       2.298   7.841  18.649  0.00  0.00    +0.000 C 
BRANCH  21  23
ATOM     22  C   UNL     1       1.578   8.441  20.985  0.00  0.00    +0.000 C 
ATOM     23  N   UNL     1       1.678   8.817  19.585  0.00  0.00    +0.000 N 
ATOM     24  C   UNL     1       0.622   9.496  19.014  0.00  0.00    +0.000 A 
ATOM     25  N   UNL     1       0.207   9.398  17.763  0.00  0.00    +0.000 NA
ATOM     26  N   UNL     1      -0.909  10.180  17.591  0.00  0.00    +0.000 NA
ATOM     27  C   UNL     1      -1.143  10.774  18.733  0.00  0.00    +0.000 A 
ATOM     28  N   UNL     1      -0.201  10.403  19.649  0.00  0.00    +0.000 N 
ATOM     29  C   UNL     1      -0.125  10.951  20.972  0.00  0.00    +0.000 C 
ENDBRANCH  21  23
ENDBRANCH   1  21
BRANCH   3  30
ATOM     30  C   UNL     1       0.663   3.215  20.008  0.00  0.00    +0.000 C 
BRANCH  30  31
ATOM     31  C   UNL     1       0.644   2.359  18.750  0.00  0.00    +0.000 C 
BRANCH  31  32
ATOM     32  O   UNL     1       1.648   1.362  18.806  0.00  0.00    +0.000 OA
ATOM     33  H   UNL     1       1.218   0.551  19.131  0.00  0.00    +0.000 HD
ENDBRANCH  31  32
ENDBRANCH  30  31
ENDBRANCH   3  30
TORSDOF 7
ENDMDL
MODEL 4
REMARK VINA RESULT:      -7.4      2.029      3.004
REMARK  Name = 
REMARK  9 active torsions:
REMARK  status: ('A' for Active; 'I' for Inactive)
REMARK    1  A    between atoms: C_1  and  N_2
REMARK    2  A    between atoms: N_2  and  C_3
REMARK    3  A    between atoms: C_3  and  C_4
REMARK    4  A    between atoms: C_6  and  C_7
REMARK    5  A    between atoms: C_7  and  C_8
REMARK    6  A    between atoms: C_8  and  O_9
REMARK    7  A    between atoms: C_11  and  N_12
REMARK    8  A    between atoms: C_19  and  C_20
REMARK    9  A    between atoms: N_31  and  C_32
REMARK                            x       y       z     vdW  Elec       q    Type
REMARK                         _______ _______ _______ _____ _____    ______ ____
ROOT
ATOM      1  C   UNL     1      -5.074  12.118  18.836  0.00  0.00    +0.000 A 
ATOM      2  C   UNL     1      -4.822  11.838  17.482  0.00  0.00    +0.000 A 
ATOM      3  C   UNL     1      -3.570  11.357  17.079  0.00  0.00    +0.000 A 
ATOM      4  C   UNL     1      -2.597  11.111  18.043  0.00  0.00    +0.000 A 
ATOM      5  C   UNL     1      -2.710  11.754  19.280  0.00  0.00    +0.000 A 
ATOM      6  C   UNL     1      -3.987  12.102  19.734  0.00  0.00    +0.000 A 
ENDROOT
BRANCH   5   7
ATOM      7  N   UNL     1      -1.542  12.510  19.751  0.00  0.00    +0.000 N 
ATOM      8  C   UNL     1      -0.301  12.065  19.074  0.00  0.00    +0.000 C 
ATOM      9  C   UNL     1       0.211  10.983  19.979  0.00  0.00    +0.000 A 
ATOM     10  C   UNL     1      -0.281  11.253  21.259  0.00  0.00    +0.000 A 
ATOM     11  C   UNL     1      -0.163  10.363  22.310  0.00  0.00    +0.000 A 
ATOM     12  C   UNL     1       0.475   9.150  22.057  0.00  0.00    +0.000 A 
ATOM     13  C   UNL     1       0.990   8.868  20.778  0.00  0.00    +0.000 A 
ATOM     14  C   UNL     1       0.880   9.789  19.713  0.00  0.00    +0.000 A 
ATOM     15  C   UNL     1      -1.259  12.363  21.140  0.00  0.00    +0.000 C 
ATOM     16  O   UNL     1      -1.846  12.857  22.084  0.00  0.00    +0.000 OA
BRANCH  14  17
ATOM     17  C   UNL     1       1.408   9.406  18.355  0.00  0.00    +0.000 C 
ATOM     18  F   UNL     1       2.099   8.232  18.340  0.00  0.00    +0.000 F 
ATOM     19  F   UNL     1       0.412   9.255  17.439  0.00  0.00    +0.000 F 
ATOM     20  F   UNL     1       2.253  10.338  17.837  0.00  0.00    +0.000 F 
ENDBRANCH  14  17
ENDBRANCH   5   7
BRANCH   1  21
ATOM     21  C   UNL     1      -6.454  12.571  19.290  0.00  0.00    +0.000 C 
BRANCH  21  23
ATOM     22  C   UNL     1      -5.542  14.755  20.146  0.00  0.00    +0.000 C 
ATOM     23  N   UNL     1      -6.471  13.650  20.314  0.00  0.00    +0.000 N 
ATOM     24  C   UNL     1      -6.685  13.163  21.587  0.00  0.00    +0.000 A 
ATOM     25  N   UNL     1      -6.934  11.909  21.919  0.00  0.00    +0.000 NA
ATOM     26  N   UNL     1      -7.025  11.809  23.285  0.00  0.00    +0.000 NA
ATOM     27  C   UNL     1      -6.864  13.014  23.771  0.00  0.00    +0.000 A 
ATOM     28  N   UNL     1      -6.676  13.901  22.752  0.00  0.00    +0.000 N 
ATOM     29  C   UNL     1      -6.561  15.318  22.948  0.00  0.00    +0.000 C 
ENDBRANCH  21  23
ENDBRANCH   1  21
BRANCH   3  30
ATOM     30  C   UNL     1      -3.142  11.333  15.627  0.00  0.00    +0.000 C 
BRANCH  30  31
ATOM     31  C   UNL     1      -3.217   9.974  14.947  0.00  0.00    +0.000 C 
BRANCH  31  32
ATOM     32  O   UNL     1      -4.359   9.892  14.114  0.00  0.00    +0.000 OA
ATOM     33  H   UNL     1      -4.783   9.037  14.305  0.00  0.00    +0.000 HD
ENDBRANCH  31  32
ENDBRANCH  30  31
ENDBRANCH   3  30
TORSDOF 7
ENDMDL
MODEL 5
REMARK VINA RESULT:      -7.4      5.071      9.035
REMARK  Name = 
REMARK  9 active torsions:
REMARK  status: ('A' for Active; 'I' for Inactive)
REMARK    1  A    between atoms: C_1  and  N_2
REMARK    2  A    between atoms: N_2  and  C_3
REMARK    3  A    between atoms: C_3  and  C_4
REMARK    4  A    between atoms: C_6  and  C_7
REMARK    5  A    between atoms: C_7  and  C_8
REMARK    6  A    between atoms: C_8  and  O_9
REMARK    7  A    between atoms: C_11  and  N_12
REMARK    8  A    between atoms: C_19  and  C_20
REMARK    9  A    between atoms: N_31  and  C_32
REMARK                            x       y       z     vdW  Elec       q    Type
REMARK                         _______ _______ _______ _____ _____    ______ ____
ROOT
ATOM      1  C   UNL     1       2.360   6.697  19.725  0.00  0.00    +0.000 A 
ATOM      2  C   UNL     1       2.430   7.647  18.692  0.00  0.00    +0.000 A 
ATOM      3  C   UNL     1       2.060   8.977  18.927  0.00  0.00    +0.000 A 
ATOM      4  C   UNL     1       1.672   9.356  20.209  0.00  0.00    +0.000 A 
ATOM      5  C   UNL     1       1.229   8.363  21.088  0.00  0.00    +0.000 A 
ATOM      6  C   UNL     1       1.720   7.063  20.927  0.00  0.00    +0.000 A 
ENDROOT
BRANCH   5   7
ATOM      7  N   UNL     1      -0.078   8.570  21.728  0.00  0.00    +0.000 N 
ATOM      8  C   UNL     1      -1.133   8.847  20.725  0.00  0.00    +0.000 C 
ATOM      9  C   UNL     1      -1.110  10.344  20.611  0.00  0.00    +0.000 A 
ATOM     10  C   UNL     1      -0.617  10.838  21.821  0.00  0.00    +0.000 A 
ATOM     11  C   UNL     1      -0.285  12.167  22.008  0.00  0.00    +0.000 A 
ATOM     12  C   UNL     1      -0.455  13.030  20.927  0.00  0.00    +0.000 A 
ATOM     13  C   UNL     1      -0.964  12.552  19.705  0.00  0.00    +0.000 A 
ATOM     14  C   UNL     1      -1.317  11.196  19.527  0.00  0.00    +0.000 A 
ATOM     15  C   UNL     1      -0.135   9.683  22.617  0.00  0.00    +0.000 C 
ATOM     16  O   UNL     1       0.327   9.773  23.739  0.00  0.00    +0.000 OA
BRANCH  14  17
ATOM     17  C   UNL     1      -1.810  10.737  18.179  0.00  0.00    +0.000 C 
ATOM     18  F   UNL     1      -3.098  10.297  18.181  0.00  0.00    +0.000 F 
ATOM     19  F   UNL     1      -1.764  11.730  17.249  0.00  0.00    +0.000 F 
ATOM     20  F   UNL     1      -1.071   9.715  17.669  0.00  0.00    +0.000 F 
ENDBRANCH  14  17
ENDBRANCH   5   7
BRANCH   1  21
ATOM     21  C   UNL     1       2.830   5.267  19.496  0.00  0.00    +0.000 C 
BRANCH  21  23
ATOM     22  C   UNL     1       2.997   4.066  17.290  0.00  0.00    +0.000 C 
ATOM     23  N   UNL     1       3.561   5.028  18.222  0.00  0.00    +0.000 N 
ATOM     24  C   UNL     1       4.929   5.053  18.388  0.00  0.00    +0.000 A 
ATOM     25  N   UNL     1       5.583   5.329  19.503  0.00  0.00    +0.000 NA
ATOM     26  N   UNL     1       6.932   5.189  19.287  0.00  0.00    +0.000 NA
ATOM     27  C   UNL     1       7.089   4.859  18.030  0.00  0.00    +0.000 A 
ATOM     28  N   UNL     1       5.871   4.788  17.416  0.00  0.00    +0.000 N 
ATOM     29  C   UNL     1       5.707   4.539  16.013  0.00  0.00    +0.000 C 
ENDBRANCH  21  23
ENDBRANCH   1  21
BRANCH   3  30
ATOM     30  C   UNL     1       1.819   9.960  17.801  0.00  0.00    +0.000 C 
BRANCH  30  31
ATOM     31  C   UNL     1       1.963  11.428  18.174  0.00  0.00    +0.000 C 
BRANCH  31  32
ATOM     32  O   UNL     1       2.823  12.094  17.269  0.00  0.00    +0.000 OA
ATOM     33  H   UNL     1       2.286  12.323  16.490  0.00  0.00    +0.000 HD
ENDBRANCH  31  32
ENDBRANCH  30  31
ENDBRANCH   3  30
TORSDOF 7
ENDMDL
MODEL 6
REMARK VINA RESULT:      -7.3      1.081      1.551
REMARK  Name = 
REMARK  9 active torsions:
REMARK  status: ('A' for Active; 'I' for Inactive)
REMARK    1  A    between atoms: C_1  and  N_2
REMARK    2  A    between atoms: N_2  and  C_3
REMARK    3  A    between atoms: C_3  and  C_4
REMARK    4  A    between atoms: C_6  and  C_7
REMARK    5  A    between atoms: C_7  and  C_8
REMARK    6  A    between atoms: C_8  and  O_9
REMARK    7  A    between atoms: C_11  and  N_12
REMARK    8  A    between atoms: C_19  and  C_20
REMARK    9  A    between atoms: N_31  and  C_32
REMARK                            x       y       z     vdW  Elec       q    Type
REMARK                         _______ _______ _______ _____ _____    ______ ____
ROOT
ATOM      1  C   UNL     1      -4.192  11.464  17.798  0.00  0.00    +0.000 A 
ATOM      2  C   UNL     1      -4.097  10.924  16.504  0.00  0.00    +0.000 A 
ATOM      3  C   UNL     1      -2.975  10.174  16.130  0.00  0.00    +0.000 A 
ATOM      4  C   UNL     1      -1.981   9.927  17.072  0.00  0.00    +0.000 A 
ATOM      5  C   UNL     1      -1.891  10.775  18.180  0.00  0.00    +0.000 A 
ATOM      6  C   UNL     1      -3.055  11.410  18.629  0.00  0.00    +0.000 A 
ENDROOT
BRANCH   5   7
ATOM      7  N   UNL     1      -0.583  11.386  18.451  0.00  0.00    +0.000 N 
ATOM      8  C   UNL     1       0.184  10.599  19.447  0.00  0.00    +0.000 C 
ATOM      9  C   UNL     1      -0.218  11.219  20.753  0.00  0.00    +0.000 A 
ATOM     10  C   UNL     1      -0.598  12.536  20.482  0.00  0.00    +0.000 A 
ATOM     11  C   UNL     1      -1.203  13.350  21.421  0.00  0.00    +0.000 A 
ATOM     12  C   UNL     1      -1.436  12.811  22.685  0.00  0.00    +0.000 A 
ATOM     13  C   UNL     1      -1.046  11.491  22.980  0.00  0.00    +0.000 A 
ATOM     14  C   UNL     1      -0.413  10.670  22.020  0.00  0.00    +0.000 A 
ATOM     15  C   UNL     1      -0.641  12.697  19.007  0.00  0.00    +0.000 C 
ATOM     16  O   UNL     1      -0.910  13.741  18.444  0.00  0.00    +0.000 OA
BRANCH  14  17
ATOM     17  C   UNL     1      -0.066   9.251  22.384  0.00  0.00    +0.000 C 
ATOM     18  F   UNL     1      -0.144   8.986  23.718  0.00  0.00    +0.000 F 
ATOM     19  F   UNL     1      -0.890   8.349  21.783  0.00  0.00    +0.000 F 
ATOM     20  F   UNL     1       1.197   8.907  22.013  0.00  0.00    +0.000 F 
ENDBRANCH  14  17
ENDBRANCH   5   7
BRANCH   1  21
ATOM     21  C   UNL     1      -5.441  12.218  18.233  0.00  0.00    +0.000 C 
BRANCH  21  23
ATOM     22  C   UNL     1      -5.475  12.132  20.748  0.00  0.00    +0.000 C 
ATOM     23  N   UNL     1      -5.342  12.926  19.538  0.00  0.00    +0.000 N 
ATOM     24  C   UNL     1      -5.929  14.173  19.506  0.00  0.00    +0.000 A 
ATOM     25  N   UNL     1      -6.465  14.764  18.452  0.00  0.00    +0.000 NA
ATOM     26  N   UNL     1      -7.005  15.969  18.831  0.00  0.00    +0.000 NA
ATOM     27  C   UNL     1      -6.762  16.114  20.109  0.00  0.00    +0.000 A 
ATOM     28  N   UNL     1      -6.069  15.034  20.574  0.00  0.00    +0.000 N 
ATOM     29  C   UNL     1      -5.572  14.931  21.915  0.00  0.00    +0.000 C 
ENDBRANCH  21  23
ENDBRANCH   1  21
BRANCH   3  30
ATOM     30  C   UNL     1      -2.673   9.837  14.685  0.00  0.00    +0.000 C 
BRANCH  30  31
ATOM     31  C   UNL     1      -3.817  10.068  13.708  0.00  0.00    +0.000 C 
BRANCH  31  32
ATOM     32  O   UNL     1      -3.442   9.684  12.398  0.00  0.00    +0.000 OA
ATOM     33  H   UNL     1      -3.691   8.748  12.300  0.00  0.00    +0.000 HD
ENDBRANCH  31  32
ENDBRANCH  30  31
ENDBRANCH   3  30
TORSDOF 7
ENDMDL
MODEL 7
REMARK VINA RESULT:      -7.3      4.195      8.478
REMARK  Name = 
REMARK  9 active torsions:
REMARK  status: ('A' for Active; 'I' for Inactive)
REMARK    1  A    between atoms: C_1  and  N_2
REMARK    2  A    between atoms: N_2  and  C_3
REMARK    3  A    between atoms: C_3  and  C_4
REMARK    4  A    between atoms: C_6  and  C_7
REMARK    5  A    between atoms: C_7  and  C_8
REMARK    6  A    between atoms: C_8  and  O_9
REMARK    7  A    between atoms: C_11  and  N_12
REMARK    8  A    between atoms: C_19  and  C_20
REMARK    9  A    between atoms: N_31  and  C_32
REMARK                            x       y       z     vdW  Elec       q    Type
REMARK                         _______ _______ _______ _____ _____    ______ ____
ROOT
ATOM      1  C   UNL     1       1.197   9.191  18.768  0.00  0.00    +0.000 A 
ATOM      2  C   UNL     1       1.117   9.544  20.126  0.00  0.00    +0.000 A 
ATOM      3  C   UNL     1      -0.043  10.141  20.635  0.00  0.00    +0.000 A 
ATOM      4  C   UNL     1      -1.133  10.332  19.791  0.00  0.00    +0.000 A 
ATOM      5  C   UNL     1      -0.908  10.357  18.411  0.00  0.00    +0.000 A 
ATOM      6  C   UNL     1       0.177   9.637  17.901  0.00  0.00    +0.000 A 
ENDROOT
BRANCH   5   7
ATOM      7  N   UNL     1      -1.420  11.517  17.670  0.00  0.00    +0.000 N 
ATOM      8  C   UNL     1      -1.967  12.546  18.587  0.00  0.00    +0.000 C 
ATOM      9  C   UNL     1      -3.413  12.161  18.706  0.00  0.00    +0.000 A 
ATOM     10  C   UNL     1      -3.749  11.469  17.540  0.00  0.00    +0.000 A 
ATOM     11  C   UNL     1      -4.951  10.804  17.384  0.00  0.00    +0.000 A 
ATOM     12  C   UNL     1      -5.848  10.839  18.450  0.00  0.00    +0.000 A 
ATOM     13  C   UNL     1      -5.532  11.544  19.626  0.00  0.00    +0.000 A 
ATOM     14  C   UNL     1      -4.308  12.235  19.772  0.00  0.00    +0.000 A 
ATOM     15  C   UNL     1      -2.497  11.228  16.782  0.00  0.00    +0.000 C 
ATOM     16  O   UNL     1      -2.451  10.672  15.701  0.00  0.00    +0.000 OA
BRANCH  14  17
ATOM     17  C   UNL     1      -4.009  12.929  21.075  0.00  0.00    +0.000 C 
ATOM     18  F   UNL     1      -2.973  12.382  21.769  0.00  0.00    +0.000 F 
ATOM     19  F   UNL     1      -3.681  14.238  20.897  0.00  0.00    +0.000 F 
ATOM     20  F   UNL     1      -5.069  12.923  21.929  0.00  0.00    +0.000 F 
ENDBRANCH  14  17
ENDBRANCH   5   7
BRANCH   1  21
ATOM     21  C   UNL     1       2.426   8.476  18.224  0.00  0.00    +0.000 C 
BRANCH  21  23
ATOM     22  C   UNL     1       2.191   6.529  19.802  0.00  0.00    +0.000 C 
ATOM     23  N   UNL     1       2.470   7.007  18.458  0.00  0.00    +0.000 N 
ATOM     24  C   UNL     1       3.472   6.390  17.739  0.00  0.00    +0.000 A 
ATOM     25  N   UNL     1       4.282   6.962  16.866  0.00  0.00    +0.000 NA
ATOM     26  N   UNL     1       5.186   6.035  16.408  0.00  0.00    +0.000 NA
ATOM     27  C   UNL     1       4.895   4.896  16.984  0.00  0.00    +0.000 A 
ATOM     28  N   UNL     1       3.816   5.056  17.804  0.00  0.00    +0.000 N 
ATOM     29  C   UNL     1       3.192   3.974  18.509  0.00  0.00    +0.000 C 
ENDBRANCH  21  23
ENDBRANCH   1  21
BRANCH   3  30
ATOM     30  C   UNL     1      -0.076  10.817  21.990  0.00  0.00    +0.000 C 
BRANCH  30  31
ATOM     31  C   UNL     1      -0.609   9.964  23.131  0.00  0.00    +0.000 C 
BRANCH  31  32
ATOM     32  O   UNL     1       0.436   9.598  24.014  0.00  0.00    +0.000 OA
ATOM     33  H   UNL     1       0.012   9.220  24.805  0.00  0.00    +0.000 HD
ENDBRANCH  31  32
ENDBRANCH  30  31
ENDBRANCH   3  30
TORSDOF 7
ENDMDL
MODEL 8
REMARK VINA RESULT:      -7.2      6.836      9.430
REMARK  Name = 
REMARK  9 active torsions:
REMARK  status: ('A' for Active; 'I' for Inactive)
REMARK    1  A    between atoms: C_1  and  N_2
REMARK    2  A    between atoms: N_2  and  C_3
REMARK    3  A    between atoms: C_3  and  C_4
REMARK    4  A    between atoms: C_6  and  C_7
REMARK    5  A    between atoms: C_7  and  C_8
REMARK    6  A    between atoms: C_8  and  O_9
REMARK    7  A    between atoms: C_11  and  N_12
REMARK    8  A    between atoms: C_19  and  C_20
REMARK    9  A    between atoms: N_31  and  C_32
REMARK                            x       y       z     vdW  Elec       q    Type
REMARK                         _______ _______ _______ _____ _____    ______ ____
ROOT
ATOM      1  C   UNL     1       3.114   6.734  18.817  0.00  0.00    +0.000 A 
ATOM      2  C   UNL     1       4.510   6.893  18.783  0.00  0.00    +0.000 A 
ATOM      3  C   UNL     1       5.266   6.296  17.767  0.00  0.00    +0.000 A 
ATOM      4  C   UNL     1       4.612   5.588  16.763  0.00  0.00    +0.000 A 
ATOM      5  C   UNL     1       3.323   5.108  17.021  0.00  0.00    +0.000 A 
ATOM      6  C   UNL     1       2.526   5.801  17.938  0.00  0.00    +0.000 A 
ENDROOT
BRANCH   5   7
ATOM      7  N   UNL     1       3.082   3.678  16.787  0.00  0.00    +0.000 N 
ATOM      8  C   UNL     1       1.969   3.173  17.627  0.00  0.00    +0.000 C 
ATOM      9  C   UNL     1       2.666   2.708  18.872  0.00  0.00    +0.000 A 
ATOM     10  C   UNL     1       3.976   2.384  18.510  0.00  0.00    +0.000 A 
ATOM     11  C   UNL     1       4.959   2.094  19.438  0.00  0.00    +0.000 A 
ATOM     12  C   UNL     1       4.605   2.137  20.785  0.00  0.00    +0.000 A 
ATOM     13  C   UNL     1       3.286   2.447  21.166  0.00  0.00    +0.000 A 
ATOM     14  C   UNL     1       2.283   2.726  20.212  0.00  0.00    +0.000 A 
ATOM     15  C   UNL     1       4.180   2.828  17.110  0.00  0.00    +0.000 C 
ATOM     16  O   UNL     1       5.211   2.664  16.486  0.00  0.00    +0.000 OA
BRANCH  14  17
ATOM     17  C   UNL     1       0.903   3.100  20.687  0.00  0.00    +0.000 C 
ATOM     18  F   UNL     1       0.611   2.661  21.942  0.00  0.00    +0.000 F 
ATOM     19  F   UNL     1       0.718   4.449  20.719  0.00  0.00    +0.000 F 
ATOM     20  F   UNL     1      -0.080   2.608  19.886  0.00  0.00    +0.000 F 
ENDBRANCH  14  17
ENDBRANCH   5   7
BRANCH   1  21
ATOM     21  C   UNL     1       2.279   7.440  19.877  0.00  0.00    +0.000 C 
BRANCH  21  23
ATOM     22  C   UNL     1       1.883   9.247  18.169  0.00  0.00    +0.000 C 
ATOM     23  N   UNL     1       1.460   8.584  19.391  0.00  0.00    +0.000 N 
ATOM     24  C   UNL     1       0.978   9.361  20.424  0.00  0.00    +0.000 A 
ATOM     25  N   UNL     1       1.121   9.130  21.717  0.00  0.00    +0.000 NA
ATOM     26  N   UNL     1       0.559  10.161  22.429  0.00  0.00    +0.000 NA
ATOM     27  C   UNL     1       0.049  10.996  21.560  0.00  0.00    +0.000 A 
ATOM     28  N   UNL     1       0.258  10.530  20.294  0.00  0.00    +0.000 N 
ATOM     29  C   UNL     1      -0.261  11.170  19.120  0.00  0.00    +0.000 C 
ENDBRANCH  21  23
ENDBRANCH   1  21
BRANCH   3  30
ATOM     30  C   UNL     1       6.772   6.170  17.848  0.00  0.00    +0.000 C 
BRANCH  30  31
ATOM     31  C   UNL     1       7.294   4.784  18.200  0.00  0.00    +0.000 C 
BRANCH  31  32
ATOM     32  O   UNL     1       7.904   4.179  17.075  0.00  0.00    +0.000 OA
ATOM     33  H   UNL     1       8.436   4.869  16.641  0.00  0.00    +0.000 HD
ENDBRANCH  31  32
ENDBRANCH  30  31
ENDBRANCH   3  30
TORSDOF 7
ENDMDL
MODEL 9
REMARK VINA RESULT:      -7.2      3.314      5.565
REMARK  Name = 
REMARK  9 active torsions:
REMARK  status: ('A' for Active; 'I' for Inactive)
REMARK    1  A    between atoms: C_1  and  N_2
REMARK    2  A    between atoms: N_2  and  C_3
REMARK    3  A    between atoms: C_3  and  C_4
REMARK    4  A    between atoms: C_6  and  C_7
REMARK    5  A    between atoms: C_7  and  C_8
REMARK    6  A    between atoms: C_8  and  O_9
REMARK    7  A    between atoms: C_11  and  N_12
REMARK    8  A    between atoms: C_19  and  C_20
REMARK    9  A    between atoms: N_31  and  C_32
REMARK                            x       y       z     vdW  Elec       q    Type
REMARK                         _______ _______ _______ _____ _____    ______ ____
ROOT
ATOM      1  C   UNL     1      -2.138  12.341  23.322  0.00  0.00    +0.000 A 
ATOM      2  C   UNL     1      -1.746  11.004  23.138  0.00  0.00    +0.000 A 
ATOM      3  C   UNL     1      -0.637  10.694  22.342  0.00  0.00    +0.000 A 
ATOM      4  C   UNL     1       0.102  11.730  21.777  0.00  0.00    +0.000 A 
ATOM      5  C   UNL     1      -0.510  12.979  21.632  0.00  0.00    +0.000 A 
ATOM      6  C   UNL     1      -1.524  13.331  22.528  0.00  0.00    +0.000 A 
ENDROOT
BRANCH   5   7
ATOM      7  N   UNL     1      -0.482  13.587  20.295  0.00  0.00    +0.000 N 
ATOM      8  C   UNL     1      -1.848  13.727  19.735  0.00  0.00    +0.000 C 
ATOM      9  C   UNL     1      -2.044  12.438  18.991  0.00  0.00    +0.000 A 
ATOM     10  C   UNL     1      -0.776  11.974  18.634  0.00  0.00    +0.000 A 
ATOM     11  C   UNL     1      -0.561  10.719  18.097  0.00  0.00    +0.000 A 
ATOM     12  C   UNL     1      -1.673   9.898  17.917  0.00  0.00    +0.000 A 
ATOM     13  C   UNL     1      -2.960  10.354  18.258  0.00  0.00    +0.000 A 
ATOM     14  C   UNL     1      -3.173  11.645  18.791  0.00  0.00    +0.000 A 
ATOM     15  C   UNL     1       0.226  12.833  19.313  0.00  0.00    +0.000 C 
ATOM     16  O   UNL     1       1.429  12.709  19.184  0.00  0.00    +0.000 OA
BRANCH  14  17
ATOM     17  C   UNL     1      -4.569  12.055  19.182  0.00  0.00    +0.000 C 
ATOM     18  F   UNL     1      -5.071  13.084  18.445  0.00  0.00    +0.000 F 
ATOM     19  F   UNL     1      -5.462  11.037  19.044  0.00  0.00    +0.000 F 
ATOM     20  F   UNL     1      -4.656  12.454  20.480  0.00  0.00    +0.000 F 
ENDBRANCH  14  17
ENDBRANCH   5   7
BRANCH   1  21
ATOM     21  C   UNL     1      -3.298  12.688  24.245  0.00  0.00    +0.000 C 
BRANCH  21  23
ATOM     22  C   UNL     1      -3.982  15.106  24.093  0.00  0.00    +0.000 C 
ATOM     23  N   UNL     1      -4.238  13.721  23.734  0.00  0.00    +0.000 N 
ATOM     24  C   UNL     1      -5.545  13.281  23.719  0.00  0.00    +0.000 A 
ATOM     25  N   UNL     1      -5.973  12.070  24.032  0.00  0.00    +0.000 NA
ATOM     26  N   UNL     1      -7.343  12.037  23.957  0.00  0.00    +0.000 NA
ATOM     27  C   UNL     1      -7.736  13.222  23.565  0.00  0.00    +0.000 A 
ATOM     28  N   UNL     1      -6.652  14.029  23.375  0.00  0.00    +0.000 N 
ATOM     29  C   UNL     1      -6.740  15.364  22.857  0.00  0.00    +0.000 C 
ENDBRANCH  21  23
ENDBRANCH   1  21
BRANCH   3  30
ATOM     30  C   UNL     1      -0.356   9.287  21.859  0.00  0.00    +0.000 C 
BRANCH  30  31
ATOM     31  C   UNL     1       0.938   9.111  21.078  0.00  0.00    +0.000 C 
BRANCH  31  32
ATOM     32  O   UNL     1       1.804   8.206  21.739  0.00  0.00    +0.000 OA
ATOM     33  H   UNL     1       2.371   7.811  21.053  0.00  0.00    +0.000 HD
ENDBRANCH  31  32
ENDBRANCH  30  31
ENDBRANCH   3  30
TORSDOF 7
ENDMDL
