MODEL 1
REMARK VINA RESULT:      -9.8      0.000      0.000
REMARK  Name = 
REMARK  4 active torsions:
REMARK  status: ('A' for Active; 'I' for Inactive)
REMARK    1  A    between atoms: C_1  and  C_2
REMARK    2  A    between atoms: C_7  and  N_8
REMARK    3  A    between atoms: C_9  and  C_11
REMARK    4  A    between atoms: C_11  and  C_12
REMARK                            x       y       z     vdW  Elec       q    Type
REMARK                         _______ _______ _______ _____ _____    ______ ____
ROOT
ATOM      1  N   UNL     1       8.362   9.853  17.726  0.00  0.00    +0.000 N 
ATOM      2  C   UNL     1       8.287   8.525  18.172  0.00  0.00    +0.000 C 
ATOM      3  O   UNL     1       8.875   8.114  19.184  0.00  0.00    +0.000 OA
ATOM      4  H   UNL     1       7.913  10.034  16.838  0.00  0.00    +0.000 HD
ENDROOT
BRANCH   1  11
ATOM      5  C   UNL     1      11.917  16.767  19.181  0.00  0.00    +0.000 C 
ATOM      6  C   UNL     1      11.309  15.498  18.572  0.00  0.00    +0.000 C 
ATOM      7  O   UNL     1      11.255  14.434  19.543  0.00  0.00    +0.000 OA
ATOM      8  C   UNL     1      10.545  13.332  19.111  0.00  0.00    +0.000 A 
ATOM      9  C   UNL     1      10.754  12.092  19.728  0.00  0.00    +0.000 A 
ATOM     10  C   UNL     1      10.042  10.933  19.304  0.00  0.00    +0.000 A 
ATOM     11  C   UNL     1       9.102  10.976  18.266  0.00  0.00    +0.000 A 
ATOM     12  C   UNL     1       8.856  12.256  17.706  0.00  0.00    +0.000 A 
ATOM     13  C   UNL     1       9.571  13.415  18.120  0.00  0.00    +0.000 A 
ATOM     14  N   UNL     1       9.255  14.671  17.581  0.00  0.00    +0.000 N 
ATOM     15  C   UNL     1       9.979  15.812  17.857  0.00  0.00    +0.000 C 
ATOM     16  O   UNL     1       9.606  16.928  17.487  0.00  0.00    +0.000 OA
ATOM     17  H   UNL     1       8.429  14.792  17.006  0.00  0.00    +0.000 HD
ENDBRANCH   1  11
BRANCH   2  18
ATOM     18  C   UNL     1       7.307   7.541  17.368  0.00  0.00    +0.000 C 
BRANCH  18  19
ATOM     19  C   UNL     1       6.771   6.265  18.127  0.00  0.00    +0.000 A 
ATOM     20  C   UNL     1       7.660   5.190  18.134  0.00  0.00    +0.000 A 
ATOM     21  O   UNL     1       7.227   4.395  17.081  0.00  0.00    +0.000 OA
ATOM     22  C   UNL     1       5.949   4.804  16.830  0.00  0.00    +0.000 A 
ATOM     23  C   UNL     1       5.097   4.323  15.842  0.00  0.00    +0.000 A 
ATOM     24  C   UNL     1       4.119   3.636  16.537  0.00  0.00    +0.000 A 
ATOM     25  C   UNL     1       3.454   4.300  17.554  0.00  0.00    +0.000 A 
ATOM     26  C   UNL     1       2.117   3.934  17.713  0.00  0.00    +0.000 A 
ATOM     27  C   UNL     1       1.449   4.190  18.888  0.00  0.00    +0.000 A 
ATOM     28  C   UNL     1       2.177   4.768  19.934  0.00  0.00    +0.000 A 
ATOM     29  C   UNL     1       3.500   5.265  19.718  0.00  0.00    +0.000 A 
ATOM     30  C   UNL     1       4.176   5.148  18.463  0.00  0.00    +0.000 A 
ATOM     31  C   UNL     1       5.509   5.567  17.913  0.00  0.00    +0.000 A 
ENDBRANCH  18  19
ENDBRANCH   2  18
TORSDOF 3
ENDMDL
MODEL 2
REMARK VINA RESULT:      -9.5      6.462      7.809
REMARK  Name = 
REMARK  4 active torsions:
REMARK  status: ('A' for Active; 'I' for Inactive)
REMARK    1  A    between atoms: C_1  and  C_2
REMARK    2  A    between atoms: C_7  and  N_8
REMARK    3  A    between atoms: C_9  and  C_11
REMARK    4  A    between atoms: C_11  and  C_12
REMARK                            x       y       z     vdW  Elec       q    Type
REMARK                         _______ _______ _______ _____ _____    ______ ____
ROOT
ATOM      1  N   UNL     1       2.242   5.900  19.344  0.00  0.00    +0.000 N 
ATOM      2  C   UNL     1       1.745   4.804  18.623  0.00  0.00    +0.000 C 
ATOM      3  O   UNL     1       1.010   4.921  17.631  0.00  0.00    +0.000 OA
ATOM      4  H   UNL     1       2.751   5.665  20.186  0.00  0.00    +0.000 HD
ENDROOT
BRANCH   1  11
ATOM      5  C   UNL     1      -0.030  13.469  19.679  0.00  0.00    +0.000 C 
ATOM      6  C   UNL     1       0.091  11.941  19.726  0.00  0.00    +0.000 C 
ATOM      7  O   UNL     1       1.103  11.475  18.813  0.00  0.00    +0.000 OA
ATOM      8  C   UNL     1       1.390  10.131  18.949  0.00  0.00    +0.000 A 
ATOM      9  C   UNL     1       2.006   9.446  17.894  0.00  0.00    +0.000 A 
ATOM     10  C   UNL     1       2.311   8.059  17.998  0.00  0.00    +0.000 A 
ATOM     11  C   UNL     1       2.020   7.319  19.152  0.00  0.00    +0.000 A 
ATOM     12  C   UNL     1       1.462   8.050  20.232  0.00  0.00    +0.000 A 
ATOM     13  C   UNL     1       1.148   9.434  20.130  0.00  0.00    +0.000 A 
ATOM     14  N   UNL     1       0.652  10.132  21.241  0.00  0.00    +0.000 N 
ATOM     15  C   UNL     1       0.227  11.442  21.179  0.00  0.00    +0.000 C 
ATOM     16  O   UNL     1      -0.074  12.080  22.190  0.00  0.00    +0.000 OA
ATOM     17  H   UNL     1       0.648   9.702  22.159  0.00  0.00    +0.000 HD
ENDBRANCH   1  11
BRANCH   2  18
ATOM     18  C   UNL     1       2.251   3.348  19.070  0.00  0.00    +0.000 C 
BRANCH  18  19
ATOM     19  C   UNL     1       3.608   2.828  18.459  0.00  0.00    +0.000 A 
ATOM     20  C   UNL     1       4.378   2.069  19.341  0.00  0.00    +0.000 A 
ATOM     21  O   UNL     1       5.289   2.981  19.856  0.00  0.00    +0.000 OA
ATOM     22  C   UNL     1       5.276   4.029  18.980  0.00  0.00    +0.000 A 
ATOM     23  C   UNL     1       6.007   5.206  19.077  0.00  0.00    +0.000 A 
ATOM     24  C   UNL     1       6.933   5.122  18.054  0.00  0.00    +0.000 A 
ATOM     25  C   UNL     1       6.468   4.871  16.773  0.00  0.00    +0.000 A 
ATOM     26  C   UNL     1       7.204   5.481  15.756  0.00  0.00    +0.000 A 
ATOM     27  C   UNL     1       7.126   5.029  14.459  0.00  0.00    +0.000 A 
ATOM     28  C   UNL     1       6.337   3.900  14.214  0.00  0.00    +0.000 A 
ATOM     29  C   UNL     1       5.481   3.370  15.228  0.00  0.00    +0.000 A 
ATOM     30  C   UNL     1       5.426   3.907  16.553  0.00  0.00    +0.000 A 
ATOM     31  C   UNL     1       4.649   3.613  17.805  0.00  0.00    +0.000 A 
ENDBRANCH  18  19
ENDBRANCH   2  18
TORSDOF 3
ENDMDL
MODEL 3
REMARK VINA RESULT:      -9.4      6.556      8.295
REMARK  Name = 
REMARK  4 active torsions:
REMARK  status: ('A' for Active; 'I' for Inactive)
REMARK    1  A    between atoms: C_1  and  C_2
REMARK    2  A    between atoms: C_7  and  N_8
REMARK    3  A    between atoms: C_9  and  C_11
REMARK    4  A    between atoms: C_11  and  C_12
REMARK                            x       y       z     vdW  Elec       q    Type
REMARK                         _______ _______ _______ _____ _____    ______ ____
ROOT
ATOM      1  N   UNL     1       1.836   8.340  19.473  0.00  0.00    +0.000 N 
ATOM      2  C   UNL     1       2.211   8.716  18.175  0.00  0.00    +0.000 C 
ATOM      3  O   UNL     1       1.880   9.795  17.659  0.00  0.00    +0.000 OA
ATOM      4  H   UNL     1       2.091   7.397  19.738  0.00  0.00    +0.000 HD
ENDROOT
BRANCH   1  11
ATOM      5  C   UNL     1      -2.789  13.332  23.503  0.00  0.00    +0.000 C 
ATOM      6  C   UNL     1      -1.769  12.653  22.581  0.00  0.00    +0.000 C 
ATOM      7  O   UNL     1      -1.383  11.365  23.098  0.00  0.00    +0.000 OA
ATOM      8  C   UNL     1      -0.617  10.627  22.218  0.00  0.00    +0.000 A 
ATOM      9  C   UNL     1       0.177   9.581  22.705  0.00  0.00    +0.000 A 
ATOM     10  C   UNL     1       0.984   8.802  21.826  0.00  0.00    +0.000 A 
ATOM     11  C   UNL     1       1.018   9.036  20.445  0.00  0.00    +0.000 A 
ATOM     12  C   UNL     1       0.152  10.054  19.968  0.00  0.00    +0.000 A 
ATOM     13  C   UNL     1      -0.650  10.840  20.843  0.00  0.00    +0.000 A 
ATOM     14  N   UNL     1      -1.536  11.796  20.324  0.00  0.00    +0.000 N 
ATOM     15  C   UNL     1      -2.258  12.661  21.118  0.00  0.00    +0.000 C 
ATOM     16  O   UNL     1      -3.132  13.398  20.655  0.00  0.00    +0.000 OA
ATOM     17  H   UNL     1      -1.722  11.838  19.329  0.00  0.00    +0.000 HD
ENDBRANCH   1  11
BRANCH   2  18
ATOM     18  C   UNL     1       3.193   7.724  17.383  0.00  0.00    +0.000 C 
BRANCH  18  19
ATOM     19  C   UNL     1       3.807   6.512  18.185  0.00  0.00    +0.000 A 
ATOM     20  C   UNL     1       4.988   6.007  17.641  0.00  0.00    +0.000 A 
ATOM     21  O   UNL     1       4.567   4.924  16.882  0.00  0.00    +0.000 OA
ATOM     22  C   UNL     1       3.320   4.625  17.351  0.00  0.00    +0.000 A 
ATOM     23  C   UNL     1       2.472   3.625  16.890  0.00  0.00    +0.000 A 
ATOM     24  C   UNL     1       2.442   2.699  17.915  0.00  0.00    +0.000 A 
ATOM     25  C   UNL     1       2.120   3.143  19.187  0.00  0.00    +0.000 A 
ATOM     26  C   UNL     1       1.414   2.225  19.965  0.00  0.00    +0.000 A 
ATOM     27  C   UNL     1       1.369   2.347  21.335  0.00  0.00    +0.000 A 
ATOM     28  C   UNL     1       2.108   3.382  21.917  0.00  0.00    +0.000 A 
ATOM     29  C   UNL     1       2.710   4.397  21.110  0.00  0.00    +0.000 A 
ATOM     30  C   UNL     1       2.653   4.384  19.681  0.00  0.00    +0.000 A 
ATOM     31  C   UNL     1       3.142   5.274  18.574  0.00  0.00    +0.000 A 
ENDBRANCH  18  19
ENDBRANCH   2  18
TORSDOF 3
ENDMDL
MODEL 4
REMARK VINA RESULT:      -9.4      1.193      1.225
REMARK  Name = 
REMARK  4 active torsions:
REMARK  status: ('A' for Active; 'I' for Inactive)
REMARK    1  A    between atoms: C_1  and  C_2
REMARK    2  A    between atoms: C_7  and  N_8
REMARK    3  A    between atoms: C_9  and  C_11
REMARK    4  A    between atoms: C_11  and  C_12
REMARK                            x       y       z     vdW  Elec       q    Type
REMARK                         _______ _______ _______ _____ _____    ______ ____
ROOT
ATOM      1  N   UNL     1       9.145   9.400  18.491  0.00  0.00    +0.000 N 
ATOM      2  C   UNL     1       7.935   9.012  17.898  0.00  0.00    +0.000 C 
ATOM      3  O   UNL     1       6.990   9.793  17.710  0.00  0.00    +0.000 OA
ATOM      4  H   UNL     1       9.796   8.648  18.673  0.00  0.00    +0.000 HD
ENDROOT
BRANCH   1  11
ATOM      5  C   UNL     1      12.333  16.503  19.886  0.00  0.00    +0.000 C 
ATOM      6  C   UNL     1      12.019  15.062  19.467  0.00  0.00    +0.000 C 
ATOM      7  O   UNL     1      11.004  14.488  20.314  0.00  0.00    +0.000 OA
ATOM      8  C   UNL     1      10.544  13.265  19.868  0.00  0.00    +0.000 A 
ATOM      9  C   UNL     1       9.902  12.401  20.764  0.00  0.00    +0.000 A 
ATOM     10  C   UNL     1       9.419  11.130  20.339  0.00  0.00    +0.000 A 
ATOM     11  C   UNL     1       9.554  10.688  19.016  0.00  0.00    +0.000 A 
ATOM     12  C   UNL     1      10.143  11.610  18.112  0.00  0.00    +0.000 A 
ATOM     13  C   UNL     1      10.634  12.877  18.533  0.00  0.00    +0.000 A 
ATOM     14  N   UNL     1      11.156  13.781  17.596  0.00  0.00    +0.000 N 
ATOM     15  C   UNL     1      11.745  14.976  17.951  0.00  0.00    +0.000 C 
ATOM     16  O   UNL     1      12.072  15.819  17.112  0.00  0.00    +0.000 OA
ATOM     17  H   UNL     1      11.058  13.607  16.603  0.00  0.00    +0.000 HD
ENDBRANCH   1  11
BRANCH   2  18
ATOM     18  C   UNL     1       7.838   7.503  17.362  0.00  0.00    +0.000 C 
BRANCH  18  19
ATOM     19  C   UNL     1       7.109   6.447  18.281  0.00  0.00    +0.000 A 
ATOM     20  C   UNL     1       7.934   5.417  18.733  0.00  0.00    +0.000 A 
ATOM     21  O   UNL     1       7.694   4.383  17.839  0.00  0.00    +0.000 OA
ATOM     22  C   UNL     1       6.510   4.701  17.237  0.00  0.00    +0.000 A 
ATOM     23  C   UNL     1       5.859   3.982  16.243  0.00  0.00    +0.000 A 
ATOM     24  C   UNL     1       4.734   3.475  16.866  0.00  0.00    +0.000 A 
ATOM     25  C   UNL     1       3.902   4.361  17.531  0.00  0.00    +0.000 A 
ATOM     26  C   UNL     1       2.548   4.029  17.494  0.00  0.00    +0.000 A 
ATOM     27  C   UNL     1       1.665   4.559  18.408  0.00  0.00    +0.000 A 
ATOM     28  C   UNL     1       2.188   5.385  19.408  0.00  0.00    +0.000 A 
ATOM     29  C   UNL     1       3.545   5.831  19.356  0.00  0.00    +0.000 A 
ATOM     30  C   UNL     1       4.457   5.416  18.335  0.00  0.00    +0.000 A 
ATOM     31  C   UNL     1       5.890   5.703  17.987  0.00  0.00    +0.000 A 
ENDBRANCH  18  19
ENDBRANCH   2  18
TORSDOF 3
ENDMDL
MODEL 5
REMARK VINA RESULT:      -9.4      2.373      2.826
REMARK  Name = 
REMARK  4 active torsions:
REMARK  status: ('A' for Active; 'I' for Inactive)
REMARK    1  A    between atoms: C_1  and  C_2
REMARK    2  A    between atoms: C_7  and  N_8
REMARK    3  A    between atoms: C_9  and  C_11
REMARK    4  A    between atoms: C_11  and  C_12
REMARK                            x       y       z     vdW  Elec       q    Type
REMARK                         _______ _______ _______ _____ _____    ______ ____
ROOT
ATOM      1  N   UNL     1       9.153   9.306  19.024  0.00  0.00    +0.000 N 
ATOM      2  C   UNL     1       8.168   9.074  18.053  0.00  0.00    +0.000 C 
ATOM      3  O   UNL     1       7.480   9.978  17.555  0.00  0.00    +0.000 OA
ATOM      4  H   UNL     1       9.576   8.474  19.415  0.00  0.00    +0.000 HD
ENDROOT
BRANCH   1  11
ATOM      5  C   UNL     1       9.855  15.900  23.336  0.00  0.00    +0.000 C 
ATOM      6  C   UNL     1       9.384  14.700  22.506  0.00  0.00    +0.000 C 
ATOM      7  O   UNL     1      10.443  14.211  21.659  0.00  0.00    +0.000 OA
ATOM      8  C   UNL     1      10.139  13.018  21.032  0.00  0.00    +0.000 A 
ATOM      9  C   UNL     1      10.847  12.642  19.884  0.00  0.00    +0.000 A 
ATOM     10  C   UNL     1      10.556  11.422  19.210  0.00  0.00    +0.000 A 
ATOM     11  C   UNL     1       9.562  10.543  19.660  0.00  0.00    +0.000 A 
ATOM     12  C   UNL     1       8.908  10.912  20.864  0.00  0.00    +0.000 A 
ATOM     13  C   UNL     1       9.189  12.133  21.536  0.00  0.00    +0.000 A 
ATOM     14  N   UNL     1       8.561  12.432  22.755  0.00  0.00    +0.000 N 
ATOM     15  C   UNL     1       8.707  13.641  23.400  0.00  0.00    +0.000 C 
ATOM     16  O   UNL     1       8.262  13.836  24.534  0.00  0.00    +0.000 OA
ATOM     17  H   UNL     1       8.017  11.728  23.239  0.00  0.00    +0.000 HD
ENDBRANCH   1  11
BRANCH   2  18
ATOM     18  C   UNL     1       8.018   7.571  17.512  0.00  0.00    +0.000 C 
BRANCH  18  19
ATOM     19  C   UNL     1       7.211   6.551  18.405  0.00  0.00    +0.000 A 
ATOM     20  C   UNL     1       7.990   5.535  18.958  0.00  0.00    +0.000 A 
ATOM     21  O   UNL     1       7.815   4.471  18.084  0.00  0.00    +0.000 OA
ATOM     22  C   UNL     1       6.686   4.772  17.378  0.00  0.00    +0.000 A 
ATOM     23  C   UNL     1       6.112   4.021  16.360  0.00  0.00    +0.000 A 
ATOM     24  C   UNL     1       4.937   3.541  16.908  0.00  0.00    +0.000 A 
ATOM     25  C   UNL     1       4.061   4.452  17.473  0.00  0.00    +0.000 A 
ATOM     26  C   UNL     1       2.711   4.125  17.339  0.00  0.00    +0.000 A 
ATOM     27  C   UNL     1       1.762   4.690  18.159  0.00  0.00    +0.000 A 
ATOM     28  C   UNL     1       2.208   5.549  19.170  0.00  0.00    +0.000 A 
ATOM     29  C   UNL     1       3.568   5.987  19.211  0.00  0.00    +0.000 A 
ATOM     30  C   UNL     1       4.556   5.533  18.282  0.00  0.00    +0.000 A 
ATOM     31  C   UNL     1       6.014   5.802  18.040  0.00  0.00    +0.000 A 
ENDBRANCH  18  19
ENDBRANCH   2  18
TORSDOF 3
ENDMDL
MODEL 6
REMARK VINA RESULT:      -9.1      7.182      9.746
REMARK  Name = 
REMARK  4 active torsions:
REMARK  status: ('A' for Active; 'I' for Inactive)
REMARK    1  A    between atoms: C_1  and  C_2
REMARK    2  A    between atoms: C_7  and  N_8
REMARK    3  A    between atoms: C_9  and  C_11
REMARK    4  A    between atoms: C_11  and  C_12
REMARK                            x       y       z     vdW  Elec       q    Type
REMARK                         _______ _______ _______ _____ _____    ______ ____
ROOT
ATOM      1  N   UNL     1       0.518   9.756  17.901  0.00  0.00    +0.000 N 
ATOM      2  C   UNL     1       1.447   8.963  18.590  0.00  0.00    +0.000 C 
ATOM      3  O   UNL     1       1.421   8.800  19.819  0.00  0.00    +0.000 OA
ATOM      4  H   UNL     1       0.707   9.881  16.915  0.00  0.00    +0.000 HD
ENDROOT
BRANCH   1  11
ATOM      5  C   UNL     1      -6.409  13.296  19.334  0.00  0.00    +0.000 C 
ATOM      6  C   UNL     1      -5.166  12.632  18.727  0.00  0.00    +0.000 C 
ATOM      7  O   UNL     1      -4.028  12.775  19.599  0.00  0.00    +0.000 OA
ATOM      8  C   UNL     1      -2.933  12.035  19.198  0.00  0.00    +0.000 A 
ATOM      9  C   UNL     1      -1.658  12.382  19.664  0.00  0.00    +0.000 A 
ATOM     10  C   UNL     1      -0.506  11.644  19.266  0.00  0.00    +0.000 A 
ATOM     11  C   UNL     1      -0.590  10.542  18.405  0.00  0.00    +0.000 A 
ATOM     12  C   UNL     1      -1.899  10.168  18.004  0.00  0.00    +0.000 A 
ATOM     13  C   UNL     1      -3.051  10.906  18.392  0.00  0.00    +0.000 A 
ATOM     14  N   UNL     1      -4.331  10.467  18.022  0.00  0.00    +0.000 N 
ATOM     15  C   UNL     1      -5.477  11.192  18.272  0.00  0.00    +0.000 C 
ATOM     16  O   UNL     1      -6.602  10.729  18.065  0.00  0.00    +0.000 OA
ATOM     17  H   UNL     1      -4.461   9.553  17.604  0.00  0.00    +0.000 HD
ENDBRANCH   1  11
BRANCH   2  18
ATOM     18  C   UNL     1       2.521   8.164  17.705  0.00  0.00    +0.000 C 
BRANCH  18  19
ATOM     19  C   UNL     1       3.287   6.967  18.392  0.00  0.00    +0.000 A 
ATOM     20  C   UNL     1       4.471   6.604  17.751  0.00  0.00    +0.000 A 
ATOM     21  O   UNL     1       4.100   5.534  16.949  0.00  0.00    +0.000 OA
ATOM     22  C   UNL     1       2.915   5.096  17.467  0.00  0.00    +0.000 A 
ATOM     23  C   UNL     1       2.131   4.052  16.992  0.00  0.00    +0.000 A 
ATOM     24  C   UNL     1       2.245   3.068  17.956  0.00  0.00    +0.000 A 
ATOM     25  C   UNL     1       1.964   3.406  19.269  0.00  0.00    +0.000 A 
ATOM     26  C   UNL     1       1.391   2.384  20.025  0.00  0.00    +0.000 A 
ATOM     27  C   UNL     1       1.419   2.420  21.400  0.00  0.00    +0.000 A 
ATOM     28  C   UNL     1       2.100   3.482  22.005  0.00  0.00    +0.000 A 
ATOM     29  C   UNL     1       2.560   4.593  21.232  0.00  0.00    +0.000 A 
ATOM     30  C   UNL     1       2.417   4.659  19.811  0.00  0.00    +0.000 A 
ATOM     31  C   UNL     1       2.757   5.653  18.738  0.00  0.00    +0.000 A 
ENDBRANCH  18  19
ENDBRANCH   2  18
TORSDOF 3
ENDMDL
MODEL 7
REMARK VINA RESULT:      -9.0      6.690      8.866
REMARK  Name = 
REMARK  4 active torsions:
REMARK  status: ('A' for Active; 'I' for Inactive)
REMARK    1  A    between atoms: C_1  and  C_2
REMARK    2  A    between atoms: C_7  and  N_8
REMARK    3  A    between atoms: C_9  and  C_11
REMARK    4  A    between atoms: C_11  and  C_12
REMARK                            x       y       z     vdW  Elec       q    Type
REMARK                         _______ _______ _______ _____ _____    ______ ____
ROOT
ATOM      1  N   UNL     1       0.862   9.534  17.678  0.00  0.00    +0.000 N 
ATOM      2  C   UNL     1       1.709   8.746  18.472  0.00  0.00    +0.000 C 
ATOM      3  O   UNL     1       1.490   8.509  19.669  0.00  0.00    +0.000 OA
ATOM      4  H   UNL     1       1.204   9.727  16.746  0.00  0.00    +0.000 HD
ENDROOT
BRANCH   1  11
ATOM      5  C   UNL     1      -4.846  13.931  20.941  0.00  0.00    +0.000 C 
ATOM      6  C   UNL     1      -3.644  13.029  20.635  0.00  0.00    +0.000 C 
ATOM      7  O   UNL     1      -3.806  12.366  19.366  0.00  0.00    +0.000 OA
ATOM      8  C   UNL     1      -2.674  11.693  18.949  0.00  0.00    +0.000 A 
ATOM      9  C   UNL     1      -2.789  10.676  17.993  0.00  0.00    +0.000 A 
ATOM     10  C   UNL     1      -1.644   9.957  17.545  0.00  0.00    +0.000 A 
ATOM     11  C   UNL     1      -0.358  10.233  18.028  0.00  0.00    +0.000 A 
ATOM     12  C   UNL     1      -0.258  11.314  18.942  0.00  0.00    +0.000 A 
ATOM     13  C   UNL     1      -1.400  12.029  19.399  0.00  0.00    +0.000 A 
ATOM     14  N   UNL     1      -1.250  13.129  20.257  0.00  0.00    +0.000 N 
ATOM     15  C   UNL     1      -2.318  13.795  20.820  0.00  0.00    +0.000 C 
ATOM     16  O   UNL     1      -2.174  14.840  21.458  0.00  0.00    +0.000 OA
ATOM     17  H   UNL     1      -0.332  13.514  20.445  0.00  0.00    +0.000 HD
ENDBRANCH   1  11
BRANCH   2  18
ATOM     18  C   UNL     1       2.959   8.055  17.740  0.00  0.00    +0.000 C 
BRANCH  18  19
ATOM     19  C   UNL     1       3.611   6.801  18.440  0.00  0.00    +0.000 A 
ATOM     20  C   UNL     1       4.775   6.343  17.822  0.00  0.00    +0.000 A 
ATOM     21  O   UNL     1       4.335   5.306  17.012  0.00  0.00    +0.000 OA
ATOM     22  C   UNL     1       3.108   4.965  17.506  0.00  0.00    +0.000 A 
ATOM     23  C   UNL     1       2.251   3.989  17.013  0.00  0.00    +0.000 A 
ATOM     24  C   UNL     1       2.267   2.999  17.978  0.00  0.00    +0.000 A 
ATOM     25  C   UNL     1       1.989   3.359  19.286  0.00  0.00    +0.000 A 
ATOM     26  C   UNL     1       1.319   2.386  20.029  0.00  0.00    +0.000 A 
ATOM     27  C   UNL     1       1.323   2.420  21.405  0.00  0.00    +0.000 A 
ATOM     28  C   UNL     1       2.076   3.423  22.025  0.00  0.00    +0.000 A 
ATOM     29  C   UNL     1       2.640   4.493  21.263  0.00  0.00    +0.000 A 
ATOM     30  C   UNL     1       2.531   4.570  19.839  0.00  0.00    +0.000 A 
ATOM     31  C   UNL     1       2.971   5.534  18.774  0.00  0.00    +0.000 A 
ENDBRANCH  18  19
ENDBRANCH   2  18
TORSDOF 3
ENDMDL
MODEL 8
REMARK VINA RESULT:      -9.0      1.452      1.803
REMARK  Name = 
REMARK  4 active torsions:
REMARK  status: ('A' for Active; 'I' for Inactive)
REMARK    1  A    between atoms: C_1  and  C_2
REMARK    2  A    between atoms: C_7  and  N_8
REMARK    3  A    between atoms: C_9  and  C_11
REMARK    4  A    between atoms: C_11  and  C_12
REMARK                            x       y       z     vdW  Elec       q    Type
REMARK                         _______ _______ _______ _____ _____    ______ ____
ROOT
ATOM      1  N   UNL     1       8.511   9.872  17.723  0.00  0.00    +0.000 N 
ATOM      2  C   UNL     1       8.369   8.559  18.198  0.00  0.00    +0.000 C 
ATOM      3  O   UNL     1       8.925   8.148  19.228  0.00  0.00    +0.000 OA
ATOM      4  H   UNL     1       8.083  10.051  16.824  0.00  0.00    +0.000 HD
ENDROOT
BRANCH   1  11
ATOM      5  C   UNL     1      11.345  16.202  21.524  0.00  0.00    +0.000 C 
ATOM      6  C   UNL     1      10.497  15.144  20.808  0.00  0.00    +0.000 C 
ATOM      7  O   UNL     1      11.309  14.338  19.933  0.00  0.00    +0.000 OA
ATOM      8  C   UNL     1      10.639  13.250  19.409  0.00  0.00    +0.000 A 
ATOM      9  C   UNL     1      11.124  12.634  18.248  0.00  0.00    +0.000 A 
ATOM     10  C   UNL     1      10.455  11.514  17.677  0.00  0.00    +0.000 A 
ATOM     11  C   UNL     1       9.294  10.973  18.246  0.00  0.00    +0.000 A 
ATOM     12  C   UNL     1       8.864  11.568  19.460  0.00  0.00    +0.000 A 
ATOM     13  C   UNL     1       9.524  12.693  20.029  0.00  0.00    +0.000 A 
ATOM     14  N   UNL     1       9.100  13.214  21.261  0.00  0.00    +0.000 N 
ATOM     15  C   UNL     1       9.625  14.363  21.812  0.00  0.00    +0.000 C 
ATOM     16  O   UNL     1       9.341  14.729  22.955  0.00  0.00    +0.000 OA
ATOM     17  H   UNL     1       8.422  12.715  21.825  0.00  0.00    +0.000 HD
ENDBRANCH   1  11
BRANCH   2  18
ATOM     18  C   UNL     1       7.357   7.601  17.404  0.00  0.00    +0.000 C 
BRANCH  18  19
ATOM     19  C   UNL     1       6.809   6.331  18.162  0.00  0.00    +0.000 A 
ATOM     20  C   UNL     1       7.697   5.255  18.188  0.00  0.00    +0.000 A 
ATOM     21  O   UNL     1       7.281   4.455  17.134  0.00  0.00    +0.000 OA
ATOM     22  C   UNL     1       6.006   4.862  16.860  0.00  0.00    +0.000 A 
ATOM     23  C   UNL     1       5.170   4.375  15.863  0.00  0.00    +0.000 A 
ATOM     24  C   UNL     1       4.181   3.693  16.546  0.00  0.00    +0.000 A 
ATOM     25  C   UNL     1       3.500   4.362  17.550  0.00  0.00    +0.000 A 
ATOM     26  C   UNL     1       2.161   3.998  17.690  0.00  0.00    +0.000 A 
ATOM     27  C   UNL     1       1.475   4.261  18.854  0.00  0.00    +0.000 A 
ATOM     28  C   UNL     1       2.188   4.844  19.907  0.00  0.00    +0.000 A 
ATOM     29  C   UNL     1       3.513   5.341  19.708  0.00  0.00    +0.000 A 
ATOM     30  C   UNL     1       4.208   5.216  18.465  0.00  0.00    +0.000 A 
ATOM     31  C   UNL     1       5.550   5.632  17.932  0.00  0.00    +0.000 A 
ENDBRANCH  18  19
ENDBRANCH   2  18
TORSDOF 3
ENDMDL
MODEL 9
REMARK VINA RESULT:      -8.9      6.278     10.026
REMARK  Name = 
REMARK  4 active torsions:
REMARK  status: ('A' for Active; 'I' for Inactive)
REMARK    1  A    between atoms: C_1  and  C_2
REMARK    2  A    between atoms: C_7  and  N_8
REMARK    3  A    between atoms: C_9  and  C_11
REMARK    4  A    between atoms: C_11  and  C_12
REMARK                            x       y       z     vdW  Elec       q    Type
REMARK                         _______ _______ _______ _____ _____    ______ ____
ROOT
ATOM      1  N   UNL     1       2.006   8.169  19.227  0.00  0.00    +0.000 N 
ATOM      2  C   UNL     1       1.387   8.208  20.486  0.00  0.00    +0.000 C 
ATOM      3  O   UNL     1       1.309   7.222  21.234  0.00  0.00    +0.000 OA
ATOM      4  H   UNL     1       1.919   9.014  18.679  0.00  0.00    +0.000 HD
ENDROOT
BRANCH   1  11
ATOM      5  C   UNL     1       6.332   3.390  14.643  0.00  0.00    +0.000 C 
ATOM      6  C   UNL     1       5.519   4.532  15.265  0.00  0.00    +0.000 C 
ATOM      7  O   UNL     1       4.607   4.033  16.263  0.00  0.00    +0.000 OA
ATOM      8  C   UNL     1       3.988   5.030  16.990  0.00  0.00    +0.000 A 
ATOM      9  C   UNL     1       2.797   4.749  17.672  0.00  0.00    +0.000 A 
ATOM     10  C   UNL     1       2.129   5.756  18.427  0.00  0.00    +0.000 A 
ATOM     11  C   UNL     1       2.628   7.061  18.530  0.00  0.00    +0.000 A 
ATOM     12  C   UNL     1       3.871   7.302  17.890  0.00  0.00    +0.000 A 
ATOM     13  C   UNL     1       4.538   6.302  17.128  0.00  0.00    +0.000 A 
ATOM     14  N   UNL     1       5.794   6.565  16.560  0.00  0.00    +0.000 N 
ATOM     15  C   UNL     1       6.441   5.680  15.724  0.00  0.00    +0.000 C 
ATOM     16  O   UNL     1       7.601   5.866  15.346  0.00  0.00    +0.000 OA
ATOM     17  H   UNL     1       6.303   7.406  16.803  0.00  0.00    +0.000 HD
ENDBRANCH   1  11
BRANCH   2  18
ATOM     18  C   UNL     1       0.853   9.634  20.991  0.00  0.00    +0.000 C 
BRANCH  18  19
ATOM     19  C   UNL     1       0.394  10.671  19.894  0.00  0.00    +0.000 A 
ATOM     20  C   UNL     1       0.985  11.929  20.014  0.00  0.00    +0.000 A 
ATOM     21  O   UNL     1       0.043  12.674  20.708  0.00  0.00    +0.000 OA
ATOM     22  C   UNL     1      -1.128  11.985  20.570  0.00  0.00    +0.000 A 
ATOM     23  C   UNL     1      -2.363  12.319  21.111  0.00  0.00    +0.000 A 
ATOM     24  C   UNL     1      -3.129  12.684  20.020  0.00  0.00    +0.000 A 
ATOM     25  C   UNL     1      -3.221  11.796  18.961  0.00  0.00    +0.000 A 
ATOM     26  C   UNL     1      -4.447  11.806  18.295  0.00  0.00    +0.000 A 
ATOM     27  C   UNL     1      -4.564  11.297  17.022  0.00  0.00    +0.000 A 
ATOM     28  C   UNL     1      -3.399  10.835  16.401  0.00  0.00    +0.000 A 
ATOM     29  C   UNL     1      -2.181  10.699  17.136  0.00  0.00    +0.000 A 
ATOM     30  C   UNL     1      -2.058  11.081  18.509  0.00  0.00    +0.000 A 
ATOM     31  C   UNL     1      -0.970  11.050  19.544  0.00  0.00    +0.000 A 
ENDBRANCH  18  19
ENDBRANCH   2  18
TORSDOF 3
ENDMDL
