MODEL 1
REMARK VINA RESULT:      -7.8      0.000      0.000
REMARK  Name = 
REMARK  5 active torsions:
REMARK  status: ('A' for Active; 'I' for Inactive)
REMARK    1  A    between atoms: N_1  and  S_2
REMARK    2  A    between atoms: S_2  and  C_5
REMARK    3  A    between atoms: C_8  and  N_9
REMARK    4  A    between atoms: C_10  and  C_12
REMARK    5  A    between atoms: C_19  and  C_20
REMARK                            x       y       z     vdW  Elec       q    Type
REMARK                         _______ _______ _______ _____ _____    ______ ____
ROOT
ATOM      1  C   UNL     1       7.330   6.993  17.998  0.00  0.00    +0.000 A 
ATOM      2  C   UNL     1       7.522   6.319  19.214  0.00  0.00    +0.000 A 
ATOM      3  C   UNL     1       6.729   5.213  19.533  0.00  0.00    +0.000 A 
ATOM      4  C   UNL     1       5.695   4.825  18.677  0.00  0.00    +0.000 A 
ATOM      5  C   UNL     1       5.425   5.568  17.521  0.00  0.00    +0.000 A 
ATOM      6  C   UNL     1       6.280   6.610  17.153  0.00  0.00    +0.000 A 
ATOM      7  C   UNL     1       4.155   5.299  16.764  0.00  0.00    +0.000 C 
ATOM      8  C   UNL     1       3.122   4.706  17.735  0.00  0.00    +0.000 C 
ATOM      9  O   UNL     1       3.696   3.517  18.332  0.00  0.00    +0.000 OA
ATOM     10  C   UNL     1       4.871   3.631  19.006  0.00  0.00    +0.000 C 
ATOM     11  O   UNL     1       5.263   2.784  19.796  0.00  0.00    +0.000 OA
ENDROOT
BRANCH   8  12
ATOM     12  C   UNL     1       2.562   5.589  18.849  0.00  0.00    +0.000 A 
ATOM     13  C   UNL     1       1.996   5.086  20.031  0.00  0.00    +0.000 A 
ATOM     14  C   UNL     1       1.436   5.944  20.981  0.00  0.00    +0.000 A 
ATOM     15  C   UNL     1       1.449   7.321  20.777  0.00  0.00    +0.000 A 
ATOM     16  C   UNL     1       2.023   7.842  19.622  0.00  0.00    +0.000 A 
ATOM     17  C   UNL     1       2.574   6.985  18.668  0.00  0.00    +0.000 A 
ENDBRANCH   8  12
BRANCH   1  19
ATOM     18  N   UNL     1       8.167   9.235  18.471  0.00  0.00    +0.000 N 
ATOM     19  C   UNL     1       8.146   8.172  17.587  0.00  0.00    +0.000 C 
ATOM     20  O   UNL     1       8.736   8.106  16.513  0.00  0.00    +0.000 OA
ATOM     21  H   UNL     1       7.677   9.130  19.346  0.00  0.00    +0.000 HD
BRANCH  18  25
ATOM     22  C   UNL     1      10.303  12.846  18.072  0.00  0.00    +0.000 A 
ATOM     23  C   UNL     1       8.998  12.780  17.582  0.00  0.00    +0.000 A 
ATOM     24  C   UNL     1       8.271  11.592  17.704  0.00  0.00    +0.000 A 
ATOM     25  C   UNL     1       8.843  10.463  18.300  0.00  0.00    +0.000 A 
ATOM     26  C   UNL     1      10.162  10.537  18.769  0.00  0.00    +0.000 A 
ATOM     27  C   UNL     1      10.892  11.723  18.658  0.00  0.00    +0.000 A 
BRANCH  22  28
ATOM     28  S   UNL     1      11.190  14.369  17.992  0.00  0.00    +0.000 S 
ATOM     29  O   UNL     1      12.333  14.200  17.137  0.00  0.00    +0.000 OA
ATOM     30  O   UNL     1      11.281  14.935  19.318  0.00  0.00    +0.000 OA
BRANCH  28  31
ATOM     31  N   UNL     1      10.106  15.351  17.166  0.00  0.00    +0.000 NA
ATOM     32  H   UNL     1       9.639  14.813  16.436  0.00  0.00    +0.000 HD
ATOM     33  H   UNL     1      10.575  16.190  16.826  0.00  0.00    +0.000 HD
ENDBRANCH  28  31
ENDBRANCH  22  28
ENDBRANCH  18  25
ENDBRANCH   1  19
TORSDOF 5
ENDMDL
MODEL 2
REMARK VINA RESULT:      -7.8      0.676      1.510
REMARK  Name = 
REMARK  5 active torsions:
REMARK  status: ('A' for Active; 'I' for Inactive)
REMARK    1  A    between atoms: N_1  and  S_2
REMARK    2  A    between atoms: S_2  and  C_5
REMARK    3  A    between atoms: C_8  and  N_9
REMARK    4  A    between atoms: C_10  and  C_12
REMARK    5  A    between atoms: C_19  and  C_20
REMARK                            x       y       z     vdW  Elec       q    Type
REMARK                         _______ _______ _______ _____ _____    ______ ____
ROOT
ATOM      1  C   UNL     1       7.348   6.951  18.034  0.00  0.00    +0.000 A 
ATOM      2  C   UNL     1       7.496   6.279  19.256  0.00  0.00    +0.000 A 
ATOM      3  C   UNL     1       6.707   5.161  19.539  0.00  0.00    +0.000 A 
ATOM      4  C   UNL     1       5.718   4.758  18.639  0.00  0.00    +0.000 A 
ATOM      5  C   UNL     1       5.488   5.498  17.473  0.00  0.00    +0.000 A 
ATOM      6  C   UNL     1       6.342   6.553  17.143  0.00  0.00    +0.000 A 
ATOM      7  C   UNL     1       4.256   5.211  16.661  0.00  0.00    +0.000 C 
ATOM      8  C   UNL     1       3.190   4.601  17.586  0.00  0.00    +0.000 C 
ATOM      9  O   UNL     1       3.755   3.420  18.206  0.00  0.00    +0.000 OA
ATOM     10  C   UNL     1       4.898   3.552  18.931  0.00  0.00    +0.000 C 
ATOM     11  O   UNL     1       5.268   2.710  19.737  0.00  0.00    +0.000 OA
ENDROOT
BRANCH   8  12
ATOM     12  C   UNL     1       2.569   5.475  18.675  0.00  0.00    +0.000 A 
ATOM     13  C   UNL     1       2.607   6.877  18.665  0.00  0.00    +0.000 A 
ATOM     14  C   UNL     1       2.083   7.618  19.728  0.00  0.00    +0.000 A 
ATOM     15  C   UNL     1       1.492   6.971  20.809  0.00  0.00    +0.000 A 
ATOM     16  C   UNL     1       1.425   5.581  20.830  0.00  0.00    +0.000 A 
ATOM     17  C   UNL     1       1.957   4.841  19.774  0.00  0.00    +0.000 A 
ENDBRANCH   8  12
BRANCH   1  19
ATOM     18  N   UNL     1       8.291   9.121  18.628  0.00  0.00    +0.000 N 
ATOM     19  C   UNL     1       8.164   8.143  17.659  0.00  0.00    +0.000 C 
ATOM     20  O   UNL     1       8.659   8.160  16.536  0.00  0.00    +0.000 OA
ATOM     21  H   UNL     1       7.874   8.949  19.530  0.00  0.00    +0.000 HD
BRANCH  18  25
ATOM     22  C   UNL     1      10.266  12.811  18.143  0.00  0.00    +0.000 A 
ATOM     23  C   UNL     1      10.881  11.816  18.903  0.00  0.00    +0.000 A 
ATOM     24  C   UNL     1      10.243  10.584  19.077  0.00  0.00    +0.000 A 
ATOM     25  C   UNL     1       8.989  10.343  18.508  0.00  0.00    +0.000 A 
ATOM     26  C   UNL     1       8.374  11.359  17.763  0.00  0.00    +0.000 A 
ATOM     27  C   UNL     1       9.009  12.590  17.578  0.00  0.00    +0.000 A 
BRANCH  22  28
ATOM     28  S   UNL     1      11.109  14.335  17.856  0.00  0.00    +0.000 S 
ATOM     29  O   UNL     1      10.141  15.353  17.545  0.00  0.00    +0.000 OA
ATOM     30  O   UNL     1      12.273  14.087  17.037  0.00  0.00    +0.000 OA
BRANCH  28  31
ATOM     31  N   UNL     1      11.710  14.685  19.384  0.00  0.00    +0.000 NA
ATOM     32  H   UNL     1      10.951  14.988  19.994  0.00  0.00    +0.000 HD
ATOM     33  H   UNL     1      12.479  15.351  19.319  0.00  0.00    +0.000 HD
ENDBRANCH  28  31
ENDBRANCH  22  28
ENDBRANCH  18  25
ENDBRANCH   1  19
TORSDOF 5
ENDMDL
MODEL 3
REMARK VINA RESULT:      -7.7      5.503      8.811
REMARK  Name = 
REMARK  5 active torsions:
REMARK  status: ('A' for Active; 'I' for Inactive)
REMARK    1  A    between atoms: N_1  and  S_2
REMARK    2  A    between atoms: S_2  and  C_5
REMARK    3  A    between atoms: C_8  and  N_9
REMARK    4  A    between atoms: C_10  and  C_12
REMARK    5  A    between atoms: C_19  and  C_20
REMARK                            x       y       z     vdW  Elec       q    Type
REMARK                         _______ _______ _______ _____ _____    ______ ____
ROOT
ATOM      1  C   UNL     1       1.113   8.873  19.972  0.00  0.00    +0.000 A 
ATOM      2  C   UNL     1       1.015   9.393  21.272  0.00  0.00    +0.000 A 
ATOM      3  C   UNL     1       0.092  10.405  21.552  0.00  0.00    +0.000 A 
ATOM      4  C   UNL     1      -0.680  10.951  20.523  0.00  0.00    +0.000 A 
ATOM      5  C   UNL     1      -0.499  10.515  19.204  0.00  0.00    +0.000 A 
ATOM      6  C   UNL     1       0.349   9.437  18.942  0.00  0.00    +0.000 A 
ATOM      7  C   UNL     1      -1.137  11.294  18.088  0.00  0.00    +0.000 C 
ATOM      8  C   UNL     1      -1.339  12.744  18.555  0.00  0.00    +0.000 C 
ATOM      9  O   UNL     1      -2.137  12.720  19.764  0.00  0.00    +0.000 OA
ATOM     10  C   UNL     1      -1.680  12.008  20.829  0.00  0.00    +0.000 C 
ATOM     11  O   UNL     1      -2.098  12.180  21.965  0.00  0.00    +0.000 OA
ENDROOT
BRANCH   8  12
ATOM     12  C   UNL     1      -0.112  13.621  18.798  0.00  0.00    +0.000 A 
ATOM     13  C   UNL     1      -0.167  14.886  19.404  0.00  0.00    +0.000 A 
ATOM     14  C   UNL     1       0.982  15.671  19.533  0.00  0.00    +0.000 A 
ATOM     15  C   UNL     1       2.209  15.198  19.078  0.00  0.00    +0.000 A 
ATOM     16  C   UNL     1       2.290  13.938  18.492  0.00  0.00    +0.000 A 
ATOM     17  C   UNL     1       1.141  13.158  18.354  0.00  0.00    +0.000 A 
ENDBRANCH   8  12
BRANCH   1  19
ATOM     18  N   UNL     1       2.746   7.951  18.412  0.00  0.00    +0.000 N 
ATOM     19  C   UNL     1       2.066   7.785  19.604  0.00  0.00    +0.000 C 
ATOM     20  O   UNL     1       2.177   6.842  20.382  0.00  0.00    +0.000 OA
ATOM     21  H   UNL     1       2.595   8.806  17.898  0.00  0.00    +0.000 HD
BRANCH  18  25
ATOM     22  C   UNL     1       5.616   5.420  16.649  0.00  0.00    +0.000 A 
ATOM     23  C   UNL     1       4.395   4.875  17.047  0.00  0.00    +0.000 A 
ATOM     24  C   UNL     1       3.429   5.697  17.634  0.00  0.00    +0.000 A 
ATOM     25  C   UNL     1       3.677   7.058  17.839  0.00  0.00    +0.000 A 
ATOM     26  C   UNL     1       4.916   7.588  17.453  0.00  0.00    +0.000 A 
ATOM     27  C   UNL     1       5.885   6.774  16.858  0.00  0.00    +0.000 A 
BRANCH  22  28
ATOM     28  S   UNL     1       6.803   4.399  15.833  0.00  0.00    +0.000 S 
ATOM     29  O   UNL     1       6.114   3.349  15.134  0.00  0.00    +0.000 OA
ATOM     30  O   UNL     1       7.908   4.149  16.730  0.00  0.00    +0.000 OA
BRANCH  28  31
ATOM     31  N   UNL     1       7.408   5.445  14.667  0.00  0.00    +0.000 NA
ATOM     32  H   UNL     1       7.118   5.135  13.740  0.00  0.00    +0.000 HD
ATOM     33  H   UNL     1       8.417   5.548  14.772  0.00  0.00    +0.000 HD
ENDBRANCH  28  31
ENDBRANCH  22  28
ENDBRANCH  18  25
ENDBRANCH   1  19
TORSDOF 5
ENDMDL
MODEL 4
REMARK VINA RESULT:      -7.6      5.523      8.844
REMARK  Name = 
REMARK  5 active torsions:
REMARK  status: ('A' for Active; 'I' for Inactive)
REMARK    1  A    between atoms: N_1  and  S_2
REMARK    2  A    between atoms: S_2  and  C_5
REMARK    3  A    between atoms: C_8  and  N_9
REMARK    4  A    between atoms: C_10  and  C_12
REMARK    5  A    between atoms: C_19  and  C_20
REMARK                            x       y       z     vdW  Elec       q    Type
REMARK                         _______ _______ _______ _____ _____    ______ ____
ROOT
ATOM      1  C   UNL     1       1.084   8.903  20.000  0.00  0.00    +0.000 A 
ATOM      2  C   UNL     1       1.004   9.420  21.302  0.00  0.00    +0.000 A 
ATOM      3  C   UNL     1       0.073  10.418  21.602  0.00  0.00    +0.000 A 
ATOM      4  C   UNL     1      -0.726  10.955  20.590  0.00  0.00    +0.000 A 
ATOM      5  C   UNL     1      -0.566  10.524  19.266  0.00  0.00    +0.000 A 
ATOM      6  C   UNL     1       0.293   9.459  18.985  0.00  0.00    +0.000 A 
ATOM      7  C   UNL     1      -1.236  11.296  18.165  0.00  0.00    +0.000 C 
ATOM      8  C   UNL     1      -1.449  12.743  18.639  0.00  0.00    +0.000 C 
ATOM      9  O   UNL     1      -2.223  12.705  19.863  0.00  0.00    +0.000 OA
ATOM     10  C   UNL     1      -1.735  11.998  20.918  0.00  0.00    +0.000 C 
ATOM     11  O   UNL     1      -2.134  12.161  22.062  0.00  0.00    +0.000 OA
ENDROOT
BRANCH   8  12
ATOM     12  C   UNL     1      -0.230  13.637  18.859  0.00  0.00    +0.000 A 
ATOM     13  C   UNL     1       1.073  13.287  18.472  0.00  0.00    +0.000 A 
ATOM     14  C   UNL     1       2.157  14.117  18.767  0.00  0.00    +0.000 A 
ATOM     15  C   UNL     1       1.957  15.321  19.434  0.00  0.00    +0.000 A 
ATOM     16  C   UNL     1       0.671  15.698  19.810  0.00  0.00    +0.000 A 
ATOM     17  C   UNL     1      -0.411  14.864  19.524  0.00  0.00    +0.000 A 
ENDBRANCH   8  12
BRANCH   1  19
ATOM     18  N   UNL     1       2.704   8.011  18.409  0.00  0.00    +0.000 N 
ATOM     19  C   UNL     1       2.044   7.830  19.611  0.00  0.00    +0.000 C 
ATOM     20  O   UNL     1       2.179   6.884  20.381  0.00  0.00    +0.000 OA
ATOM     21  H   UNL     1       2.535   8.867  17.903  0.00  0.00    +0.000 HD
BRANCH  18  25
ATOM     22  C   UNL     1       5.579   5.527  16.588  0.00  0.00    +0.000 A 
ATOM     23  C   UNL     1       4.370   4.964  17.000  0.00  0.00    +0.000 A 
ATOM     24  C   UNL     1       3.402   5.771  17.606  0.00  0.00    +0.000 A 
ATOM     25  C   UNL     1       3.638   7.133  17.817  0.00  0.00    +0.000 A 
ATOM     26  C   UNL     1       4.864   7.680  17.416  0.00  0.00    +0.000 A 
ATOM     27  C   UNL     1       5.834   6.883  16.802  0.00  0.00    +0.000 A 
BRANCH  22  28
ATOM     28  S   UNL     1       6.765   4.525  15.749  0.00  0.00    +0.000 S 
ATOM     29  O   UNL     1       7.498   5.346  14.823  0.00  0.00    +0.000 OA
ATOM     30  O   UNL     1       6.147   3.276  15.368  0.00  0.00    +0.000 OA
BRANCH  28  31
ATOM     31  N   UNL     1       7.822   4.134  16.994  0.00  0.00    +0.000 NA
ATOM     32  H   UNL     1       7.663   3.172  17.292  0.00  0.00    +0.000 HD
ATOM     33  H   UNL     1       7.753   4.818  17.746  0.00  0.00    +0.000 HD
ENDBRANCH  28  31
ENDBRANCH  22  28
ENDBRANCH  18  25
ENDBRANCH   1  19
TORSDOF 5
ENDMDL
MODEL 5
REMARK VINA RESULT:      -7.6      5.625      8.978
REMARK  Name = 
REMARK  5 active torsions:
REMARK  status: ('A' for Active; 'I' for Inactive)
REMARK    1  A    between atoms: N_1  and  S_2
REMARK    2  A    between atoms: S_2  and  C_5
REMARK    3  A    between atoms: C_8  and  N_9
REMARK    4  A    between atoms: C_10  and  C_12
REMARK    5  A    between atoms: C_19  and  C_20
REMARK                            x       y       z     vdW  Elec       q    Type
REMARK                         _______ _______ _______ _____ _____    ______ ____
ROOT
ATOM      1  C   UNL     1       1.135   8.499  20.592  0.00  0.00    +0.000 A 
ATOM      2  C   UNL     1       1.052   8.710  21.977  0.00  0.00    +0.000 A 
ATOM      3  C   UNL     1       0.236   9.726  22.481  0.00  0.00    +0.000 A 
ATOM      4  C   UNL     1      -0.436  10.582  21.605  0.00  0.00    +0.000 A 
ATOM      5  C   UNL     1      -0.261  10.448  20.222  0.00  0.00    +0.000 A 
ATOM      6  C   UNL     1       0.473   9.372  19.718  0.00  0.00    +0.000 A 
ATOM      7  C   UNL     1      -0.772  11.534  19.317  0.00  0.00    +0.000 C 
ATOM      8  C   UNL     1      -0.830  12.848  20.111  0.00  0.00    +0.000 C 
ATOM      9  O   UNL     1      -1.666  12.633  21.276  0.00  0.00    +0.000 OA
ATOM     10  C   UNL     1      -1.325  11.645  22.146  0.00  0.00    +0.000 C 
ATOM     11  O   UNL     1      -1.759  11.593  23.287  0.00  0.00    +0.000 OA
ENDROOT
BRANCH   8  12
ATOM     12  C   UNL     1       0.477  13.499  20.562  0.00  0.00    +0.000 A 
ATOM     13  C   UNL     1       0.574  14.377  21.652  0.00  0.00    +0.000 A 
ATOM     14  C   UNL     1       1.785  14.996  21.971  0.00  0.00    +0.000 A 
ATOM     15  C   UNL     1       2.926  14.733  21.219  0.00  0.00    +0.000 A 
ATOM     16  C   UNL     1       2.858  13.849  20.146  0.00  0.00    +0.000 A 
ATOM     17  C   UNL     1       1.645  13.238  19.821  0.00  0.00    +0.000 A 
ENDBRANCH   8  12
BRANCH   1  19
ATOM     18  N   UNL     1       2.534   7.716  18.753  0.00  0.00    +0.000 N 
ATOM     19  C   UNL     1       1.975   7.426  19.984  0.00  0.00    +0.000 C 
ATOM     20  O   UNL     1       2.111   6.385  20.619  0.00  0.00    +0.000 OA
ATOM     21  H   UNL     1       2.382   8.638  18.371  0.00  0.00    +0.000 HD
BRANCH  18  25
ATOM     22  C   UNL     1       5.002   5.309  16.330  0.00  0.00    +0.000 A 
ATOM     23  C   UNL     1       4.025   4.694  17.114  0.00  0.00    +0.000 A 
ATOM     24  C   UNL     1       3.196   5.474  17.925  0.00  0.00    +0.000 A 
ATOM     25  C   UNL     1       3.343   6.864  17.970  0.00  0.00    +0.000 A 
ATOM     26  C   UNL     1       4.341   7.467  17.193  0.00  0.00    +0.000 A 
ATOM     27  C   UNL     1       5.169   6.695  16.373  0.00  0.00    +0.000 A 
BRANCH  22  28
ATOM     28  S   UNL     1       5.994   4.332  15.246  0.00  0.00    +0.000 S 
ATOM     29  O   UNL     1       7.379   4.643  15.473  0.00  0.00    +0.000 OA
ATOM     30  O   UNL     1       5.397   4.332  13.930  0.00  0.00    +0.000 OA
BRANCH  28  31
ATOM     31  N   UNL     1       5.736   2.786  15.848  0.00  0.00    +0.000 NA
ATOM     32  H   UNL     1       5.681   2.120  15.078  0.00  0.00    +0.000 HD
ATOM     33  H   UNL     1       4.924   2.776  16.464  0.00  0.00    +0.000 HD
ENDBRANCH  28  31
ENDBRANCH  22  28
ENDBRANCH  18  25
ENDBRANCH   1  19
TORSDOF 5
ENDMDL
MODEL 6
REMARK VINA RESULT:      -7.6      1.665      2.167
REMARK  Name = 
REMARK  5 active torsions:
REMARK  status: ('A' for Active; 'I' for Inactive)
REMARK    1  A    between atoms: N_1  and  S_2
REMARK    2  A    between atoms: S_2  and  C_5
REMARK    3  A    between atoms: C_8  and  N_9
REMARK    4  A    between atoms: C_10  and  C_12
REMARK    5  A    between atoms: C_19  and  C_20
REMARK                            x       y       z     vdW  Elec       q    Type
REMARK                         _______ _______ _______ _____ _____    ______ ____
ROOT
ATOM      1  C   UNL     1       8.307   8.542  18.448  0.00  0.00    +0.000 A 
ATOM      2  C   UNL     1       8.562   7.421  19.253  0.00  0.00    +0.000 A 
ATOM      3  C   UNL     1       8.030   6.177  18.905  0.00  0.00    +0.000 A 
ATOM      4  C   UNL     1       7.183   6.063  17.800  0.00  0.00    +0.000 A 
ATOM      5  C   UNL     1       6.832   7.202  17.065  0.00  0.00    +0.000 A 
ATOM      6  C   UNL     1       7.442   8.425  17.352  0.00  0.00    +0.000 A 
ATOM      7  C   UNL     1       5.721   7.104  16.058  0.00  0.00    +0.000 C 
ATOM      8  C   UNL     1       4.787   5.955  16.469  0.00  0.00    +0.000 C 
ATOM      9  O   UNL     1       5.579   4.745  16.568  0.00  0.00    +0.000 OA
ATOM     10  C   UNL     1       6.640   4.732  17.417  0.00  0.00    +0.000 C 
ATOM     11  O   UNL     1       7.161   3.696  17.805  0.00  0.00    +0.000 OA
ENDROOT
BRANCH   8  12
ATOM     12  C   UNL     1       3.954   6.097  17.742  0.00  0.00    +0.000 A 
ATOM     13  C   UNL     1       3.821   5.083  18.703  0.00  0.00    +0.000 A 
ATOM     14  C   UNL     1       2.986   5.249  19.812  0.00  0.00    +0.000 A 
ATOM     15  C   UNL     1       2.286   6.438  19.990  0.00  0.00    +0.000 A 
ATOM     16  C   UNL     1       2.419   7.465  19.061  0.00  0.00    +0.000 A 
ATOM     17  C   UNL     1       3.245   7.296  17.948  0.00  0.00    +0.000 A 
ENDBRANCH   8  12
BRANCH   1  19
ATOM     18  N   UNL     1       8.732  10.840  17.746  0.00  0.00    +0.000 N 
ATOM     19  C   UNL     1       8.852   9.898  18.751  0.00  0.00    +0.000 C 
ATOM     20  O   UNL     1       9.350  10.074  19.859  0.00  0.00    +0.000 OA
ATOM     21  H   UNL     1       8.248  10.571  16.903  0.00  0.00    +0.000 HD
BRANCH  18  25
ATOM     22  C   UNL     1      10.246  14.771  17.853  0.00  0.00    +0.000 A 
ATOM     23  C   UNL     1       8.896  14.563  18.141  0.00  0.00    +0.000 A 
ATOM     24  C   UNL     1       8.373  13.267  18.112  0.00  0.00    +0.000 A 
ATOM     25  C   UNL     1       9.185  12.177  17.782  0.00  0.00    +0.000 A 
ATOM     26  C   UNL     1      10.534  12.402  17.476  0.00  0.00    +0.000 A 
ATOM     27  C   UNL     1      11.067  13.694  17.511  0.00  0.00    +0.000 A 
BRANCH  22  28
ATOM     28  S   UNL     1      10.923  16.396  17.971  0.00  0.00    +0.000 S 
ATOM     29  O   UNL     1      11.779  16.629  16.839  0.00  0.00    +0.000 OA
ATOM     30  O   UNL     1      11.344  16.636  19.332  0.00  0.00    +0.000 OA
BRANCH  28  31
ATOM     31  N   UNL     1       9.559  17.351  17.755  0.00  0.00    +0.000 NA
ATOM     32  H   UNL     1       8.719  16.789  17.893  0.00  0.00    +0.000 HD
ATOM     33  H   UNL     1       9.597  17.825  16.854  0.00  0.00    +0.000 HD
ENDBRANCH  28  31
ENDBRANCH  22  28
ENDBRANCH  18  25
ENDBRANCH   1  19
TORSDOF 5
ENDMDL
MODEL 7
REMARK VINA RESULT:      -7.6      5.896      9.167
REMARK  Name = 
REMARK  5 active torsions:
REMARK  status: ('A' for Active; 'I' for Inactive)
REMARK    1  A    between atoms: N_1  and  S_2
REMARK    2  A    between atoms: S_2  and  C_5
REMARK    3  A    between atoms: C_8  and  N_9
REMARK    4  A    between atoms: C_10  and  C_12
REMARK    5  A    between atoms: C_19  and  C_20
REMARK                            x       y       z     vdW  Elec       q    Type
REMARK                         _______ _______ _______ _____ _____    ______ ____
ROOT
ATOM      1  C   UNL     1       0.968   9.428  19.388  0.00  0.00    +0.000 A 
ATOM      2  C   UNL     1       1.203   9.303  20.766  0.00  0.00    +0.000 A 
ATOM      3  C   UNL     1       0.379   9.968  21.679  0.00  0.00    +0.000 A 
ATOM      4  C   UNL     1      -0.630  10.817  21.219  0.00  0.00    +0.000 A 
ATOM      5  C   UNL     1      -0.790  11.037  19.845  0.00  0.00    +0.000 A 
ATOM      6  C   UNL     1      -0.034  10.296  18.933  0.00  0.00    +0.000 A 
ATOM      7  C   UNL     1      -1.692  12.148  19.386  0.00  0.00    +0.000 C 
ATOM      8  C   UNL     1      -1.773  13.205  20.499  0.00  0.00    +0.000 C 
ATOM      9  O   UNL     1      -2.237  12.552  21.707  0.00  0.00    +0.000 OA
ATOM     10  C   UNL     1      -1.522  11.502  22.192  0.00  0.00    +0.000 C 
ATOM     11  O   UNL     1      -1.638  11.101  23.342  0.00  0.00    +0.000 OA
ENDROOT
BRANCH   8  12
ATOM     12  C   UNL     1      -0.526  14.023  20.835  0.00  0.00    +0.000 A 
ATOM     13  C   UNL     1      -0.307  14.632  22.079  0.00  0.00    +0.000 A 
ATOM     14  C   UNL     1       0.820  15.428  22.301  0.00  0.00    +0.000 A 
ATOM     15  C   UNL     1       1.759  15.611  21.290  0.00  0.00    +0.000 A 
ATOM     16  C   UNL     1       1.572  14.998  20.055  0.00  0.00    +0.000 A 
ATOM     17  C   UNL     1       0.441  14.212  19.830  0.00  0.00    +0.000 A 
ENDBRANCH   8  12
BRANCH   1  19
ATOM     18  N   UNL     1       2.433   7.580  18.765  0.00  0.00    +0.000 N 
ATOM     19  C   UNL     1       1.799   8.739  18.358  0.00  0.00    +0.000 C 
ATOM     20  O   UNL     1       1.848   9.243  17.240  0.00  0.00    +0.000 OA
ATOM     21  H   UNL     1       2.258   7.250  19.702  0.00  0.00    +0.000 HD
BRANCH  18  25
ATOM     22  C   UNL     1       5.039   5.292  16.372  0.00  0.00    +0.000 A 
ATOM     23  C   UNL     1       3.987   4.647  17.024  0.00  0.00    +0.000 A 
ATOM     24  C   UNL     1       3.111   5.387  17.823  0.00  0.00    +0.000 A 
ATOM     25  C   UNL     1       3.284   6.766  17.987  0.00  0.00    +0.000 A 
ATOM     26  C   UNL     1       4.357   7.396  17.342  0.00  0.00    +0.000 A 
ATOM     27  C   UNL     1       5.233   6.665  16.534  0.00  0.00    +0.000 A 
BRANCH  22  28
ATOM     28  S   UNL     1       6.095   4.371  15.299  0.00  0.00    +0.000 S 
ATOM     29  O   UNL     1       7.464   4.688  15.605  0.00  0.00    +0.000 OA
ATOM     30  O   UNL     1       5.563   4.417  13.956  0.00  0.00    +0.000 OA
BRANCH  28  31
ATOM     31  N   UNL     1       5.829   2.799  15.826  0.00  0.00    +0.000 NA
ATOM     32  H   UNL     1       6.392   2.150  15.276  0.00  0.00    +0.000 HD
ATOM     33  H   UNL     1       4.832   2.587  15.822  0.00  0.00    +0.000 HD
ENDBRANCH  28  31
ENDBRANCH  22  28
ENDBRANCH  18  25
ENDBRANCH   1  19
TORSDOF 5
ENDMDL
MODEL 8
REMARK VINA RESULT:      -7.5      5.741      8.980
REMARK  Name = 
REMARK  5 active torsions:
REMARK  status: ('A' for Active; 'I' for Inactive)
REMARK    1  A    between atoms: N_1  and  S_2
REMARK    2  A    between atoms: S_2  and  C_5
REMARK    3  A    between atoms: C_8  and  N_9
REMARK    4  A    between atoms: C_10  and  C_12
REMARK    5  A    between atoms: C_19  and  C_20
REMARK                            x       y       z     vdW  Elec       q    Type
REMARK                         _______ _______ _______ _____ _____    ______ ____
ROOT
ATOM      1  C   UNL     1       1.029   9.381  19.309  0.00  0.00    +0.000 A 
ATOM      2  C   UNL     1       1.175   9.268  20.700  0.00  0.00    +0.000 A 
ATOM      3  C   UNL     1       0.300   9.949  21.551  0.00  0.00    +0.000 A 
ATOM      4  C   UNL     1      -0.669  10.803  21.020  0.00  0.00    +0.000 A 
ATOM      5  C   UNL     1      -0.739  11.009  19.636  0.00  0.00    +0.000 A 
ATOM      6  C   UNL     1       0.067  10.253  18.782  0.00  0.00    +0.000 A 
ATOM      7  C   UNL     1      -1.600  12.124  19.110  0.00  0.00    +0.000 C 
ATOM      8  C   UNL     1      -1.741  13.193  20.205  0.00  0.00    +0.000 C 
ATOM      9  O   UNL     1      -2.287  12.557  21.387  0.00  0.00    +0.000 OA
ATOM     10  C   UNL     1      -1.615  11.506  21.928  0.00  0.00    +0.000 C 
ATOM     11  O   UNL     1      -1.808  11.117  23.071  0.00  0.00    +0.000 OA
ENDROOT
BRANCH   8  12
ATOM     12  C   UNL     1      -0.511  14.003  20.612  0.00  0.00    +0.000 A 
ATOM     13  C   UNL     1       0.670  14.057  19.856  0.00  0.00    +0.000 A 
ATOM     14  C   UNL     1       1.787  14.759  20.318  0.00  0.00    +0.000 A 
ATOM     15  C   UNL     1       1.736  15.436  21.532  0.00  0.00    +0.000 A 
ATOM     16  C   UNL     1       0.568  15.414  22.288  0.00  0.00    +0.000 A 
ATOM     17  C   UNL     1      -0.544  14.704  21.832  0.00  0.00    +0.000 A 
ENDBRANCH   8  12
BRANCH   1  19
ATOM     18  N   UNL     1       2.618   7.590  18.837  0.00  0.00    +0.000 N 
ATOM     19  C   UNL     1       1.917   8.674  18.340  0.00  0.00    +0.000 C 
ATOM     20  O   UNL     1       1.951   9.098  17.189  0.00  0.00    +0.000 OA
ATOM     21  H   UNL     1       2.450   7.319  19.794  0.00  0.00    +0.000 HD
BRANCH  18  25
ATOM     22  C   UNL     1       5.426   5.309  16.678  0.00  0.00    +0.000 A 
ATOM     23  C   UNL     1       4.249   4.694  17.106  0.00  0.00    +0.000 A 
ATOM     24  C   UNL     1       3.304   5.433  17.824  0.00  0.00    +0.000 A 
ATOM     25  C   UNL     1       3.531   6.778  18.130  0.00  0.00    +0.000 A 
ATOM     26  C   UNL     1       4.726   7.378  17.710  0.00  0.00    +0.000 A 
ATOM     27  C   UNL     1       5.673   6.649  16.985  0.00  0.00    +0.000 A 
BRANCH  22  28
ATOM     28  S   UNL     1       6.581   4.399  15.701  0.00  0.00    +0.000 S 
ATOM     29  O   UNL     1       5.916   3.256  15.137  0.00  0.00    +0.000 OA
ATOM     30  O   UNL     1       7.833   4.303  16.415  0.00  0.00    +0.000 OA
BRANCH  28  31
ATOM     31  N   UNL     1       6.873   5.466  14.437  0.00  0.00    +0.000 NA
ATOM     32  H   UNL     1       7.572   6.152  14.719  0.00  0.00    +0.000 HD
ATOM     33  H   UNL     1       6.000   5.874  14.108  0.00  0.00    +0.000 HD
ENDBRANCH  28  31
ENDBRANCH  22  28
ENDBRANCH  18  25
ENDBRANCH   1  19
TORSDOF 5
ENDMDL
MODEL 9
REMARK VINA RESULT:      -7.5      6.559     10.352
REMARK  Name = 
REMARK  5 active torsions:
REMARK  status: ('A' for Active; 'I' for Inactive)
REMARK    1  A    between atoms: N_1  and  S_2
REMARK    2  A    between atoms: S_2  and  C_5
REMARK    3  A    between atoms: C_8  and  N_9
REMARK    4  A    between atoms: C_10  and  C_12
REMARK    5  A    between atoms: C_19  and  C_20
REMARK                            x       y       z     vdW  Elec       q    Type
REMARK                         _______ _______ _______ _____ _____    ______ ____
ROOT
ATOM      1  C   UNL     1       0.715  10.609  20.190  0.00  0.00    +0.000 A 
ATOM      2  C   UNL     1       0.947  11.932  19.784  0.00  0.00    +0.000 A 
ATOM      3  C   UNL     1       0.526  12.994  20.590  0.00  0.00    +0.000 A 
ATOM      4  C   UNL     1      -0.192  12.741  21.761  0.00  0.00    +0.000 A 
ATOM      5  C   UNL     1      -0.528  11.426  22.107  0.00  0.00    +0.000 A 
ATOM      6  C   UNL     1      -0.022  10.362  21.356  0.00  0.00    +0.000 A 
ATOM      7  C   UNL     1      -1.520  11.197  23.213  0.00  0.00    +0.000 C 
ATOM      8  C   UNL     1      -2.424  12.434  23.324  0.00  0.00    +0.000 C 
ATOM      9  O   UNL     1      -1.580  13.591  23.544  0.00  0.00    +0.000 OA
ATOM     10  C   UNL     1      -0.614  13.873  22.629  0.00  0.00    +0.000 C 
ATOM     11  O   UNL     1      -0.079  14.969  22.552  0.00  0.00    +0.000 OA
ENDROOT
BRANCH   8  12
ATOM     12  C   UNL     1      -3.394  12.748  22.185  0.00  0.00    +0.000 A 
ATOM     13  C   UNL     1      -3.234  12.273  20.875  0.00  0.00    +0.000 A 
ATOM     14  C   UNL     1      -4.116  12.655  19.860  0.00  0.00    +0.000 A 
ATOM     15  C   UNL     1      -5.185  13.499  20.142  0.00  0.00    +0.000 A 
ATOM     16  C   UNL     1      -5.375  13.965  21.439  0.00  0.00    +0.000 A 
ATOM     17  C   UNL     1      -4.488  13.593  22.451  0.00  0.00    +0.000 A 
ENDBRANCH   8  12
BRANCH   1  19
ATOM     18  N   UNL     1       1.730   8.393  20.095  0.00  0.00    +0.000 N 
ATOM     19  C   UNL     1       1.146   9.427  19.388  0.00  0.00    +0.000 C 
ATOM     20  O   UNL     1       0.944   9.460  18.178  0.00  0.00    +0.000 OA
ATOM     21  H   UNL     1       1.782   8.478  21.099  0.00  0.00    +0.000 HD
BRANCH  18  25
ATOM     22  C   UNL     1       3.214   4.719  18.662  0.00  0.00    +0.000 A 
ATOM     23  C   UNL     1       3.441   5.873  17.912  0.00  0.00    +0.000 A 
ATOM     24  C   UNL     1       2.958   7.102  18.369  0.00  0.00    +0.000 A 
ATOM     25  C   UNL     1       2.236   7.187  19.564  0.00  0.00    +0.000 A 
ATOM     26  C   UNL     1       1.997   6.016  20.297  0.00  0.00    +0.000 A 
ATOM     27  C   UNL     1       2.485   4.784  19.851  0.00  0.00    +0.000 A 
BRANCH  22  28
ATOM     28  S   UNL     1       3.895   3.181  18.126  0.00  0.00    +0.000 S 
ATOM     29  O   UNL     1       4.572   3.382  16.874  0.00  0.00    +0.000 OA
ATOM     30  O   UNL     1       2.920   2.134  18.330  0.00  0.00    +0.000 OA
BRANCH  28  31
ATOM     31  N   UNL     1       5.081   2.912  19.284  0.00  0.00    +0.000 NA
ATOM     32  H   UNL     1       4.702   3.087  20.214  0.00  0.00    +0.000 HD
ATOM     33  H   UNL     1       5.917   3.454  19.069  0.00  0.00    +0.000 HD
ENDBRANCH  28  31
ENDBRANCH  22  28
ENDBRANCH  18  25
ENDBRANCH   1  19
TORSDOF 5
ENDMDL
