MODEL 1
REMARK VINA RESULT:      -8.6      0.000      0.000
REMARK  Name = 
REMARK  7 active torsions:
REMARK  status: ('A' for Active; 'I' for Inactive)
REMARK    1  A    between atoms: C_1  and  N_2
REMARK    2  A    between atoms: C_6  and  C_7
REMARK    3  A    between atoms: C_7  and  C_8
REMARK    4  A    between atoms: C_8  and  C_9
REMARK    5  A    between atoms: C_13  and  N_14
REMARK    6  A    between atoms: C_20  and  C_21
REMARK    7  A    between atoms: C_21  and  C_22
REMARK                            x       y       z     vdW  Elec       q    Type
REMARK                         _______ _______ _______ _____ _____    ______ ____
ROOT
ATOM      1  C   UNL     1       7.864   7.701  17.819  0.00  0.00    +0.000 A 
ATOM      2  C   UNL     1       7.998   6.880  18.949  0.00  0.00    +0.000 A 
ATOM      3  C   UNL     1       7.824   5.502  18.849  0.00  0.00    +0.000 A 
ATOM      4  C   UNL     1       7.419   4.943  17.645  0.00  0.00    +0.000 A 
ATOM      5  C   UNL     1       7.032   5.782  16.588  0.00  0.00    +0.000 A 
ATOM      6  C   UNL     1       7.407   7.131  16.623  0.00  0.00    +0.000 A 
ENDROOT
BRANCH   5   7
ATOM      7  N   UNL     1       5.876   5.418  15.768  0.00  0.00    +0.000 N 
ATOM      8  C   UNL     1       4.747   6.340  16.051  0.00  0.00    +0.000 C 
ATOM      9  C   UNL     1       4.059   5.634  17.168  0.00  0.00    +0.000 A 
ATOM     10  C   UNL     1       3.563   6.137  18.347  0.00  0.00    +0.000 A 
ATOM     11  F   UNL     1       3.464   7.458  18.534  0.00  0.00    +0.000 F 
ATOM     12  C   UNL     1       3.317   5.262  19.409  0.00  0.00    +0.000 A 
ATOM     13  C   UNL     1       3.549   3.872  19.275  0.00  0.00    +0.000 A 
ATOM     14  C   UNL     1       4.035   3.368  18.059  0.00  0.00    +0.000 A 
ATOM     15  C   UNL     1       4.300   4.270  17.044  0.00  0.00    +0.000 A 
ATOM     16  C   UNL     1       5.355   4.113  16.009  0.00  0.00    +0.000 C 
ATOM     17  O   UNL     1       5.797   3.041  15.650  0.00  0.00    +0.000 OA
BRANCH  13  18
ATOM     18  C   UNL     1       3.415   2.960  20.474  0.00  0.00    +0.000 C 
BRANCH  18  19
ATOM     19  C   UNL     1       2.266   3.360  21.395  0.00  0.00    +0.000 C 
ATOM     20  F   UNL     1       1.079   3.077  20.795  0.00  0.00    +0.000 F 
ENDBRANCH  18  19
ENDBRANCH  13  18
ENDBRANCH   5   7
BRANCH   1  21
ATOM     21  C   UNL     1       8.194   9.172  17.923  0.00  0.00    +0.000 C 
BRANCH  21  22
ATOM     22  C   UNL     1       9.040   9.551  19.143  0.00  0.00    +0.000 C 
BRANCH  22  28
ATOM     23  C   UNL     1       9.321  11.798  21.303  0.00  0.00    +0.000 C 
ATOM     24  N   UNL     1       9.769  11.859  19.938  0.00  0.00    +0.000 N 
ATOM     25  C   UNL     1      10.397  12.916  19.353  0.00  0.00    +0.000 A 
ATOM     26  N   UNL     1      10.654  12.632  18.099  0.00  0.00    +0.000 NA
ATOM     27  N   UNL     1      10.189  11.362  17.856  0.00  0.00    +0.000 NA
ATOM     28  C   UNL     1       9.659  10.895  18.967  0.00  0.00    +0.000 A 
ENDBRANCH  22  28
ENDBRANCH  21  22
ENDBRANCH   1  21
TORSDOF 6
ENDMDL
MODEL 2
REMARK VINA RESULT:      -8.5      5.122      7.189
REMARK  Name = 
REMARK  7 active torsions:
REMARK  status: ('A' for Active; 'I' for Inactive)
REMARK    1  A    between atoms: C_1  and  N_2
REMARK    2  A    between atoms: C_6  and  C_7
REMARK    3  A    between atoms: C_7  and  C_8
REMARK    4  A    between atoms: C_8  and  C_9
REMARK    5  A    between atoms: C_13  and  N_14
REMARK    6  A    between atoms: C_20  and  C_21
REMARK    7  A    between atoms: C_21  and  C_22
REMARK                            x       y       z     vdW  Elec       q    Type
REMARK                         _______ _______ _______ _____ _____    ______ ____
ROOT
ATOM      1  C   UNL     1       1.813   7.237  20.263  0.00  0.00    +0.000 A 
ATOM      2  C   UNL     1       2.314   7.893  19.129  0.00  0.00    +0.000 A 
ATOM      3  C   UNL     1       2.499   7.203  17.934  0.00  0.00    +0.000 A 
ATOM      4  C   UNL     1       2.278   5.834  17.886  0.00  0.00    +0.000 A 
ATOM      5  C   UNL     1       2.030   5.131  19.076  0.00  0.00    +0.000 A 
ATOM      6  C   UNL     1       1.640   5.847  20.215  0.00  0.00    +0.000 A 
ENDROOT
BRANCH   5   7
ATOM      7  N   UNL     1       2.637   3.815  19.273  0.00  0.00    +0.000 N 
ATOM      8  C   UNL     1       3.934   3.959  19.982  0.00  0.00    +0.000 C 
ATOM      9  C   UNL     1       4.880   4.121  18.843  0.00  0.00    +0.000 A 
ATOM     10  C   UNL     1       5.913   5.013  18.683  0.00  0.00    +0.000 A 
ATOM     11  F   UNL     1       6.334   5.756  19.714  0.00  0.00    +0.000 F 
ATOM     12  C   UNL     1       6.412   5.254  17.400  0.00  0.00    +0.000 A 
ATOM     13  C   UNL     1       5.883   4.577  16.275  0.00  0.00    +0.000 A 
ATOM     14  C   UNL     1       4.842   3.653  16.453  0.00  0.00    +0.000 A 
ATOM     15  C   UNL     1       4.352   3.469  17.734  0.00  0.00    +0.000 A 
ATOM     16  C   UNL     1       2.949   3.111  18.073  0.00  0.00    +0.000 C 
ATOM     17  O   UNL     1       2.200   2.521  17.322  0.00  0.00    +0.000 OA
BRANCH  13  18
ATOM     18  C   UNL     1       6.333   4.953  14.881  0.00  0.00    +0.000 C 
BRANCH  18  19
ATOM     19  C   UNL     1       5.883   3.949  13.824  0.00  0.00    +0.000 C 
ATOM     20  F   UNL     1       6.808   3.886  12.829  0.00  0.00    +0.000 F 
ENDBRANCH  18  19
ENDBRANCH  13  18
ENDBRANCH   5   7
BRANCH   1  21
ATOM     21  C   UNL     1       1.490   8.036  21.505  0.00  0.00    +0.000 C 
BRANCH  21  22
ATOM     22  C   UNL     1      -0.004   8.296  21.724  0.00  0.00    +0.000 C 
BRANCH  22  28
ATOM     23  C   UNL     1      -0.574  10.556  19.634  0.00  0.00    +0.000 C 
ATOM     24  N   UNL     1      -0.508  10.705  21.063  0.00  0.00    +0.000 N 
ATOM     25  C   UNL     1      -0.686  11.866  21.751  0.00  0.00    +0.000 A 
ATOM     26  N   UNL     1      -0.548  11.639  23.035  0.00  0.00    +0.000 NA
ATOM     27  N   UNL     1      -0.278  10.302  23.195  0.00  0.00    +0.000 NA
ATOM     28  C   UNL     1      -0.258   9.738  22.005  0.00  0.00    +0.000 A 
ENDBRANCH  22  28
ENDBRANCH  21  22
ENDBRANCH   1  21
TORSDOF 6
ENDMDL
MODEL 3
REMARK VINA RESULT:      -8.3      0.965      1.210
REMARK  Name = 
REMARK  7 active torsions:
REMARK  status: ('A' for Active; 'I' for Inactive)
REMARK    1  A    between atoms: C_1  and  N_2
REMARK    2  A    between atoms: C_6  and  C_7
REMARK    3  A    between atoms: C_7  and  C_8
REMARK    4  A    between atoms: C_8  and  C_9
REMARK    5  A    between atoms: C_13  and  N_14
REMARK    6  A    between atoms: C_20  and  C_21
REMARK    7  A    between atoms: C_21  and  C_22
REMARK                            x       y       z     vdW  Elec       q    Type
REMARK                         _______ _______ _______ _____ _____    ______ ____
ROOT
ATOM      1  C   UNL     1       8.031   7.288  18.352  0.00  0.00    +0.000 A 
ATOM      2  C   UNL     1       8.085   6.205  19.241  0.00  0.00    +0.000 A 
ATOM      3  C   UNL     1       7.837   4.909  18.795  0.00  0.00    +0.000 A 
ATOM      4  C   UNL     1       7.437   4.694  17.484  0.00  0.00    +0.000 A 
ATOM      5  C   UNL     1       7.130   5.793  16.666  0.00  0.00    +0.000 A 
ATOM      6  C   UNL     1       7.580   7.064  17.043  0.00  0.00    +0.000 A 
ENDROOT
BRANCH   5   7
ATOM      7  N   UNL     1       5.981   5.717  15.763  0.00  0.00    +0.000 N 
ATOM      8  C   UNL     1       4.922   6.654  16.217  0.00  0.00    +0.000 C 
ATOM      9  C   UNL     1       4.135   5.789  17.140  0.00  0.00    +0.000 A 
ATOM     10  C   UNL     1       3.637   6.069  18.390  0.00  0.00    +0.000 A 
ATOM     11  F   UNL     1       3.640   7.323  18.857  0.00  0.00    +0.000 F 
ATOM     12  C   UNL     1       3.278   5.012  19.231  0.00  0.00    +0.000 A 
ATOM     13  C   UNL     1       3.399   3.668  18.803  0.00  0.00    +0.000 A 
ATOM     14  C   UNL     1       3.889   3.396  17.516  0.00  0.00    +0.000 A 
ATOM     15  C   UNL     1       4.267   4.468  16.727  0.00  0.00    +0.000 A 
ATOM     16  C   UNL     1       5.345   4.443  15.704  0.00  0.00    +0.000 C 
ATOM     17  O   UNL     1       5.711   3.438  15.130  0.00  0.00    +0.000 OA
BRANCH  13  18
ATOM     18  C   UNL     1       3.144   2.535  19.773  0.00  0.00    +0.000 C 
BRANCH  18  19
ATOM     19  C   UNL     1       2.545   3.012  21.093  0.00  0.00    +0.000 C 
ATOM     20  F   UNL     1       1.631   2.106  21.534  0.00  0.00    +0.000 F 
ENDBRANCH  18  19
ENDBRANCH  13  18
ENDBRANCH   5   7
BRANCH   1  21
ATOM     21  C   UNL     1       8.441   8.663  18.826  0.00  0.00    +0.000 C 
BRANCH  21  22
ATOM     22  C   UNL     1       8.338   9.761  17.762  0.00  0.00    +0.000 C 
BRANCH  22  28
ATOM     23  C   UNL     1       7.636  12.746  17.134  0.00  0.00    +0.000 C 
ATOM     24  N   UNL     1       8.771  12.270  17.878  0.00  0.00    +0.000 N 
ATOM     25  C   UNL     1       9.737  13.047  18.440  0.00  0.00    +0.000 A 
ATOM     26  N   UNL     1      10.622  12.282  19.034  0.00  0.00    +0.000 NA
ATOM     27  N   UNL     1      10.228  10.978  18.863  0.00  0.00    +0.000 NA
ATOM     28  C   UNL     1       9.108  10.971  18.168  0.00  0.00    +0.000 A 
ENDBRANCH  22  28
ENDBRANCH  21  22
ENDBRANCH   1  21
TORSDOF 6
ENDMDL
MODEL 4
REMARK VINA RESULT:      -8.2      0.710      1.237
REMARK  Name = 
REMARK  7 active torsions:
REMARK  status: ('A' for Active; 'I' for Inactive)
REMARK    1  A    between atoms: C_1  and  N_2
REMARK    2  A    between atoms: C_6  and  C_7
REMARK    3  A    between atoms: C_7  and  C_8
REMARK    4  A    between atoms: C_8  and  C_9
REMARK    5  A    between atoms: C_13  and  N_14
REMARK    6  A    between atoms: C_20  and  C_21
REMARK    7  A    between atoms: C_21  and  C_22
REMARK                            x       y       z     vdW  Elec       q    Type
REMARK                         _______ _______ _______ _____ _____    ______ ____
ROOT
ATOM      1  C   UNL     1       7.888   7.796  17.967  0.00  0.00    +0.000 A 
ATOM      2  C   UNL     1       7.992   6.924  19.060  0.00  0.00    +0.000 A 
ATOM      3  C   UNL     1       7.860   5.548  18.886  0.00  0.00    +0.000 A 
ATOM      4  C   UNL     1       7.525   5.039  17.640  0.00  0.00    +0.000 A 
ATOM      5  C   UNL     1       7.165   5.920  16.607  0.00  0.00    +0.000 A 
ATOM      6  C   UNL     1       7.503   7.274  16.724  0.00  0.00    +0.000 A 
ENDROOT
BRANCH   5   7
ATOM      7  N   UNL     1       6.058   5.568  15.717  0.00  0.00    +0.000 N 
ATOM      8  C   UNL     1       4.951   6.545  15.880  0.00  0.00    +0.000 C 
ATOM      9  C   UNL     1       4.154   5.913  16.967  0.00  0.00    +0.000 A 
ATOM     10  C   UNL     1       3.595   6.482  18.086  0.00  0.00    +0.000 A 
ATOM     11  F   UNL     1       3.538   7.814  18.215  0.00  0.00    +0.000 F 
ATOM     12  C   UNL     1       3.234   5.662  19.158  0.00  0.00    +0.000 A 
ATOM     13  C   UNL     1       3.416   4.260  19.095  0.00  0.00    +0.000 A 
ATOM     14  C   UNL     1       3.968   3.688  17.938  0.00  0.00    +0.000 A 
ATOM     15  C   UNL     1       4.345   4.537  16.913  0.00  0.00    +0.000 A 
ATOM     16  C   UNL     1       5.466   4.296  15.967  0.00  0.00    +0.000 C 
ATOM     17  O   UNL     1       5.887   3.194  15.683  0.00  0.00    +0.000 OA
BRANCH  13  18
ATOM     18  C   UNL     1       3.156   3.403  20.314  0.00  0.00    +0.000 C 
BRANCH  18  19
ATOM     19  C   UNL     1       2.130   4.019  21.261  0.00  0.00    +0.000 C 
ATOM     20  F   UNL     1       0.963   3.327  21.185  0.00  0.00    +0.000 F 
ENDBRANCH  18  19
ENDBRANCH  13  18
ENDBRANCH   5   7
BRANCH   1  21
ATOM     21  C   UNL     1       8.174   9.267  18.156  0.00  0.00    +0.000 C 
BRANCH  21  22
ATOM     22  C   UNL     1       9.434   9.571  18.974  0.00  0.00    +0.000 C 
BRANCH  22  28
ATOM     23  C   UNL     1       9.910  12.414  17.754  0.00  0.00    +0.000 C 
ATOM     24  N   UNL     1       9.526  12.114  19.107  0.00  0.00    +0.000 N 
ATOM     25  C   UNL     1       9.303  13.027  20.092  0.00  0.00    +0.000 A 
ATOM     26  N   UNL     1       8.979  12.404  21.200  0.00  0.00    +0.000 NA
ATOM     27  N   UNL     1       8.986  11.056  20.937  0.00  0.00    +0.000 NA
ATOM     28  C   UNL     1       9.313  10.882  19.673  0.00  0.00    +0.000 A 
ENDBRANCH  22  28
ENDBRANCH  21  22
ENDBRANCH   1  21
TORSDOF 6
ENDMDL
MODEL 5
REMARK VINA RESULT:      -7.9      4.867      7.095
REMARK  Name = 
REMARK  7 active torsions:
REMARK  status: ('A' for Active; 'I' for Inactive)
REMARK    1  A    between atoms: C_1  and  N_2
REMARK    2  A    between atoms: C_6  and  C_7
REMARK    3  A    between atoms: C_7  and  C_8
REMARK    4  A    between atoms: C_8  and  C_9
REMARK    5  A    between atoms: C_13  and  N_14
REMARK    6  A    between atoms: C_20  and  C_21
REMARK    7  A    between atoms: C_21  and  C_22
REMARK                            x       y       z     vdW  Elec       q    Type
REMARK                         _______ _______ _______ _____ _____    ______ ____
ROOT
ATOM      1  C   UNL     1       2.181   7.381  19.631  0.00  0.00    +0.000 A 
ATOM      2  C   UNL     1       2.620   8.100  18.510  0.00  0.00    +0.000 A 
ATOM      3  C   UNL     1       3.173   7.440  17.415  0.00  0.00    +0.000 A 
ATOM      4  C   UNL     1       3.384   6.069  17.470  0.00  0.00    +0.000 A 
ATOM      5  C   UNL     1       3.189   5.388  18.682  0.00  0.00    +0.000 A 
ATOM      6  C   UNL     1       2.443   6.005  19.694  0.00  0.00    +0.000 A 
ENDROOT
BRANCH   5   7
ATOM      7  N   UNL     1       4.129   4.337  19.074  0.00  0.00    +0.000 N 
ATOM      8  C   UNL     1       5.440   4.940  19.425  0.00  0.00    +0.000 C 
ATOM      9  C   UNL     1       6.132   4.937  18.106  0.00  0.00    +0.000 A 
ATOM     10  C   UNL     1       6.874   5.926  17.505  0.00  0.00    +0.000 A 
ATOM     11  F   UNL     1       7.246   7.010  18.196  0.00  0.00    +0.000 F 
ATOM     12  C   UNL     1       7.097   5.866  16.127  0.00  0.00    +0.000 A 
ATOM     13  C   UNL     1       6.591   4.794  15.354  0.00  0.00    +0.000 A 
ATOM     14  C   UNL     1       5.853   3.778  15.982  0.00  0.00    +0.000 A 
ATOM     15  C   UNL     1       5.623   3.892  17.342  0.00  0.00    +0.000 A 
ATOM     16  C   UNL     1       4.423   3.383  18.056  0.00  0.00    +0.000 C 
ATOM     17  O   UNL     1       3.741   2.460  17.661  0.00  0.00    +0.000 OA
BRANCH  13  18
ATOM     18  C   UNL     1       6.717   4.817  13.846  0.00  0.00    +0.000 C 
BRANCH  18  19
ATOM     19  C   UNL     1       6.060   3.612  13.180  0.00  0.00    +0.000 C 
ATOM     20  F   UNL     1       4.827   3.957  12.723  0.00  0.00    +0.000 F 
ENDBRANCH  18  19
ENDBRANCH  13  18
ENDBRANCH   5   7
BRANCH   1  21
ATOM     21  C   UNL     1       1.458   8.103  20.744  0.00  0.00    +0.000 C 
BRANCH  21  22
ATOM     22  C   UNL     1       0.608   9.293  20.285  0.00  0.00    +0.000 C 
BRANCH  22  28
ATOM     23  C   UNL     1      -0.841  12.067  20.296  0.00  0.00    +0.000 C 
ATOM     24  N   UNL     1      -0.674  11.182  21.417  0.00  0.00    +0.000 N 
ATOM     25  C   UNL     1      -1.124  11.406  22.681  0.00  0.00    +0.000 A 
ATOM     26  N   UNL     1      -0.789  10.397  23.450  0.00  0.00    +0.000 NA
ATOM     27  N   UNL     1      -0.108   9.491  22.674  0.00  0.00    +0.000 NA
ATOM     28  C   UNL     1      -0.043   9.963  21.446  0.00  0.00    +0.000 A 
ENDBRANCH  22  28
ENDBRANCH  21  22
ENDBRANCH   1  21
TORSDOF 6
ENDMDL
MODEL 6
REMARK VINA RESULT:      -7.8      5.058      6.740
REMARK  Name = 
REMARK  7 active torsions:
REMARK  status: ('A' for Active; 'I' for Inactive)
REMARK    1  A    between atoms: C_1  and  N_2
REMARK    2  A    between atoms: C_6  and  C_7
REMARK    3  A    between atoms: C_7  and  C_8
REMARK    4  A    between atoms: C_8  and  C_9
REMARK    5  A    between atoms: C_13  and  N_14
REMARK    6  A    between atoms: C_20  and  C_21
REMARK    7  A    between atoms: C_21  and  C_22
REMARK                            x       y       z     vdW  Elec       q    Type
REMARK                         _______ _______ _______ _____ _____    ______ ____
ROOT
ATOM      1  C   UNL     1       1.709   7.248  20.321  0.00  0.00    +0.000 A 
ATOM      2  C   UNL     1       2.268   7.748  19.136  0.00  0.00    +0.000 A 
ATOM      3  C   UNL     1       2.449   6.919  18.032  0.00  0.00    +0.000 A 
ATOM      4  C   UNL     1       2.167   5.564  18.132  0.00  0.00    +0.000 A 
ATOM      5  C   UNL     1       1.857   5.013  19.385  0.00  0.00    +0.000 A 
ATOM      6  C   UNL     1       1.474   5.869  20.425  0.00  0.00    +0.000 A 
ENDROOT
BRANCH   5   7
ATOM      7  N   UNL     1       2.398   3.703  19.747  0.00  0.00    +0.000 N 
ATOM      8  C   UNL     1       3.733   3.865  20.378  0.00  0.00    +0.000 C 
ATOM      9  C   UNL     1       4.632   3.804  19.192  0.00  0.00    +0.000 A 
ATOM     10  C   UNL     1       5.705   4.598  18.866  0.00  0.00    +0.000 A 
ATOM     11  F   UNL     1       6.215   5.452  19.762  0.00  0.00    +0.000 F 
ATOM     12  C   UNL     1       6.156   4.622  17.544  0.00  0.00    +0.000 A 
ATOM     13  C   UNL     1       5.538   3.827  16.549  0.00  0.00    +0.000 A 
ATOM     14  C   UNL     1       4.456   3.005  16.898  0.00  0.00    +0.000 A 
ATOM     15  C   UNL     1       4.016   3.035  18.210  0.00  0.00    +0.000 A 
ATOM     16  C   UNL     1       2.614   2.817  18.651  0.00  0.00    +0.000 C 
ATOM     17  O   UNL     1       1.798   2.175  18.022  0.00  0.00    +0.000 OA
BRANCH  13  18
ATOM     18  C   UNL     1       5.943   3.973  15.099  0.00  0.00    +0.000 C 
BRANCH  18  19
ATOM     19  C   UNL     1       6.270   5.414  14.718  0.00  0.00    +0.000 C 
ATOM     20  F   UNL     1       5.165   6.190  14.877  0.00  0.00    +0.000 F 
ENDBRANCH  18  19
ENDBRANCH  13  18
ENDBRANCH   5   7
BRANCH   1  21
ATOM     21  C   UNL     1       1.393   8.195  21.455  0.00  0.00    +0.000 C 
BRANCH  21  22
ATOM     22  C   UNL     1       0.090   8.983  21.283  0.00  0.00    +0.000 C 
BRANCH  22  28
ATOM     23  C   UNL     1      -0.309  10.410  18.526  0.00  0.00    +0.000 C 
ATOM     24  N   UNL     1       0.179  11.008  19.739  0.00  0.00    +0.000 N 
ATOM     25  C   UNL     1       0.552  12.308  19.892  0.00  0.00    +0.000 A 
ATOM     26  N   UNL     1       0.954  12.506  21.125  0.00  0.00    +0.000 NA
ATOM     27  N   UNL     1       0.839  11.314  21.796  0.00  0.00    +0.000 NA
ATOM     28  C   UNL     1       0.369  10.411  20.961  0.00  0.00    +0.000 A 
ENDBRANCH  22  28
ENDBRANCH  21  22
ENDBRANCH   1  21
TORSDOF 6
ENDMDL
MODEL 7
REMARK VINA RESULT:      -7.7      3.906      6.790
REMARK  Name = 
REMARK  7 active torsions:
REMARK  status: ('A' for Active; 'I' for Inactive)
REMARK    1  A    between atoms: C_1  and  N_2
REMARK    2  A    between atoms: C_6  and  C_7
REMARK    3  A    between atoms: C_7  and  C_8
REMARK    4  A    between atoms: C_8  and  C_9
REMARK    5  A    between atoms: C_13  and  N_14
REMARK    6  A    between atoms: C_20  and  C_21
REMARK    7  A    between atoms: C_21  and  C_22
REMARK                            x       y       z     vdW  Elec       q    Type
REMARK                         _______ _______ _______ _____ _____    ______ ____
ROOT
ATOM      1  C   UNL     1       2.900   7.078  17.943  0.00  0.00    +0.000 A 
ATOM      2  C   UNL     1       1.814   6.190  17.957  0.00  0.00    +0.000 A 
ATOM      3  C   UNL     1       2.022   4.816  18.053  0.00  0.00    +0.000 A 
ATOM      4  C   UNL     1       3.314   4.310  18.036  0.00  0.00    +0.000 A 
ATOM      5  C   UNL     1       4.389   5.170  17.760  0.00  0.00    +0.000 A 
ATOM      6  C   UNL     1       4.199   6.552  17.878  0.00  0.00    +0.000 A 
ENDROOT
BRANCH   5   7
ATOM      7  N   UNL     1       5.480   4.703  16.904  0.00  0.00    +0.000 N 
ATOM      8  C   UNL     1       6.608   4.221  17.741  0.00  0.00    +0.000 C 
ATOM      9  C   UNL     1       7.403   5.469  17.915  0.00  0.00    +0.000 A 
ATOM     10  C   UNL     1       7.985   5.985  19.049  0.00  0.00    +0.000 A 
ATOM     11  F   UNL     1       8.069   5.249  20.164  0.00  0.00    +0.000 F 
ATOM     12  C   UNL     1       8.340   7.336  19.076  0.00  0.00    +0.000 A 
ATOM     13  C   UNL     1       8.129   8.167  17.949  0.00  0.00    +0.000 A 
ATOM     14  C   UNL     1       7.554   7.623  16.790  0.00  0.00    +0.000 A 
ATOM     15  C   UNL     1       7.183   6.290  16.815  0.00  0.00    +0.000 A 
ATOM     16  C   UNL     1       6.049   5.700  16.058  0.00  0.00    +0.000 C 
ATOM     17  O   UNL     1       5.603   6.169  15.031  0.00  0.00    +0.000 OA
BRANCH  13  18
ATOM     18  C   UNL     1       8.384   9.655  18.043  0.00  0.00    +0.000 C 
BRANCH  18  19
ATOM     19  C   UNL     1       9.270  10.028  19.228  0.00  0.00    +0.000 C 
ATOM     20  F   UNL     1       9.293  11.380  19.373  0.00  0.00    +0.000 F 
ENDBRANCH  18  19
ENDBRANCH  13  18
ENDBRANCH   5   7
BRANCH   1  21
ATOM     21  C   UNL     1       2.647   8.567  17.979  0.00  0.00    +0.000 C 
BRANCH  21  22
ATOM     22  C   UNL     1       1.168   8.960  18.049  0.00  0.00    +0.000 C 
BRANCH  22  28
ATOM     23  C   UNL     1       0.907   8.366  21.111  0.00  0.00    +0.000 C 
ATOM     24  N   UNL     1       0.822   9.653  20.477  0.00  0.00    +0.000 N 
ATOM     25  C   UNL     1       0.613  10.840  21.110  0.00  0.00    +0.000 A 
ATOM     26  N   UNL     1       0.583  11.808  20.225  0.00  0.00    +0.000 NA
ATOM     27  N   UNL     1       0.781  11.247  18.987  0.00  0.00    +0.000 NA
ATOM     28  C   UNL     1       0.929   9.947  19.140  0.00  0.00    +0.000 A 
ENDBRANCH  22  28
ENDBRANCH  21  22
ENDBRANCH   1  21
TORSDOF 6
ENDMDL
MODEL 8
REMARK VINA RESULT:      -7.7      4.161      7.049
REMARK  Name = 
REMARK  7 active torsions:
REMARK  status: ('A' for Active; 'I' for Inactive)
REMARK    1  A    between atoms: C_1  and  N_2
REMARK    2  A    between atoms: C_6  and  C_7
REMARK    3  A    between atoms: C_7  and  C_8
REMARK    4  A    between atoms: C_8  and  C_9
REMARK    5  A    between atoms: C_13  and  N_14
REMARK    6  A    between atoms: C_20  and  C_21
REMARK    7  A    between atoms: C_21  and  C_22
REMARK                            x       y       z     vdW  Elec       q    Type
REMARK                         _______ _______ _______ _____ _____    ______ ____
ROOT
ATOM      1  C   UNL     1       2.661   7.061  17.993  0.00  0.00    +0.000 A 
ATOM      2  C   UNL     1       1.691   6.079  18.245  0.00  0.00    +0.000 A 
ATOM      3  C   UNL     1       2.066   4.760  18.493  0.00  0.00    +0.000 A 
ATOM      4  C   UNL     1       3.400   4.391  18.396  0.00  0.00    +0.000 A 
ATOM      5  C   UNL     1       4.336   5.308  17.891  0.00  0.00    +0.000 A 
ATOM      6  C   UNL     1       3.998   6.666  17.850  0.00  0.00    +0.000 A 
ENDROOT
BRANCH   5   7
ATOM      7  N   UNL     1       5.383   4.839  16.984  0.00  0.00    +0.000 N 
ATOM      8  C   UNL     1       6.533   4.319  17.768  0.00  0.00    +0.000 C 
ATOM      9  C   UNL     1       7.358   5.548  17.936  0.00  0.00    +0.000 A 
ATOM     10  C   UNL     1       7.993   6.030  19.055  0.00  0.00    +0.000 A 
ATOM     11  F   UNL     1       8.106   5.270  20.152  0.00  0.00    +0.000 F 
ATOM     12  C   UNL     1       8.374   7.374  19.095  0.00  0.00    +0.000 A 
ATOM     13  C   UNL     1       8.136   8.231  17.994  0.00  0.00    +0.000 A 
ATOM     14  C   UNL     1       7.507   7.721  16.848  0.00  0.00    +0.000 A 
ATOM     15  C   UNL     1       7.113   6.395  16.861  0.00  0.00    +0.000 A 
ATOM     16  C   UNL     1       5.938   5.841  16.136  0.00  0.00    +0.000 C 
ATOM     17  O   UNL     1       5.463   6.339  15.137  0.00  0.00    +0.000 OA
BRANCH  13  18
ATOM     18  C   UNL     1       8.424   9.712  18.107  0.00  0.00    +0.000 C 
BRANCH  18  19
ATOM     19  C   UNL     1       9.313  10.052  19.299  0.00  0.00    +0.000 C 
ATOM     20  F   UNL     1      10.216  11.002  18.940  0.00  0.00    +0.000 F 
ENDBRANCH  18  19
ENDBRANCH  13  18
ENDBRANCH   5   7
BRANCH   1  21
ATOM     21  C   UNL     1       2.241   8.507  17.866  0.00  0.00    +0.000 C 
BRANCH  21  22
ATOM     22  C   UNL     1       1.565   9.086  19.113  0.00  0.00    +0.000 C 
BRANCH  22  28
ATOM     23  C   UNL     1       1.215  12.018  20.152  0.00  0.00    +0.000 C 
ATOM     24  N   UNL     1       0.369  11.334  19.212  0.00  0.00    +0.000 N 
ATOM     25  C   UNL     1      -0.735  11.855  18.610  0.00  0.00    +0.000 A 
ATOM     26  N   UNL     1      -1.269  10.954  17.820  0.00  0.00    +0.000 NA
ATOM     27  N   UNL     1      -0.498   9.820  17.901  0.00  0.00    +0.000 NA
ATOM     28  C   UNL     1       0.492  10.052  18.738  0.00  0.00    +0.000 A 
ENDBRANCH  22  28
ENDBRANCH  21  22
ENDBRANCH   1  21
TORSDOF 6
ENDMDL
MODEL 9
REMARK VINA RESULT:      -7.7      4.060      6.707
REMARK  Name = 
REMARK  7 active torsions:
REMARK  status: ('A' for Active; 'I' for Inactive)
REMARK    1  A    between atoms: C_1  and  N_2
REMARK    2  A    between atoms: C_6  and  C_7
REMARK    3  A    between atoms: C_7  and  C_8
REMARK    4  A    between atoms: C_8  and  C_9
REMARK    5  A    between atoms: C_13  and  N_14
REMARK    6  A    between atoms: C_20  and  C_21
REMARK    7  A    between atoms: C_21  and  C_22
REMARK                            x       y       z     vdW  Elec       q    Type
REMARK                         _______ _______ _______ _____ _____    ______ ____
ROOT
ATOM      1  C   UNL     1       3.240   5.293  19.320  0.00  0.00    +0.000 A 
ATOM      2  C   UNL     1       2.997   4.106  18.613  0.00  0.00    +0.000 A 
ATOM      3  C   UNL     1       4.042   3.242  18.295  0.00  0.00    +0.000 A 
ATOM      4  C   UNL     1       5.349   3.601  18.592  0.00  0.00    +0.000 A 
ATOM      5  C   UNL     1       5.621   4.896  19.061  0.00  0.00    +0.000 A 
ATOM      6  C   UNL     1       4.568   5.666  19.571  0.00  0.00    +0.000 A 
ENDROOT
BRANCH   5   7
ATOM      7  N   UNL     1       6.807   5.601  18.576  0.00  0.00    +0.000 N 
ATOM      8  C   UNL     1       6.399   6.822  17.835  0.00  0.00    +0.000 C 
ATOM      9  C   UNL     1       6.259   6.297  16.449  0.00  0.00    +0.000 A 
ATOM     10  C   UNL     1       5.265   6.516  15.526  0.00  0.00    +0.000 A 
ATOM     11  F   UNL     1       4.345   7.467  15.732  0.00  0.00    +0.000 F 
ATOM     12  C   UNL     1       5.126   5.632  14.453  0.00  0.00    +0.000 A 
ATOM     13  C   UNL     1       6.006   4.535  14.295  0.00  0.00    +0.000 A 
ATOM     14  C   UNL     1       7.032   4.334  15.232  0.00  0.00    +0.000 A 
ATOM     15  C   UNL     1       7.114   5.210  16.299  0.00  0.00    +0.000 A 
ATOM     16  C   UNL     1       7.611   4.865  17.657  0.00  0.00    +0.000 C 
ATOM     17  O   UNL     1       8.388   3.961  17.884  0.00  0.00    +0.000 OA
BRANCH  13  18
ATOM     18  C   UNL     1       5.756   3.509  13.213  0.00  0.00    +0.000 C 
BRANCH  18  19
ATOM     19  C   UNL     1       6.832   3.515  12.131  0.00  0.00    +0.000 C 
ATOM     20  F   UNL     1       6.755   2.370  11.402  0.00  0.00    +0.000 F 
ENDBRANCH  18  19
ENDBRANCH  13  18
ENDBRANCH   5   7
BRANCH   1  21
ATOM     21  C   UNL     1       2.076   6.142  19.774  0.00  0.00    +0.000 C 
BRANCH  21  22
ATOM     22  C   UNL     1       2.184   7.624  19.398  0.00  0.00    +0.000 C 
BRANCH  22  28
ATOM     23  C   UNL     1       0.361  10.055  18.649  0.00  0.00    +0.000 C 
ATOM     24  N   UNL     1       0.591   9.530  19.967  0.00  0.00    +0.000 N 
ATOM     25  C   UNL     1       0.047  10.007  21.120  0.00  0.00    +0.000 A 
ATOM     26  N   UNL     1       0.480   9.297  22.135  0.00  0.00    +0.000 NA
ATOM     27  N   UNL     1       1.321   8.331  21.638  0.00  0.00    +0.000 NA
ATOM     28  C   UNL     1       1.385   8.470  20.330  0.00  0.00    +0.000 A 
ENDBRANCH  22  28
ENDBRANCH  21  22
ENDBRANCH   1  21
TORSDOF 6
ENDMDL
