MODEL 1
REMARK VINA RESULT:      -8.4      0.000      0.000
REMARK  Name = 
REMARK  4 active torsions:
REMARK  status: ('A' for Active; 'I' for Inactive)
REMARK    1  A    between atoms: C_1  and  N_2
REMARK    2  A    between atoms: C_3  and  C_4
REMARK    3  A    between atoms: C_10  and  N_11
REMARK    4  A    between atoms: C_22  and  C_23
REMARK                            x       y       z     vdW  Elec       q    Type
REMARK                         _______ _______ _______ _____ _____    ______ ____
ROOT
ATOM      1  C   UNL     1       4.166   3.200  19.065  0.00  0.00    +0.000 C 
ATOM      2  O   UNL     1       4.172   2.060  19.520  0.00  0.00    +0.000 OA
ATOM      3  N   UNL     1       3.521   4.221  19.776  0.00  0.00    +0.000 N 
ATOM      4  C   UNL     1       2.900   3.878  21.054  0.00  0.00    +0.000 C 
ATOM      5  C   UNL     1       1.459   4.373  21.105  0.00  0.00    +0.000 C 
ATOM      6  C   UNL     1       1.386   5.871  20.834  0.00  0.00    +0.000 C 
ATOM      7  C   UNL     1       2.136   6.267  19.543  0.00  0.00    +0.000 C 
ATOM      8  C   UNL     1       3.556   5.665  19.503  0.00  0.00    +0.000 C 
ENDROOT
BRANCH   1  11
ATOM      9  C   UNL     1       6.755   4.887  18.734  0.00  0.00    +0.000 C 
ATOM     10  N   UNL     1       5.979   4.278  17.672  0.00  0.00    +0.000 N 
ATOM     11  C   UNL     1       4.839   3.493  17.805  0.00  0.00    +0.000 A 
ATOM     12  C   UNL     1       4.591   2.988  16.535  0.00  0.00    +0.000 A 
ATOM     13  C   UNL     1       5.461   3.612  15.606  0.00  0.00    +0.000 A 
ATOM     14  C   UNL     1       5.605   3.541  14.206  0.00  0.00    +0.000 A 
ATOM     15  C   UNL     1       6.607   4.293  13.566  0.00  0.00    +0.000 A 
ATOM     16  C   UNL     1       7.444   5.117  14.330  0.00  0.00    +0.000 A 
ATOM     17  C   UNL     1       7.312   5.203  15.718  0.00  0.00    +0.000 A 
ATOM     18  C   UNL     1       6.313   4.433  16.335  0.00  0.00    +0.000 A 
BRANCH  15  19
ATOM     19  C   UNL     1       6.806   4.206  12.074  0.00  0.00    +0.000 C 
ATOM     20  F   UNL     1       7.499   5.254  11.548  0.00  0.00    +0.000 F 
ATOM     21  F   UNL     1       7.488   3.086  11.703  0.00  0.00    +0.000 F 
ATOM     22  F   UNL     1       5.625   4.163  11.396  0.00  0.00    +0.000 F 
ENDBRANCH  15  19
ENDBRANCH   1  11
BRANCH   7  23
ATOM     23  N   UNL     1       2.097   7.729  19.387  0.00  0.00    +0.000 N 
ATOM     24  C   UNL     1       1.671   8.585  20.486  0.00  0.00    +0.000 C 
ATOM     25  C   UNL     1       0.538   9.500  20.062  0.00  0.00    +0.000 C 
ATOM     26  C   UNL     1       0.969  10.307  18.845  0.00  0.00    +0.000 C 
ATOM     27  C   UNL     1       1.464   9.404  17.725  0.00  0.00    +0.000 C 
ATOM     28  C   UNL     1       2.401   8.288  18.155  0.00  0.00    +0.000 C 
ATOM     29  O   UNL     1       3.213   7.798  17.376  0.00  0.00    +0.000 OA
ENDBRANCH   7  23
TORSDOF 3
ENDMDL
MODEL 2
REMARK VINA RESULT:      -8.2      5.100      7.620
REMARK  Name = 
REMARK  4 active torsions:
REMARK  status: ('A' for Active; 'I' for Inactive)
REMARK    1  A    between atoms: C_1  and  N_2
REMARK    2  A    between atoms: C_3  and  C_4
REMARK    3  A    between atoms: C_10  and  N_11
REMARK    4  A    between atoms: C_22  and  C_23
REMARK                            x       y       z     vdW  Elec       q    Type
REMARK                         _______ _______ _______ _____ _____    ______ ____
ROOT
ATOM      1  C   UNL     1       1.008  10.274  20.727  0.00  0.00    +0.000 C 
ATOM      2  O   UNL     1       1.633  10.861  21.605  0.00  0.00    +0.000 OA
ATOM      3  N   UNL     1       0.018  10.959  20.010  0.00  0.00    +0.000 N 
ATOM      4  C   UNL     1      -0.207  12.367  20.332  0.00  0.00    +0.000 C 
ATOM      5  C   UNL     1      -1.688  12.635  20.580  0.00  0.00    +0.000 C 
ATOM      6  C   UNL     1      -2.530  12.193  19.389  0.00  0.00    +0.000 C 
ATOM      7  C   UNL     1      -2.221  10.741  18.964  0.00  0.00    +0.000 C 
ATOM      8  C   UNL     1      -0.704  10.502  18.815  0.00  0.00    +0.000 C 
ENDROOT
BRANCH   1  11
ATOM      9  C   UNL     1       2.427   9.236  18.164  0.00  0.00    +0.000 C 
ATOM     10  N   UNL     1       1.911   8.430  19.252  0.00  0.00    +0.000 N 
ATOM     11  C   UNL     1       1.305   8.879  20.419  0.00  0.00    +0.000 A 
ATOM     12  C   UNL     1       1.174   7.752  21.222  0.00  0.00    +0.000 A 
ATOM     13  C   UNL     1       1.526   6.602  20.473  0.00  0.00    +0.000 A 
ATOM     14  C   UNL     1       1.518   5.219  20.748  0.00  0.00    +0.000 A 
ATOM     15  C   UNL     1       1.958   4.309  19.770  0.00  0.00    +0.000 A 
ATOM     16  C   UNL     1       2.390   4.788  18.527  0.00  0.00    +0.000 A 
ATOM     17  C   UNL     1       2.401   6.154  18.236  0.00  0.00    +0.000 A 
ATOM     18  C   UNL     1       1.969   7.044  19.232  0.00  0.00    +0.000 A 
BRANCH  15  19
ATOM     19  C   UNL     1       1.993   2.828  20.053  0.00  0.00    +0.000 C 
ATOM     20  F   UNL     1       1.402   2.069  19.089  0.00  0.00    +0.000 F 
ATOM     21  F   UNL     1       3.264   2.350  20.176  0.00  0.00    +0.000 F 
ATOM     22  F   UNL     1       1.362   2.509  21.218  0.00  0.00    +0.000 F 
ENDBRANCH  15  19
ENDBRANCH   1  11
BRANCH   7  23
ATOM     23  N   UNL     1      -3.005  10.410  17.764  0.00  0.00    +0.000 N 
ATOM     24  C   UNL     1      -2.386   9.733  16.633  0.00  0.00    +0.000 C 
ATOM     25  C   UNL     1      -2.594  10.509  15.347  0.00  0.00    +0.000 C 
ATOM     26  C   UNL     1      -4.084  10.737  15.130  0.00  0.00    +0.000 C 
ATOM     27  C   UNL     1      -4.729  11.396  16.340  0.00  0.00    +0.000 C 
ATOM     28  C   UNL     1      -4.329  10.815  17.686  0.00  0.00    +0.000 C 
ATOM     29  O   UNL     1      -5.065  10.902  18.665  0.00  0.00    +0.000 OA
ENDBRANCH   7  23
TORSDOF 3
ENDMDL
MODEL 3
REMARK VINA RESULT:      -8.0      5.836      9.403
REMARK  Name = 
REMARK  4 active torsions:
REMARK  status: ('A' for Active; 'I' for Inactive)
REMARK    1  A    between atoms: C_1  and  N_2
REMARK    2  A    between atoms: C_3  and  C_4
REMARK    3  A    between atoms: C_10  and  N_11
REMARK    4  A    between atoms: C_22  and  C_23
REMARK                            x       y       z     vdW  Elec       q    Type
REMARK                         _______ _______ _______ _____ _____    ______ ____
ROOT
ATOM      1  C   UNL     1      -0.304  13.011  21.302  0.00  0.00    +0.000 C 
ATOM      2  O   UNL     1       0.406  13.772  21.951  0.00  0.00    +0.000 OA
ATOM      3  N   UNL     1      -1.598  13.413  20.944  0.00  0.00    +0.000 N 
ATOM      4  C   UNL     1      -2.034  14.748  21.348  0.00  0.00    +0.000 C 
ATOM      5  C   UNL     1      -3.385  14.686  22.051  0.00  0.00    +0.000 C 
ATOM      6  C   UNL     1      -4.427  14.000  21.176  0.00  0.00    +0.000 C 
ATOM      7  C   UNL     1      -3.935  12.634  20.647  0.00  0.00    +0.000 C 
ATOM      8  C   UNL     1      -2.527  12.738  20.026  0.00  0.00    +0.000 C 
ENDROOT
BRANCH   1  11
ATOM      9  C   UNL     1      -0.556  10.368  22.918  0.00  0.00    +0.000 C 
ATOM     10  N   UNL     1       0.106  10.539  21.640  0.00  0.00    +0.000 N 
ATOM     11  C   UNL     1       0.199  11.705  20.889  0.00  0.00    +0.000 A 
ATOM     12  C   UNL     1       0.745  11.315  19.672  0.00  0.00    +0.000 A 
ATOM     13  C   UNL     1       1.152   9.960  19.755  0.00  0.00    +0.000 A 
ATOM     14  C   UNL     1       1.810   9.084  18.869  0.00  0.00    +0.000 A 
ATOM     15  C   UNL     1       2.059   7.754  19.256  0.00  0.00    +0.000 A 
ATOM     16  C   UNL     1       1.658   7.319  20.526  0.00  0.00    +0.000 A 
ATOM     17  C   UNL     1       1.007   8.175  21.418  0.00  0.00    +0.000 A 
ATOM     18  C   UNL     1       0.760   9.494  21.005  0.00  0.00    +0.000 A 
BRANCH  15  19
ATOM     19  C   UNL     1       2.728   6.787  18.313  0.00  0.00    +0.000 C 
ATOM     20  F   UNL     1       3.711   6.043  18.893  0.00  0.00    +0.000 F 
ATOM     21  F   UNL     1       1.853   5.892  17.774  0.00  0.00    +0.000 F 
ATOM     22  F   UNL     1       3.313   7.417  17.256  0.00  0.00    +0.000 F 
ENDBRANCH  15  19
ENDBRANCH   1  11
BRANCH   7  23
ATOM     23  N   UNL     1      -4.951  12.068  19.746  0.00  0.00    +0.000 N 
ATOM     24  C   UNL     1      -4.651  11.826  18.342  0.00  0.00    +0.000 C 
ATOM     25  C   UNL     1      -5.658  12.511  17.439  0.00  0.00    +0.000 C 
ATOM     26  C   UNL     1      -7.062  12.054  17.809  0.00  0.00    +0.000 C 
ATOM     27  C   UNL     1      -7.344  12.262  19.289  0.00  0.00    +0.000 C 
ATOM     28  C   UNL     1      -6.230  11.833  20.229  0.00  0.00    +0.000 C 
ATOM     29  O   UNL     1      -6.461  11.509  21.391  0.00  0.00    +0.000 OA
ENDBRANCH   7  23
TORSDOF 3
ENDMDL
MODEL 4
REMARK VINA RESULT:      -7.9      4.746      8.032
REMARK  Name = 
REMARK  4 active torsions:
REMARK  status: ('A' for Active; 'I' for Inactive)
REMARK    1  A    between atoms: C_1  and  N_2
REMARK    2  A    between atoms: C_3  and  C_4
REMARK    3  A    between atoms: C_10  and  N_11
REMARK    4  A    between atoms: C_22  and  C_23
REMARK                            x       y       z     vdW  Elec       q    Type
REMARK                         _______ _______ _______ _____ _____    ______ ____
ROOT
ATOM      1  C   UNL     1      -0.216  11.737  19.256  0.00  0.00    +0.000 C 
ATOM      2  O   UNL     1      -1.427  11.748  19.059  0.00  0.00    +0.000 OA
ATOM      3  N   UNL     1       0.428  12.917  19.653  0.00  0.00    +0.000 N 
ATOM      4  C   UNL     1      -0.391  14.113  19.840  0.00  0.00    +0.000 C 
ATOM      5  C   UNL     1       0.198  15.295  19.078  0.00  0.00    +0.000 C 
ATOM      6  C   UNL     1       1.646  15.541  19.486  0.00  0.00    +0.000 C 
ATOM      7  C   UNL     1       2.501  14.258  19.403  0.00  0.00    +0.000 C 
ATOM      8  C   UNL     1       1.816  13.071  20.113  0.00  0.00    +0.000 C 
ENDROOT
BRANCH   1  11
ATOM      9  C   UNL     1      -0.107   9.388  21.288  0.00  0.00    +0.000 C 
ATOM     10  N   UNL     1       0.608   9.476  20.031  0.00  0.00    +0.000 N 
ATOM     11  C   UNL     1       0.545  10.503  19.096  0.00  0.00    +0.000 A 
ATOM     12  C   UNL     1       1.242  10.034  17.989  0.00  0.00    +0.000 A 
ATOM     13  C   UNL     1       1.880   8.813  18.321  0.00  0.00    +0.000 A 
ATOM     14  C   UNL     1       2.751   7.949  17.628  0.00  0.00    +0.000 A 
ATOM     15  C   UNL     1       3.207   6.771  18.247  0.00  0.00    +0.000 A 
ATOM     16  C   UNL     1       2.797   6.476  19.554  0.00  0.00    +0.000 A 
ATOM     17  C   UNL     1       1.937   7.324  20.257  0.00  0.00    +0.000 A 
ATOM     18  C   UNL     1       1.486   8.487  19.613  0.00  0.00    +0.000 A 
BRANCH  15  19
ATOM     19  C   UNL     1       4.110   5.812  17.514  0.00  0.00    +0.000 C 
ATOM     20  F   UNL     1       3.488   4.668  17.111  0.00  0.00    +0.000 F 
ATOM     21  F   UNL     1       4.648   6.359  16.388  0.00  0.00    +0.000 F 
ATOM     22  F   UNL     1       5.167   5.412  18.274  0.00  0.00    +0.000 F 
ENDBRANCH  15  19
ENDBRANCH   1  11
BRANCH   7  23
ATOM     23  N   UNL     1       3.859  14.547  19.888  0.00  0.00    +0.000 N 
ATOM     24  C   UNL     1       4.195  14.400  21.297  0.00  0.00    +0.000 C 
ATOM     25  C   UNL     1       4.790  15.679  21.856  0.00  0.00    +0.000 C 
ATOM     26  C   UNL     1       5.997  16.081  21.021  0.00  0.00    +0.000 C 
ATOM     27  C   UNL     1       5.646  16.177  19.544  0.00  0.00    +0.000 C 
ATOM     28  C   UNL     1       4.806  15.035  19.000  0.00  0.00    +0.000 C 
ATOM     29  O   UNL     1       4.833  14.729  17.811  0.00  0.00    +0.000 OA
ENDBRANCH   7  23
TORSDOF 3
ENDMDL
MODEL 5
REMARK VINA RESULT:      -7.9      6.038      9.438
REMARK  Name = 
REMARK  4 active torsions:
REMARK  status: ('A' for Active; 'I' for Inactive)
REMARK    1  A    between atoms: C_1  and  N_2
REMARK    2  A    between atoms: C_3  and  C_4
REMARK    3  A    between atoms: C_10  and  N_11
REMARK    4  A    between atoms: C_22  and  C_23
REMARK                            x       y       z     vdW  Elec       q    Type
REMARK                         _______ _______ _______ _____ _____    ______ ____
ROOT
ATOM      1  C   UNL     1      -0.138  13.053  21.243  0.00  0.00    +0.000 C 
ATOM      2  O   UNL     1       0.561  13.813  21.906  0.00  0.00    +0.000 OA
ATOM      3  N   UNL     1      -1.451  13.424  20.927  0.00  0.00    +0.000 N 
ATOM      4  C   UNL     1      -1.922  14.729  21.387  0.00  0.00    +0.000 C 
ATOM      5  C   UNL     1      -3.256  14.596  22.115  0.00  0.00    +0.000 C 
ATOM      6  C   UNL     1      -4.292  13.908  21.235  0.00  0.00    +0.000 C 
ATOM      7  C   UNL     1      -3.768  12.579  20.647  0.00  0.00    +0.000 C 
ATOM      8  C   UNL     1      -2.376  12.753  20.003  0.00  0.00    +0.000 C 
ENDROOT
BRANCH   1  11
ATOM      9  C   UNL     1       1.151  12.535  18.463  0.00  0.00    +0.000 C 
ATOM     10  N   UNL     1       0.943  11.559  19.514  0.00  0.00    +0.000 N 
ATOM     11  C   UNL     1       0.399  11.780  20.774  0.00  0.00    +0.000 A 
ATOM     12  C   UNL     1       0.597  10.596  21.472  0.00  0.00    +0.000 A 
ATOM     13  C   UNL     1       1.086   9.605  20.584  0.00  0.00    +0.000 A 
ATOM     14  C   UNL     1       1.393   8.237  20.722  0.00  0.00    +0.000 A 
ATOM     15  C   UNL     1       1.892   7.516  19.622  0.00  0.00    +0.000 A 
ATOM     16  C   UNL     1       2.067   8.168  18.394  0.00  0.00    +0.000 A 
ATOM     17  C   UNL     1       1.765   9.523  18.238  0.00  0.00    +0.000 A 
ATOM     18  C   UNL     1       1.280  10.223  19.354  0.00  0.00    +0.000 A 
BRANCH  15  19
ATOM     19  C   UNL     1       2.262   6.061  19.755  0.00  0.00    +0.000 C 
ATOM     20  F   UNL     1       1.882   5.297  18.693  0.00  0.00    +0.000 F 
ATOM     21  F   UNL     1       3.605   5.873  19.886  0.00  0.00    +0.000 F 
ATOM     22  F   UNL     1       1.697   5.481  20.851  0.00  0.00    +0.000 F 
ENDBRANCH  15  19
ENDBRANCH   1  11
BRANCH   7  23
ATOM     23  N   UNL     1      -4.783  12.013  19.746  0.00  0.00    +0.000 N 
ATOM     24  C   UNL     1      -4.466  11.719  18.356  0.00  0.00    +0.000 C 
ATOM     25  C   UNL     1      -5.439  12.402  17.414  0.00  0.00    +0.000 C 
ATOM     26  C   UNL     1      -6.860  11.994  17.773  0.00  0.00    +0.000 C 
ATOM     27  C   UNL     1      -7.162  12.255  19.242  0.00  0.00    +0.000 C 
ATOM     28  C   UNL     1      -6.076  11.827  20.214  0.00  0.00    +0.000 C 
ATOM     29  O   UNL     1      -6.335  11.545  21.380  0.00  0.00    +0.000 OA
ENDBRANCH   7  23
TORSDOF 3
ENDMDL
MODEL 6
REMARK VINA RESULT:      -7.8      7.692     11.201
REMARK  Name = 
REMARK  4 active torsions:
REMARK  status: ('A' for Active; 'I' for Inactive)
REMARK    1  A    between atoms: C_1  and  N_2
REMARK    2  A    between atoms: C_3  and  C_4
REMARK    3  A    between atoms: C_10  and  N_11
REMARK    4  A    between atoms: C_22  and  C_23
REMARK                            x       y       z     vdW  Elec       q    Type
REMARK                         _______ _______ _______ _____ _____    ______ ____
ROOT
ATOM      1  C   UNL     1       4.891  16.328  19.151  0.00  0.00    +0.000 C 
ATOM      2  O   UNL     1       4.457  17.464  18.990  0.00  0.00    +0.000 OA
ATOM      3  N   UNL     1       6.271  16.134  19.306  0.00  0.00    +0.000 N 
ATOM      4  C   UNL     1       7.133  17.314  19.292  0.00  0.00    +0.000 C 
ATOM      5  C   UNL     1       8.284  17.130  18.310  0.00  0.00    +0.000 C 
ATOM      6  C   UNL     1       9.075  15.866  18.623  0.00  0.00    +0.000 C 
ATOM      7  C   UNL     1       8.163  14.626  18.754  0.00  0.00    +0.000 C 
ATOM      8  C   UNL     1       6.966  14.896  19.689  0.00  0.00    +0.000 C 
ENDROOT
BRANCH   1  11
ATOM      9  C   UNL     1       2.928  15.664  21.467  0.00  0.00    +0.000 C 
ATOM     10  N   UNL     1       3.131  14.891  20.259  0.00  0.00    +0.000 N 
ATOM     11  C   UNL     1       3.979  15.191  19.199  0.00  0.00    +0.000 A 
ATOM     12  C   UNL     1       3.670  14.267  18.208  0.00  0.00    +0.000 A 
ATOM     13  C   UNL     1       2.776  13.300  18.734  0.00  0.00    +0.000 A 
ATOM     14  C   UNL     1       2.196  12.125  18.215  0.00  0.00    +0.000 A 
ATOM     15  C   UNL     1       1.308  11.374  19.007  0.00  0.00    +0.000 A 
ATOM     16  C   UNL     1       1.021  11.798  20.311  0.00  0.00    +0.000 A 
ATOM     17  C   UNL     1       1.590  12.958  20.842  0.00  0.00    +0.000 A 
ATOM     18  C   UNL     1       2.463  13.697  20.028  0.00  0.00    +0.000 A 
BRANCH  15  19
ATOM     19  C   UNL     1       0.646  10.135  18.462  0.00  0.00    +0.000 C 
ATOM     20  F   UNL     1       0.374   9.193  19.409  0.00  0.00    +0.000 F 
ATOM     21  F   UNL     1      -0.544  10.403  17.852  0.00  0.00    +0.000 F 
ATOM     22  F   UNL     1       1.411   9.509  17.524  0.00  0.00    +0.000 F 
ENDBRANCH  15  19
ENDBRANCH   1  11
BRANCH   7  23
ATOM     23  N   UNL     1       8.977  13.463  19.138  0.00  0.00    +0.000 N 
ATOM     24  C   UNL     1       9.692  13.439  20.406  0.00  0.00    +0.000 C 
ATOM     25  C   UNL     1      11.168  13.158  20.199  0.00  0.00    +0.000 C 
ATOM     26  C   UNL     1      11.331  11.856  19.428  0.00  0.00    +0.000 C 
ATOM     27  C   UNL     1      10.536  11.873  18.131  0.00  0.00    +0.000 C 
ATOM     28  C   UNL     1       9.120  12.411  18.245  0.00  0.00    +0.000 C 
ATOM     29  O   UNL     1       8.241  12.075  17.455  0.00  0.00    +0.000 OA
ENDBRANCH   7  23
TORSDOF 3
ENDMDL
MODEL 7
REMARK VINA RESULT:      -7.7      5.276      8.785
REMARK  Name = 
REMARK  4 active torsions:
REMARK  status: ('A' for Active; 'I' for Inactive)
REMARK    1  A    between atoms: C_1  and  N_2
REMARK    2  A    between atoms: C_3  and  C_4
REMARK    3  A    between atoms: C_10  and  N_11
REMARK    4  A    between atoms: C_22  and  C_23
REMARK                            x       y       z     vdW  Elec       q    Type
REMARK                         _______ _______ _______ _____ _____    ______ ____
ROOT
ATOM      1  C   UNL     1       0.835  12.804  19.648  0.00  0.00    +0.000 C 
ATOM      2  O   UNL     1       1.773  13.585  19.770  0.00  0.00    +0.000 OA
ATOM      3  N   UNL     1      -0.473  13.303  19.587  0.00  0.00    +0.000 N 
ATOM      4  C   UNL     1      -0.655  14.752  19.648  0.00  0.00    +0.000 C 
ATOM      5  C   UNL     1      -1.688  15.122  20.707  0.00  0.00    +0.000 C 
ATOM      6  C   UNL     1      -3.009  14.404  20.457  0.00  0.00    +0.000 C 
ATOM      7  C   UNL     1      -2.819  12.882  20.277  0.00  0.00    +0.000 C 
ATOM      8  C   UNL     1      -1.701  12.564  19.262  0.00  0.00    +0.000 C 
ENDROOT
BRANCH   1  11
ATOM      9  C   UNL     1       0.249  10.700  21.859  0.00  0.00    +0.000 C 
ATOM     10  N   UNL     1       0.841  10.446  20.561  0.00  0.00    +0.000 N 
ATOM     11  C   UNL     1       1.080  11.369  19.549  0.00  0.00    +0.000 A 
ATOM     12  C   UNL     1       1.465  10.615  18.448  0.00  0.00    +0.000 A 
ATOM     13  C   UNL     1       1.641   9.265  18.844  0.00  0.00    +0.000 A 
ATOM     14  C   UNL     1       2.078   8.102  18.178  0.00  0.00    +0.000 A 
ATOM     15  C   UNL     1       2.123   6.877  18.867  0.00  0.00    +0.000 A 
ATOM     16  C   UNL     1       1.742   6.829  20.214  0.00  0.00    +0.000 A 
ATOM     17  C   UNL     1       1.310   7.972  20.891  0.00  0.00    +0.000 A 
ATOM     18  C   UNL     1       1.262   9.181  20.178  0.00  0.00    +0.000 A 
BRANCH  15  19
ATOM     19  C   UNL     1       2.552   5.612  18.167  0.00  0.00    +0.000 C 
ATOM     20  F   UNL     1       3.541   5.799  17.249  0.00  0.00    +0.000 F 
ATOM     21  F   UNL     1       3.021   4.669  19.032  0.00  0.00    +0.000 F 
ATOM     22  F   UNL     1       1.526   5.020  17.493  0.00  0.00    +0.000 F 
ENDBRANCH  15  19
ENDBRANCH   1  11
BRANCH   7  23
ATOM     23  N   UNL     1      -4.116  12.265  19.958  0.00  0.00    +0.000 N 
ATOM     24  C   UNL     1      -4.356  11.666  18.653  0.00  0.00    +0.000 C 
ATOM     25  C   UNL     1      -5.592  12.253  17.998  0.00  0.00    +0.000 C 
ATOM     26  C   UNL     1      -6.784  12.088  18.929  0.00  0.00    +0.000 C 
ATOM     27  C   UNL     1      -6.501  12.670  20.307  0.00  0.00    +0.000 C 
ATOM     28  C   UNL     1      -5.141  12.324  20.890  0.00  0.00    +0.000 C 
ATOM     29  O   UNL     1      -4.950  12.312  22.103  0.00  0.00    +0.000 OA
ENDBRANCH   7  23
TORSDOF 3
ENDMDL
MODEL 8
REMARK VINA RESULT:      -7.5      7.660     11.113
REMARK  Name = 
REMARK  4 active torsions:
REMARK  status: ('A' for Active; 'I' for Inactive)
REMARK    1  A    between atoms: C_1  and  N_2
REMARK    2  A    between atoms: C_3  and  C_4
REMARK    3  A    between atoms: C_10  and  N_11
REMARK    4  A    between atoms: C_22  and  C_23
REMARK                            x       y       z     vdW  Elec       q    Type
REMARK                         _______ _______ _______ _____ _____    ______ ____
ROOT
ATOM      1  C   UNL     1       5.281  16.225  18.919  0.00  0.00    +0.000 C 
ATOM      2  O   UNL     1       4.920  17.383  18.735  0.00  0.00    +0.000 OA
ATOM      3  N   UNL     1       6.649  15.941  19.038  0.00  0.00    +0.000 N 
ATOM      4  C   UNL     1       7.588  17.059  18.961  0.00  0.00    +0.000 C 
ATOM      5  C   UNL     1       8.692  16.768  17.951  0.00  0.00    +0.000 C 
ATOM      6  C   UNL     1       9.405  15.463  18.280  0.00  0.00    +0.000 C 
ATOM      7  C   UNL     1       8.416  14.292  18.477  0.00  0.00    +0.000 C 
ATOM      8  C   UNL     1       7.271  14.671  19.438  0.00  0.00    +0.000 C 
ENDROOT
BRANCH   1  11
ATOM      9  C   UNL     1       3.451  15.680  21.371  0.00  0.00    +0.000 C 
ATOM     10  N   UNL     1       3.509  14.906  20.147  0.00  0.00    +0.000 N 
ATOM     11  C   UNL     1       4.297  15.154  19.030  0.00  0.00    +0.000 A 
ATOM     12  C   UNL     1       3.851  14.263  18.061  0.00  0.00    +0.000 A 
ATOM     13  C   UNL     1       2.932  13.357  18.647  0.00  0.00    +0.000 A 
ATOM     14  C   UNL     1       2.233  12.231  18.168  0.00  0.00    +0.000 A 
ATOM     15  C   UNL     1       1.354  11.538  19.021  0.00  0.00    +0.000 A 
ATOM     16  C   UNL     1       1.194  11.970  20.344  0.00  0.00    +0.000 A 
ATOM     17  C   UNL     1       1.881  13.082  20.836  0.00  0.00    +0.000 A 
ATOM     18  C   UNL     1       2.743  13.764  19.962  0.00  0.00    +0.000 A 
BRANCH  15  19
ATOM     19  C   UNL     1       0.568  10.353  18.521  0.00  0.00    +0.000 C 
ATOM     20  F   UNL     1      -0.626  10.683  17.953  0.00  0.00    +0.000 F 
ATOM     21  F   UNL     1       1.243   9.637  17.578  0.00  0.00    +0.000 F 
ATOM     22  F   UNL     1       0.274   9.470  19.517  0.00  0.00    +0.000 F 
ENDBRANCH  15  19
ENDBRANCH   1  11
BRANCH   7  23
ATOM     23  N   UNL     1       9.162  13.088  18.872  0.00  0.00    +0.000 N 
ATOM     24  C   UNL     1       9.504  12.067  17.892  0.00  0.00    +0.000 C 
ATOM     25  C   UNL     1       9.010  10.700  18.327  0.00  0.00    +0.000 C 
ATOM     26  C   UNL     1       9.569  10.377  19.706  0.00  0.00    +0.000 C 
ATOM     27  C   UNL     1       9.252  11.478  20.708  0.00  0.00    +0.000 C 
ATOM     28  C   UNL     1       9.478  12.895  20.209  0.00  0.00    +0.000 C 
ATOM     29  O   UNL     1       9.714  13.817  20.985  0.00  0.00    +0.000 OA
ENDBRANCH   7  23
TORSDOF 3
ENDMDL
MODEL 9
REMARK VINA RESULT:      -7.5      5.391      9.074
REMARK  Name = 
REMARK  4 active torsions:
REMARK  status: ('A' for Active; 'I' for Inactive)
REMARK    1  A    between atoms: C_1  and  N_2
REMARK    2  A    between atoms: C_3  and  C_4
REMARK    3  A    between atoms: C_10  and  N_11
REMARK    4  A    between atoms: C_22  and  C_23
REMARK                            x       y       z     vdW  Elec       q    Type
REMARK                         _______ _______ _______ _____ _____    ______ ____
ROOT
ATOM      1  C   UNL     1      -0.825  12.797  19.739  0.00  0.00    +0.000 C 
ATOM      2  O   UNL     1      -2.049  12.851  19.670  0.00  0.00    +0.000 OA
ATOM      3  N   UNL     1      -0.093  13.977  19.930  0.00  0.00    +0.000 N 
ATOM      4  C   UNL     1      -0.837  15.228  20.064  0.00  0.00    +0.000 C 
ATOM      5  C   UNL     1      -0.287  16.288  19.115  0.00  0.00    +0.000 C 
ATOM      6  C   UNL     1       1.205  16.500  19.338  0.00  0.00    +0.000 C 
ATOM      7  C   UNL     1       1.992  15.171  19.312  0.00  0.00    +0.000 C 
ATOM      8  C   UNL     1       1.341  14.107  20.220  0.00  0.00    +0.000 C 
ENDROOT
BRANCH   1  11
ATOM      9  C   UNL     1      -0.557  10.696  22.013  0.00  0.00    +0.000 C 
ATOM     10  N   UNL     1       0.000  10.600  20.679  0.00  0.00    +0.000 N 
ATOM     11  C   UNL     1      -0.138  11.514  19.641  0.00  0.00    +0.000 A 
ATOM     12  C   UNL     1       0.399  10.885  18.524  0.00  0.00    +0.000 A 
ATOM     13  C   UNL     1       1.026   9.678  18.924  0.00  0.00    +0.000 A 
ATOM     14  C   UNL     1       1.771   8.695  18.243  0.00  0.00    +0.000 A 
ATOM     15  C   UNL     1       2.254   7.573  18.943  0.00  0.00    +0.000 A 
ATOM     16  C   UNL     1       1.997   7.454  20.315  0.00  0.00    +0.000 A 
ATOM     17  C   UNL     1       1.263   8.421  21.006  0.00  0.00    +0.000 A 
ATOM     18  C   UNL     1       0.782   9.525  20.284  0.00  0.00    +0.000 A 
BRANCH  15  19
ATOM     19  C   UNL     1       3.022   6.490  18.230  0.00  0.00    +0.000 C 
ATOM     20  F   UNL     1       3.930   5.849  19.017  0.00  0.00    +0.000 F 
ATOM     21  F   UNL     1       2.209   5.515  17.731  0.00  0.00    +0.000 F 
ATOM     22  F   UNL     1       3.724   6.968  17.165  0.00  0.00    +0.000 F 
ENDBRANCH  15  19
ENDBRANCH   1  11
BRANCH   7  23
ATOM     23  N   UNL     1       3.407  15.439  19.616  0.00  0.00    +0.000 N 
ATOM     24  C   UNL     1       3.880  15.477  20.992  0.00  0.00    +0.000 C 
ATOM     25  C   UNL     1       4.593  16.781  21.292  0.00  0.00    +0.000 C 
ATOM     26  C   UNL     1       5.725  16.979  20.294  0.00  0.00    +0.000 C 
ATOM     27  C   UNL     1       5.227  16.882  18.860  0.00  0.00    +0.000 C 
ATOM     28  C   UNL     1       4.279  15.730  18.578  0.00  0.00    +0.000 C 
ATOM     29  O   UNL     1       4.167  15.254  17.451  0.00  0.00    +0.000 OA
ENDBRANCH   7  23
TORSDOF 3
ENDMDL
