MODEL 1
REMARK VINA RESULT:      -8.6      0.000      0.000
REMARK  Name = 
REMARK  6 active torsions:
REMARK  status: ('A' for Active; 'I' for Inactive)
REMARK    1  A    between atoms: N_3  and  C_4
REMARK    2  A    between atoms: C_4  and  C_5
REMARK    3  A    between atoms: C_5  and  C_6
REMARK    4  A    between atoms: N_15  and  C_16
REMARK    5  A    between atoms: C_16  and  C_17
REMARK    6  A    between atoms: C_17  and  C_18
REMARK                            x       y       z     vdW  Elec       q    Type
REMARK                         _______ _______ _______ _____ _____    ______ ____
ROOT
ATOM      1  O   UNL     1       6.999   6.303  18.459  0.00  0.00    +0.000 OA
ATOM      2  C   UNL     1       7.306   6.641  17.323  0.00  0.00    +0.000 C 
ATOM      3  N   UNL     1       7.584   7.928  16.951  0.00  0.00    +0.000 N 
ATOM      4  N   UNL     1       7.403   5.762  16.279  0.00  0.00    +0.000 N 
ATOM      5  H   UNL     1       7.954   8.096  16.027  0.00  0.00    +0.000 HD
ATOM      6  H   UNL     1       7.525   6.124  15.345  0.00  0.00    +0.000 HD
ENDROOT
BRANCH   3   7
ATOM      7  C   UNL     1       7.624   9.021  17.916  0.00  0.00    +0.000 C 
BRANCH   7   8
ATOM      8  C   UNL     1       8.939   9.059  18.694  0.00  0.00    +0.000 C 
BRANCH   8   9
ATOM      9  C   UNL     1       9.332  10.444  19.082  0.00  0.00    +0.000 A 
ATOM     10  C   UNL     1       9.764  11.480  18.279  0.00  0.00    +0.000 A 
ATOM     11  N   UNL     1      10.007  12.534  19.123  0.00  0.00    +0.000 N 
ATOM     12  C   UNL     1      10.465  13.819  18.835  0.00  0.00    +0.000 A 
ATOM     13  C   UNL     1      10.629  14.696  19.840  0.00  0.00    +0.000 A 
ATOM     14  C   UNL     1      10.318  14.274  21.198  0.00  0.00    +0.000 A 
ATOM     15  C   UNL     1       9.878  13.031  21.469  0.00  0.00    +0.000 A 
ATOM     16  C   UNL     1       9.706  12.092  20.408  0.00  0.00    +0.000 A 
ATOM     17  N   UNL     1       9.299  10.842  20.402  0.00  0.00    +0.000 NA
ENDBRANCH   8   9
ENDBRANCH   7   8
ENDBRANCH   3   7
BRANCH   4  18
ATOM     18  C   UNL     1       7.053   4.360  16.433  0.00  0.00    +0.000 C 
BRANCH  18  19
ATOM     19  C   UNL     1       5.667   4.028  15.870  0.00  0.00    +0.000 C 
BRANCH  19  20
ATOM     20  C   UNL     1       4.593   3.951  16.914  0.00  0.00    +0.000 A 
ATOM     21  C   UNL     1       3.830   4.957  17.473  0.00  0.00    +0.000 A 
ATOM     22  C   UNL     1       2.908   4.364  18.377  0.00  0.00    +0.000 A 
ATOM     23  C   UNL     1       1.887   4.870  19.203  0.00  0.00    +0.000 A 
ATOM     24  C   UNL     1       1.130   3.986  19.980  0.00  0.00    +0.000 A 
ATOM     25  C   UNL     1       1.386   2.617  19.947  0.00  0.00    +0.000 A 
ATOM     26  C   UNL     1       2.402   2.092  19.139  0.00  0.00    +0.000 A 
ATOM     27  C   UNL     1       3.142   2.991  18.361  0.00  0.00    +0.000 A 
ATOM     28  N   UNL     1       4.172   2.765  17.472  0.00  0.00    +0.000 N 
ATOM     29  H   UNL     1       4.543   1.850  17.258  0.00  0.00    +0.000 HD
ENDBRANCH  19  20
ENDBRANCH  18  19
ENDBRANCH   4  18
TORSDOF 6
ENDMDL
MODEL 2
REMARK VINA RESULT:      -8.4      1.548     10.504
REMARK  Name = 
REMARK  6 active torsions:
REMARK  status: ('A' for Active; 'I' for Inactive)
REMARK    1  A    between atoms: N_3  and  C_4
REMARK    2  A    between atoms: C_4  and  C_5
REMARK    3  A    between atoms: C_5  and  C_6
REMARK    4  A    between atoms: N_15  and  C_16
REMARK    5  A    between atoms: C_16  and  C_17
REMARK    6  A    between atoms: C_17  and  C_18
REMARK                            x       y       z     vdW  Elec       q    Type
REMARK                         _______ _______ _______ _____ _____    ______ ____
ROOT
ATOM      1  O   UNL     1       7.280   7.258  16.621  0.00  0.00    +0.000 OA
ATOM      2  C   UNL     1       7.689   6.979  17.741  0.00  0.00    +0.000 C 
ATOM      3  N   UNL     1       7.571   5.744  18.319  0.00  0.00    +0.000 N 
ATOM      4  N   UNL     1       8.314   7.881  18.558  0.00  0.00    +0.000 N 
ATOM      5  H   UNL     1       8.051   5.569  19.189  0.00  0.00    +0.000 HD
ATOM      6  H   UNL     1       8.501   7.625  19.516  0.00  0.00    +0.000 HD
ENDROOT
BRANCH   3   7
ATOM      7  C   UNL     1       7.013   4.604  17.600  0.00  0.00    +0.000 C 
BRANCH   7   8
ATOM      8  C   UNL     1       5.697   4.947  16.903  0.00  0.00    +0.000 C 
BRANCH   8   9
ATOM      9  C   UNL     1       4.506   4.539  17.702  0.00  0.00    +0.000 A 
ATOM     10  C   UNL     1       3.389   3.836  17.299  0.00  0.00    +0.000 A 
ATOM     11  N   UNL     1       2.587   3.735  18.406  0.00  0.00    +0.000 N 
ATOM     12  C   UNL     1       1.340   3.128  18.551  0.00  0.00    +0.000 A 
ATOM     13  C   UNL     1       0.734   3.155  19.751  0.00  0.00    +0.000 A 
ATOM     14  C   UNL     1       1.406   3.814  20.861  0.00  0.00    +0.000 A 
ATOM     15  C   UNL     1       2.609   4.401  20.714  0.00  0.00    +0.000 A 
ATOM     16  C   UNL     1       3.256   4.381  19.442  0.00  0.00    +0.000 A 
ATOM     17  N   UNL     1       4.408   4.868  19.038  0.00  0.00    +0.000 NA
ENDBRANCH   8   9
ENDBRANCH   7   8
ENDBRANCH   3   7
BRANCH   4  18
ATOM     18  C   UNL     1       8.454   9.277  18.180  0.00  0.00    +0.000 C 
BRANCH  18  19
ATOM     19  C   UNL     1       9.179  10.112  19.240  0.00  0.00    +0.000 C 
BRANCH  19  20
ATOM     20  C   UNL     1       9.687  11.428  18.730  0.00  0.00    +0.000 A 
ATOM     21  C   UNL     1      10.659  11.695  17.787  0.00  0.00    +0.000 A 
ATOM     22  C   UNL     1      10.733  13.103  17.613  0.00  0.00    +0.000 A 
ATOM     23  C   UNL     1      11.503  13.946  16.790  0.00  0.00    +0.000 A 
ATOM     24  C   UNL     1      11.310  15.331  16.854  0.00  0.00    +0.000 A 
ATOM     25  C   UNL     1      10.372  15.876  17.728  0.00  0.00    +0.000 A 
ATOM     26  C   UNL     1       9.601  15.057  18.561  0.00  0.00    +0.000 A 
ATOM     27  C   UNL     1       9.800  13.673  18.476  0.00  0.00    +0.000 A 
ATOM     28  N   UNL     1       9.183  12.638  19.148  0.00  0.00    +0.000 N 
ATOM     29  H   UNL     1       8.453  12.767  19.834  0.00  0.00    +0.000 HD
ENDBRANCH  19  20
ENDBRANCH  18  19
ENDBRANCH   4  18
TORSDOF 6
ENDMDL
MODEL 3
REMARK VINA RESULT:      -8.3      1.004      1.361
REMARK  Name = 
REMARK  6 active torsions:
REMARK  status: ('A' for Active; 'I' for Inactive)
REMARK    1  A    between atoms: N_3  and  C_4
REMARK    2  A    between atoms: C_4  and  C_5
REMARK    3  A    between atoms: C_5  and  C_6
REMARK    4  A    between atoms: N_15  and  C_16
REMARK    5  A    between atoms: C_16  and  C_17
REMARK    6  A    between atoms: C_17  and  C_18
REMARK                            x       y       z     vdW  Elec       q    Type
REMARK                         _______ _______ _______ _____ _____    ______ ____
ROOT
ATOM      1  O   UNL     1       6.979   6.312  18.525  0.00  0.00    +0.000 OA
ATOM      2  C   UNL     1       7.325   6.659  17.403  0.00  0.00    +0.000 C 
ATOM      3  N   UNL     1       7.801   7.904  17.094  0.00  0.00    +0.000 N 
ATOM      4  N   UNL     1       7.270   5.835  16.312  0.00  0.00    +0.000 N 
ATOM      5  H   UNL     1       8.184   8.062  16.174  0.00  0.00    +0.000 HD
ATOM      6  H   UNL     1       7.439   6.224  15.397  0.00  0.00    +0.000 HD
ENDROOT
BRANCH   3   7
ATOM      7  C   UNL     1       8.024   8.922  18.115  0.00  0.00    +0.000 C 
BRANCH   7   8
ATOM      8  C   UNL     1       9.073   9.949  17.690  0.00  0.00    +0.000 C 
BRANCH   8   9
ATOM      9  C   UNL     1       9.132  11.119  18.613  0.00  0.00    +0.000 A 
ATOM     10  C   UNL     1       9.021  12.463  18.319  0.00  0.00    +0.000 A 
ATOM     11  N   UNL     1       9.157  13.121  19.515  0.00  0.00    +0.000 N 
ATOM     12  C   UNL     1       9.130  14.489  19.786  0.00  0.00    +0.000 A 
ATOM     13  C   UNL     1       9.287  14.908  21.054  0.00  0.00    +0.000 A 
ATOM     14  C   UNL     1       9.475  13.916  22.103  0.00  0.00    +0.000 A 
ATOM     15  C   UNL     1       9.502  12.597  21.833  0.00  0.00    +0.000 A 
ATOM     16  C   UNL     1       9.341  12.144  20.489  0.00  0.00    +0.000 A 
ATOM     17  N   UNL     1       9.328  10.938  19.966  0.00  0.00    +0.000 NA
ENDBRANCH   8   9
ENDBRANCH   7   8
ENDBRANCH   3   7
BRANCH   4  18
ATOM     18  C   UNL     1       6.703   4.500  16.399  0.00  0.00    +0.000 C 
BRANCH  18  19
ATOM     19  C   UNL     1       5.281   4.420  15.833  0.00  0.00    +0.000 C 
BRANCH  19  20
ATOM     20  C   UNL     1       4.217   4.323  16.885  0.00  0.00    +0.000 A 
ATOM     21  C   UNL     1       3.156   3.446  16.990  0.00  0.00    +0.000 A 
ATOM     22  C   UNL     1       2.466   3.727  18.201  0.00  0.00    +0.000 A 
ATOM     23  C   UNL     1       1.346   3.164  18.840  0.00  0.00    +0.000 A 
ATOM     24  C   UNL     1       0.924   3.682  20.070  0.00  0.00    +0.000 A 
ATOM     25  C   UNL     1       1.598   4.752  20.656  0.00  0.00    +0.000 A 
ATOM     26  C   UNL     1       2.709   5.333  20.034  0.00  0.00    +0.000 A 
ATOM     27  C   UNL     1       3.122   4.795  18.808  0.00  0.00    +0.000 A 
ATOM     28  N   UNL     1       4.177   5.143  17.990  0.00  0.00    +0.000 N 
ATOM     29  H   UNL     1       4.828   5.887  18.194  0.00  0.00    +0.000 HD
ENDBRANCH  19  20
ENDBRANCH  18  19
ENDBRANCH   4  18
TORSDOF 6
ENDMDL
MODEL 4
REMARK VINA RESULT:      -8.2      1.075      1.752
REMARK  Name = 
REMARK  6 active torsions:
REMARK  status: ('A' for Active; 'I' for Inactive)
REMARK    1  A    between atoms: N_3  and  C_4
REMARK    2  A    between atoms: C_4  and  C_5
REMARK    3  A    between atoms: C_5  and  C_6
REMARK    4  A    between atoms: N_15  and  C_16
REMARK    5  A    between atoms: C_16  and  C_17
REMARK    6  A    between atoms: C_17  and  C_18
REMARK                            x       y       z     vdW  Elec       q    Type
REMARK                         _______ _______ _______ _____ _____    ______ ____
ROOT
ATOM      1  O   UNL     1       6.778   6.357  18.462  0.00  0.00    +0.000 OA
ATOM      2  C   UNL     1       7.269   6.655  17.380  0.00  0.00    +0.000 C 
ATOM      3  N   UNL     1       7.858   7.860  17.108  0.00  0.00    +0.000 N 
ATOM      4  N   UNL     1       7.282   5.811  16.304  0.00  0.00    +0.000 N 
ATOM      5  H   UNL     1       8.351   7.972  16.234  0.00  0.00    +0.000 HD
ATOM      6  H   UNL     1       7.577   6.168  15.407  0.00  0.00    +0.000 HD
ENDROOT
BRANCH   3   7
ATOM      7  C   UNL     1       8.033   8.885  18.131  0.00  0.00    +0.000 C 
BRANCH   7   8
ATOM      8  C   UNL     1       8.984   9.994  17.683  0.00  0.00    +0.000 C 
BRANCH   8   9
ATOM      9  C   UNL     1       9.126  11.070  18.706  0.00  0.00    +0.000 A 
ATOM     10  C   UNL     1       9.343  10.953  20.064  0.00  0.00    +0.000 A 
ATOM     11  N   UNL     1       9.384  12.235  20.550  0.00  0.00    +0.000 N 
ATOM     12  C   UNL     1       9.571  12.687  21.856  0.00  0.00    +0.000 A 
ATOM     13  C   UNL     1       9.574  14.009  22.097  0.00  0.00    +0.000 A 
ATOM     14  C   UNL     1       9.387  14.926  20.982  0.00  0.00    +0.000 A 
ATOM     15  C   UNL     1       9.204  14.483  19.724  0.00  0.00    +0.000 A 
ATOM     16  C   UNL     1       9.194  13.080  19.461  0.00  0.00    +0.000 A 
ATOM     17  N   UNL     1       9.039  12.399  18.347  0.00  0.00    +0.000 NA
ENDBRANCH   8   9
ENDBRANCH   7   8
ENDBRANCH   3   7
BRANCH   4  18
ATOM     18  C   UNL     1       6.621   4.518  16.346  0.00  0.00    +0.000 C 
BRANCH  18  19
ATOM     19  C   UNL     1       5.186   4.565  15.810  0.00  0.00    +0.000 C 
BRANCH  19  20
ATOM     20  C   UNL     1       4.138   4.434  16.875  0.00  0.00    +0.000 A 
ATOM     21  C   UNL     1       3.197   3.443  17.072  0.00  0.00    +0.000 A 
ATOM     22  C   UNL     1       2.472   3.748  18.255  0.00  0.00    +0.000 A 
ATOM     23  C   UNL     1       1.431   3.111  18.955  0.00  0.00    +0.000 A 
ATOM     24  C   UNL     1       0.941   3.686  20.133  0.00  0.00    +0.000 A 
ATOM     25  C   UNL     1       1.470   4.884  20.609  0.00  0.00    +0.000 A 
ATOM     26  C   UNL     1       2.501   5.540  19.925  0.00  0.00    +0.000 A 
ATOM     27  C   UNL     1       2.985   4.944  18.754  0.00  0.00    +0.000 A 
ATOM     28  N   UNL     1       3.989   5.344  17.897  0.00  0.00    +0.000 N 
ATOM     29  H   UNL     1       4.540   6.180  18.024  0.00  0.00    +0.000 HD
ENDBRANCH  19  20
ENDBRANCH  18  19
ENDBRANCH   4  18
TORSDOF 6
ENDMDL
MODEL 5
REMARK VINA RESULT:      -8.1      1.541     10.621
REMARK  Name = 
REMARK  6 active torsions:
REMARK  status: ('A' for Active; 'I' for Inactive)
REMARK    1  A    between atoms: N_3  and  C_4
REMARK    2  A    between atoms: C_4  and  C_5
REMARK    3  A    between atoms: C_5  and  C_6
REMARK    4  A    between atoms: N_15  and  C_16
REMARK    5  A    between atoms: C_16  and  C_17
REMARK    6  A    between atoms: C_17  and  C_18
REMARK                            x       y       z     vdW  Elec       q    Type
REMARK                         _______ _______ _______ _____ _____    ______ ____
ROOT
ATOM      1  O   UNL     1       7.641   7.525  16.731  0.00  0.00    +0.000 OA
ATOM      2  C   UNL     1       7.849   7.187  17.890  0.00  0.00    +0.000 C 
ATOM      3  N   UNL     1       7.524   5.961  18.405  0.00  0.00    +0.000 N 
ATOM      4  N   UNL     1       8.433   8.006  18.817  0.00  0.00    +0.000 N 
ATOM      5  H   UNL     1       7.849   5.722  19.330  0.00  0.00    +0.000 HD
ATOM      6  H   UNL     1       8.450   7.715  19.784  0.00  0.00    +0.000 HD
ENDROOT
BRANCH   3   7
ATOM      7  C   UNL     1       6.967   4.897  17.577  0.00  0.00    +0.000 C 
BRANCH   7   8
ATOM      8  C   UNL     1       5.629   5.290  16.952  0.00  0.00    +0.000 C 
BRANCH   8   9
ATOM      9  C   UNL     1       4.465   4.776  17.730  0.00  0.00    +0.000 A 
ATOM     10  C   UNL     1       3.575   3.774  17.400  0.00  0.00    +0.000 A 
ATOM     11  N   UNL     1       2.689   3.699  18.444  0.00  0.00    +0.000 N 
ATOM     12  C   UNL     1       1.588   2.861  18.620  0.00  0.00    +0.000 A 
ATOM     13  C   UNL     1       0.855   2.969  19.742  0.00  0.00    +0.000 A 
ATOM     14  C   UNL     1       1.240   3.958  20.738  0.00  0.00    +0.000 A 
ATOM     15  C   UNL     1       2.302   4.766  20.561  0.00  0.00    +0.000 A 
ATOM     16  C   UNL     1       3.083   4.660  19.371  0.00  0.00    +0.000 A 
ATOM     17  N   UNL     1       4.146   5.314  18.960  0.00  0.00    +0.000 NA
ENDBRANCH   8   9
ENDBRANCH   7   8
ENDBRANCH   3   7
BRANCH   4  18
ATOM     18  C   UNL     1       8.766   9.385  18.507  0.00  0.00    +0.000 C 
BRANCH  18  19
ATOM     19  C   UNL     1       9.267  10.165  19.727  0.00  0.00    +0.000 C 
BRANCH  19  20
ATOM     20  C   UNL     1       9.942  11.459  19.382  0.00  0.00    +0.000 A 
ATOM     21  C   UNL     1      10.824  12.221  20.123  0.00  0.00    +0.000 A 
ATOM     22  C   UNL     1      11.225  13.331  19.331  0.00  0.00    +0.000 A 
ATOM     23  C   UNL     1      12.104  14.410  19.536  0.00  0.00    +0.000 A 
ATOM     24  C   UNL     1      12.291  15.348  18.514  0.00  0.00    +0.000 A 
ATOM     25  C   UNL     1      11.610  15.223  17.305  0.00  0.00    +0.000 A 
ATOM     26  C   UNL     1      10.725  14.161  17.082  0.00  0.00    +0.000 A 
ATOM     27  C   UNL     1      10.558  13.228  18.113  0.00  0.00    +0.000 A 
ATOM     28  N   UNL     1       9.781  12.089  18.169  0.00  0.00    +0.000 N 
ATOM     29  H   UNL     1       9.195  11.767  17.413  0.00  0.00    +0.000 HD
ENDBRANCH  19  20
ENDBRANCH  18  19
ENDBRANCH   4  18
TORSDOF 6
ENDMDL
MODEL 6
REMARK VINA RESULT:      -8.1      1.472     10.287
REMARK  Name = 
REMARK  6 active torsions:
REMARK  status: ('A' for Active; 'I' for Inactive)
REMARK    1  A    between atoms: N_3  and  C_4
REMARK    2  A    between atoms: C_4  and  C_5
REMARK    3  A    between atoms: C_5  and  C_6
REMARK    4  A    between atoms: N_15  and  C_16
REMARK    5  A    between atoms: C_16  and  C_17
REMARK    6  A    between atoms: C_17  and  C_18
REMARK                            x       y       z     vdW  Elec       q    Type
REMARK                         _______ _______ _______ _____ _____    ______ ____
ROOT
ATOM      1  O   UNL     1       6.480   6.564  18.425  0.00  0.00    +0.000 OA
ATOM      2  C   UNL     1       7.083   6.682  17.366  0.00  0.00    +0.000 C 
ATOM      3  N   UNL     1       7.294   5.659  16.481  0.00  0.00    +0.000 N 
ATOM      4  N   UNL     1       7.629   7.862  16.940  0.00  0.00    +0.000 N 
ATOM      5  H   UNL     1       7.686   5.875  15.576  0.00  0.00    +0.000 HD
ATOM      6  H   UNL     1       8.229   7.859  16.129  0.00  0.00    +0.000 HD
ENDROOT
BRANCH   3   7
ATOM      7  C   UNL     1       6.730   4.330  16.687  0.00  0.00    +0.000 C 
BRANCH   7   8
ATOM      8  C   UNL     1       5.317   4.205  16.117  0.00  0.00    +0.000 C 
BRANCH   8   9
ATOM      9  C   UNL     1       4.294   3.970  17.176  0.00  0.00    +0.000 A 
ATOM     10  C   UNL     1       3.844   2.774  17.698  0.00  0.00    +0.000 A 
ATOM     11  N   UNL     1       2.897   3.104  18.633  0.00  0.00    +0.000 N 
ATOM     12  C   UNL     1       2.126   2.278  19.449  0.00  0.00    +0.000 A 
ATOM     13  C   UNL     1       1.249   2.835  20.303  0.00  0.00    +0.000 A 
ATOM     14  C   UNL     1       1.139   4.286  20.349  0.00  0.00    +0.000 A 
ATOM     15  C   UNL     1       1.886   5.077  19.555  0.00  0.00    +0.000 A 
ATOM     16  C   UNL     1       2.815   4.494  18.643  0.00  0.00    +0.000 A 
ATOM     17  N   UNL     1       3.646   5.029  17.777  0.00  0.00    +0.000 NA
ENDBRANCH   8   9
ENDBRANCH   7   8
ENDBRANCH   3   7
BRANCH   4  18
ATOM     18  C   UNL     1       7.607   9.052  17.774  0.00  0.00    +0.000 C 
BRANCH  18  19
ATOM     19  C   UNL     1       8.974   9.379  18.382  0.00  0.00    +0.000 C 
BRANCH  19  20
ATOM     20  C   UNL     1       9.395  10.805  18.192  0.00  0.00    +0.000 A 
ATOM     21  C   UNL     1      10.604  11.322  17.770  0.00  0.00    +0.000 A 
ATOM     22  C   UNL     1      10.483  12.736  17.699  0.00  0.00    +0.000 A 
ATOM     23  C   UNL     1      11.355  13.773  17.321  0.00  0.00    +0.000 A 
ATOM     24  C   UNL     1      10.902  15.097  17.349  0.00  0.00    +0.000 A 
ATOM     25  C   UNL     1       9.602  15.391  17.756  0.00  0.00    +0.000 A 
ATOM     26  C   UNL     1       8.719  14.376  18.143  0.00  0.00    +0.000 A 
ATOM     27  C   UNL     1       9.188  13.057  18.099  0.00  0.00    +0.000 A 
ATOM     28  N   UNL     1       8.549  11.871  18.399  0.00  0.00    +0.000 N 
ATOM     29  H   UNL     1       7.591  11.809  18.710  0.00  0.00    +0.000 HD
ENDBRANCH  19  20
ENDBRANCH  18  19
ENDBRANCH   4  18
TORSDOF 6
ENDMDL
MODEL 7
REMARK VINA RESULT:      -8.0      1.067     10.048
REMARK  Name = 
REMARK  6 active torsions:
REMARK  status: ('A' for Active; 'I' for Inactive)
REMARK    1  A    between atoms: N_3  and  C_4
REMARK    2  A    between atoms: C_4  and  C_5
REMARK    3  A    between atoms: C_5  and  C_6
REMARK    4  A    between atoms: N_15  and  C_16
REMARK    5  A    between atoms: C_16  and  C_17
REMARK    6  A    between atoms: C_17  and  C_18
REMARK                            x       y       z     vdW  Elec       q    Type
REMARK                         _______ _______ _______ _____ _____    ______ ____
ROOT
ATOM      1  O   UNL     1       5.327   7.424  16.962  0.00  0.00    +0.000 OA
ATOM      2  C   UNL     1       6.424   6.950  16.696  0.00  0.00    +0.000 C 
ATOM      3  N   UNL     1       6.612   5.751  16.063  0.00  0.00    +0.000 N 
ATOM      4  N   UNL     1       7.604   7.566  17.010  0.00  0.00    +0.000 N 
ATOM      5  H   UNL     1       7.544   5.500  15.768  0.00  0.00    +0.000 HD
ATOM      6  H   UNL     1       8.468   7.059  16.887  0.00  0.00    +0.000 HD
ENDROOT
BRANCH   3   7
ATOM      7  C   UNL     1       5.496   4.958  15.560  0.00  0.00    +0.000 C 
BRANCH   7   8
ATOM      8  C   UNL     1       5.352   3.628  16.299  0.00  0.00    +0.000 C 
BRANCH   8   9
ATOM      9  C   UNL     1       4.269   3.660  17.324  0.00  0.00    +0.000 A 
ATOM     10  C   UNL     1       3.213   2.789  17.498  0.00  0.00    +0.000 A 
ATOM     11  N   UNL     1       2.503   3.268  18.569  0.00  0.00    +0.000 N 
ATOM     12  C   UNL     1       1.343   2.771  19.163  0.00  0.00    +0.000 A 
ATOM     13  C   UNL     1       0.819   3.418  20.219  0.00  0.00    +0.000 A 
ATOM     14  C   UNL     1       1.487   4.614  20.710  0.00  0.00    +0.000 A 
ATOM     15  C   UNL     1       2.605   5.090  20.130  0.00  0.00    +0.000 A 
ATOM     16  C   UNL     1       3.164   4.412  19.006  0.00  0.00    +0.000 A 
ATOM     17  N   UNL     1       4.226   4.661  18.272  0.00  0.00    +0.000 NA
ENDBRANCH   8   9
ENDBRANCH   7   8
ENDBRANCH   3   7
BRANCH   4  18
ATOM     18  C   UNL     1       7.634   8.802  17.773  0.00  0.00    +0.000 C 
BRANCH  18  19
ATOM     19  C   UNL     1       8.801   8.862  18.764  0.00  0.00    +0.000 C 
BRANCH  19  20
ATOM     20  C   UNL     1       9.286  10.253  19.044  0.00  0.00    +0.000 A 
ATOM     21  C   UNL     1       9.704  11.236  18.170  0.00  0.00    +0.000 A 
ATOM     22  C   UNL     1      10.010  12.401  18.925  0.00  0.00    +0.000 A 
ATOM     23  C   UNL     1      10.452  13.694  18.590  0.00  0.00    +0.000 A 
ATOM     24  C   UNL     1      10.645  14.639  19.604  0.00  0.00    +0.000 A 
ATOM     25  C   UNL     1      10.412  14.305  20.937  0.00  0.00    +0.000 A 
ATOM     26  C   UNL     1       9.979  13.022  21.294  0.00  0.00    +0.000 A 
ATOM     27  C   UNL     1       9.782  12.093  20.264  0.00  0.00    +0.000 A 
ATOM     28  N   UNL     1       9.350  10.784  20.313  0.00  0.00    +0.000 N 
ATOM     29  H   UNL     1       9.103  10.302  21.165  0.00  0.00    +0.000 HD
ENDBRANCH  19  20
ENDBRANCH  18  19
ENDBRANCH   4  18
TORSDOF 6
ENDMDL
MODEL 8
REMARK VINA RESULT:      -8.0      1.799      2.344
REMARK  Name = 
REMARK  6 active torsions:
REMARK  status: ('A' for Active; 'I' for Inactive)
REMARK    1  A    between atoms: N_3  and  C_4
REMARK    2  A    between atoms: C_4  and  C_5
REMARK    3  A    between atoms: C_5  and  C_6
REMARK    4  A    between atoms: N_15  and  C_16
REMARK    5  A    between atoms: C_16  and  C_17
REMARK    6  A    between atoms: C_17  and  C_18
REMARK                            x       y       z     vdW  Elec       q    Type
REMARK                         _______ _______ _______ _____ _____    ______ ____
ROOT
ATOM      1  O   UNL     1       8.386   7.259  18.692  0.00  0.00    +0.000 OA
ATOM      2  C   UNL     1       7.892   8.012  17.862  0.00  0.00    +0.000 C 
ATOM      3  N   UNL     1       8.089   9.366  17.837  0.00  0.00    +0.000 N 
ATOM      4  N   UNL     1       7.072   7.584  16.854  0.00  0.00    +0.000 N 
ATOM      5  H   UNL     1       7.751   9.890  17.044  0.00  0.00    +0.000 HD
ATOM      6  H   UNL     1       6.591   8.270  16.291  0.00  0.00    +0.000 HD
ENDROOT
BRANCH   3   7
ATOM      7  C   UNL     1       8.994  10.034  18.767  0.00  0.00    +0.000 C 
BRANCH   7   8
ATOM      8  C   UNL     1      10.031  10.895  18.047  0.00  0.00    +0.000 C 
BRANCH   8   9
ATOM      9  C   UNL     1       9.715  12.350  18.123  0.00  0.00    +0.000 A 
ATOM     10  C   UNL     1      10.561  13.409  18.382  0.00  0.00    +0.000 A 
ATOM     11  N   UNL     1       9.776  14.533  18.351  0.00  0.00    +0.000 N 
ATOM     12  C   UNL     1      10.124  15.869  18.553  0.00  0.00    +0.000 A 
ATOM     13  C   UNL     1       9.171  16.813  18.472  0.00  0.00    +0.000 A 
ATOM     14  C   UNL     1       7.805  16.408  18.171  0.00  0.00    +0.000 A 
ATOM     15  C   UNL     1       7.476  15.117  17.980  0.00  0.00    +0.000 A 
ATOM     16  C   UNL     1       8.481  14.107  18.069  0.00  0.00    +0.000 A 
ATOM     17  N   UNL     1       8.426  12.802  17.928  0.00  0.00    +0.000 NA
ENDBRANCH   8   9
ENDBRANCH   7   8
ENDBRANCH   3   7
BRANCH   4  18
ATOM     18  C   UNL     1       6.653   6.196  16.756  0.00  0.00    +0.000 C 
BRANCH  18  19
ATOM     19  C   UNL     1       5.141   6.043  16.561  0.00  0.00    +0.000 C 
BRANCH  19  20
ATOM     20  C   UNL     1       4.433   5.470  17.753  0.00  0.00    +0.000 A 
ATOM     21  C   UNL     1       3.472   6.034  18.566  0.00  0.00    +0.000 A 
ATOM     22  C   UNL     1       3.075   5.063  19.525  0.00  0.00    +0.000 A 
ATOM     23  C   UNL     1       2.137   5.053  20.574  0.00  0.00    +0.000 A 
ATOM     24  C   UNL     1       1.976   3.893  21.340  0.00  0.00    +0.000 A 
ATOM     25  C   UNL     1       2.741   2.758  21.076  0.00  0.00    +0.000 A 
ATOM     26  C   UNL     1       3.684   2.748  20.042  0.00  0.00    +0.000 A 
ATOM     27  C   UNL     1       3.825   3.915  19.280  0.00  0.00    +0.000 A 
ATOM     28  N   UNL     1       4.646   4.187  18.205  0.00  0.00    +0.000 N 
ATOM     29  H   UNL     1       5.294   3.523  17.808  0.00  0.00    +0.000 HD
ENDBRANCH  19  20
ENDBRANCH  18  19
ENDBRANCH   4  18
TORSDOF 6
ENDMDL
MODEL 9
REMARK VINA RESULT:      -8.0      1.699     10.171
REMARK  Name = 
REMARK  6 active torsions:
REMARK  status: ('A' for Active; 'I' for Inactive)
REMARK    1  A    between atoms: N_3  and  C_4
REMARK    2  A    between atoms: C_4  and  C_5
REMARK    3  A    between atoms: C_5  and  C_6
REMARK    4  A    between atoms: N_15  and  C_16
REMARK    5  A    between atoms: C_16  and  C_17
REMARK    6  A    between atoms: C_17  and  C_18
REMARK                            x       y       z     vdW  Elec       q    Type
REMARK                         _______ _______ _______ _____ _____    ______ ____
ROOT
ATOM      1  O   UNL     1       7.907   6.751  18.709  0.00  0.00    +0.000 OA
ATOM      2  C   UNL     1       7.688   7.231  17.604  0.00  0.00    +0.000 C 
ATOM      3  N   UNL     1       7.373   6.496  16.493  0.00  0.00    +0.000 N 
ATOM      4  N   UNL     1       7.740   8.574  17.346  0.00  0.00    +0.000 N 
ATOM      5  H   UNL     1       7.081   6.982  15.658  0.00  0.00    +0.000 HD
ATOM      6  H   UNL     1       7.685   8.890  16.389  0.00  0.00    +0.000 HD
ENDROOT
BRANCH   3   7
ATOM      7  C   UNL     1       7.181   5.051  16.551  0.00  0.00    +0.000 C 
BRANCH   7   8
ATOM      8  C   UNL     1       5.793   4.632  16.066  0.00  0.00    +0.000 C 
BRANCH   8   9
ATOM      9  C   UNL     1       4.789   4.605  17.169  0.00  0.00    +0.000 A 
ATOM     10  C   UNL     1       4.145   3.521  17.729  0.00  0.00    +0.000 A 
ATOM     11  N   UNL     1       3.316   4.033  18.694  0.00  0.00    +0.000 N 
ATOM     12  C   UNL     1       2.438   3.376  19.555  0.00  0.00    +0.000 A 
ATOM     13  C   UNL     1       1.717   4.097  20.431  0.00  0.00    +0.000 A 
ATOM     14  C   UNL     1       1.884   5.543  20.455  0.00  0.00    +0.000 A 
ATOM     15  C   UNL     1       2.732   6.171  19.619  0.00  0.00    +0.000 A 
ATOM     16  C   UNL     1       3.497   5.413  18.682  0.00  0.00    +0.000 A 
ATOM     17  N   UNL     1       4.377   5.774  17.775  0.00  0.00    +0.000 NA
ENDBRANCH   8   9
ENDBRANCH   7   8
ENDBRANCH   3   7
BRANCH   4  18
ATOM     18  C   UNL     1       8.154   9.526  18.362  0.00  0.00    +0.000 C 
BRANCH  18  19
ATOM     19  C   UNL     1       9.610   9.975  18.200  0.00  0.00    +0.000 C 
BRANCH  19  20
ATOM     20  C   UNL     1       9.766  11.448  17.966  0.00  0.00    +0.000 A 
ATOM     21  C   UNL     1       8.895  12.483  18.239  0.00  0.00    +0.000 A 
ATOM     22  C   UNL     1       9.531  13.704  17.885  0.00  0.00    +0.000 A 
ATOM     23  C   UNL     1       9.154  15.058  17.955  0.00  0.00    +0.000 A 
ATOM     24  C   UNL     1      10.051  16.044  17.527  0.00  0.00    +0.000 A 
ATOM     25  C   UNL     1      11.303  15.692  17.026  0.00  0.00    +0.000 A 
ATOM     26  C   UNL     1      11.695  14.352  16.940  0.00  0.00    +0.000 A 
ATOM     27  C   UNL     1      10.789  13.380  17.383  0.00  0.00    +0.000 A 
ATOM     28  N   UNL     1      10.907  12.006  17.436  0.00  0.00    +0.000 N 
ATOM     29  H   UNL     1      11.727  11.498  17.139  0.00  0.00    +0.000 HD
ENDBRANCH  19  20
ENDBRANCH  18  19
ENDBRANCH   4  18
TORSDOF 6
ENDMDL
