MODEL 1
REMARK VINA RESULT:      -9.3      0.000      0.000
REMARK  Name = 
REMARK  6 active torsions:
REMARK  status: ('A' for Active; 'I' for Inactive)
REMARK    1  A    between atoms: C_1  and  C_2
REMARK    2  A    between atoms: C_2  and  N_3
REMARK    3  A    between atoms: C_7  and  C_8
REMARK    4  A    between atoms: C_12  and  N_13
REMARK    5  A    between atoms: C_14  and  C_16
REMARK    6  A    between atoms: C_16  and  N_17
REMARK                            x       y       z     vdW  Elec       q    Type
REMARK                         _______ _______ _______ _____ _____    ______ ____
ROOT
ATOM      1  N   UNL     1       4.631   2.813  18.078  0.00  0.00    +0.000 N 
ATOM      2  C   UNL     1       4.369   2.410  19.387  0.00  0.00    +0.000 C 
ATOM      3  O   UNL     1       4.809   2.965  20.392  0.00  0.00    +0.000 OA
ATOM      4  H   UNL     1       4.166   2.293  17.338  0.00  0.00    +0.000 HD
ENDROOT
BRANCH   1   9
ATOM      5  C   UNL     1       6.625   5.010  15.805  0.00  0.00    +0.000 A 
ATOM      6  C   UNL     1       6.966   6.051  16.678  0.00  0.00    +0.000 A 
ATOM      7  C   UNL     1       6.546   6.039  18.006  0.00  0.00    +0.000 A 
ATOM      8  C   UNL     1       5.786   4.971  18.496  0.00  0.00    +0.000 A 
ATOM      9  C   UNL     1       5.416   3.921  17.656  0.00  0.00    +0.000 A 
ATOM     10  C   UNL     1       5.818   3.966  16.305  0.00  0.00    +0.000 A 
BRANCH   5  15
ATOM     11  N   UNL     1       6.646   4.446  13.298  0.00  0.00    +0.000 N 
ATOM     12  N   UNL     1       7.417   4.749  12.238  0.00  0.00    +0.000 NA
ATOM     13  N   UNL     1       8.335   5.579  12.699  0.00  0.00    +0.000 NA
ATOM     14  N   UNL     1       8.161   5.799  14.038  0.00  0.00    +0.000 NA
ATOM     15  C   UNL     1       7.104   5.099  14.420  0.00  0.00    +0.000 A 
BRANCH  11  17
ATOM     16  C   UNL     1       5.662   2.794  11.779  0.00  0.00    +0.000 C 
ATOM     17  C   UNL     1       5.561   3.513  13.114  0.00  0.00    +0.000 C 
ENDBRANCH  11  17
ENDBRANCH   5  15
ENDBRANCH   1   9
BRANCH   2  18
ATOM     18  C   UNL     1       3.264   1.317  19.514  0.00  0.00    +0.000 C 
BRANCH  18  19
ATOM     19  N   UNL     1       2.006   2.034  19.397  0.00  0.00    +0.000 N 
ATOM     20  C   UNL     1       1.804   2.707  18.219  0.00  0.00    +0.000 C 
ATOM     21  O   UNL     1       2.081   2.340  17.092  0.00  0.00    +0.000 OA
ATOM     22  C   UNL     1       1.521   4.088  18.599  0.00  0.00    +0.000 A 
ATOM     23  C   UNL     1       1.896   5.202  17.878  0.00  0.00    +0.000 A 
ATOM     24  C   UNL     1       2.101   6.386  18.593  0.00  0.00    +0.000 A 
ATOM     25 CL   UNL     1       2.812   7.704  17.731  0.00  0.00    +0.000 Cl
ATOM     26  C   UNL     1       1.862   6.441  19.990  0.00  0.00    +0.000 A 
ATOM     27 CL   UNL     1       2.186   7.865  20.913  0.00  0.00    +0.000 Cl
ATOM     28  C   UNL     1       1.467   5.296  20.696  0.00  0.00    +0.000 A 
ATOM     29  C   UNL     1       1.348   4.126  19.974  0.00  0.00    +0.000 A 
ATOM     30  C   UNL     1       1.553   2.765  20.480  0.00  0.00    +0.000 C 
ATOM     31  O   UNL     1       1.467   2.431  21.642  0.00  0.00    +0.000 OA
ENDBRANCH  18  19
ENDBRANCH   2  18
TORSDOF 5
ENDMDL
MODEL 2
REMARK VINA RESULT:      -9.2      5.258      6.520
REMARK  Name = 
REMARK  6 active torsions:
REMARK  status: ('A' for Active; 'I' for Inactive)
REMARK    1  A    between atoms: C_1  and  C_2
REMARK    2  A    between atoms: C_2  and  N_3
REMARK    3  A    between atoms: C_7  and  C_8
REMARK    4  A    between atoms: C_12  and  N_13
REMARK    5  A    between atoms: C_14  and  C_16
REMARK    6  A    between atoms: C_16  and  N_17
REMARK                            x       y       z     vdW  Elec       q    Type
REMARK                         _______ _______ _______ _____ _____    ______ ____
ROOT
ATOM      1  N   UNL     1       2.115   7.834  18.933  0.00  0.00    +0.000 N 
ATOM      2  C   UNL     1       1.623   8.116  20.207  0.00  0.00    +0.000 C 
ATOM      3  O   UNL     1       1.473   7.284  21.100  0.00  0.00    +0.000 OA
ATOM      4  H   UNL     1       2.233   8.624  18.304  0.00  0.00    +0.000 HD
ENDROOT
BRANCH   1   9
ATOM      5  C   UNL     1       4.451   5.179  17.723  0.00  0.00    +0.000 A 
ATOM      6  C   UNL     1       3.551   4.139  17.455  0.00  0.00    +0.000 A 
ATOM      7  C   UNL     1       2.184   4.302  17.668  0.00  0.00    +0.000 A 
ATOM      8  C   UNL     1       1.684   5.520  18.142  0.00  0.00    +0.000 A 
ATOM      9  C   UNL     1       2.549   6.576  18.432  0.00  0.00    +0.000 A 
ATOM     10  C   UNL     1       3.933   6.383  18.245  0.00  0.00    +0.000 A 
BRANCH   5  15
ATOM     11  N   UNL     1       6.560   4.906  16.281  0.00  0.00    +0.000 N 
ATOM     12  N   UNL     1       7.843   4.553  16.488  0.00  0.00    +0.000 NA
ATOM     13  N   UNL     1       7.947   4.362  17.790  0.00  0.00    +0.000 NA
ATOM     14  N   UNL     1       6.748   4.581  18.411  0.00  0.00    +0.000 NA
ATOM     15  C   UNL     1       5.876   4.927  17.475  0.00  0.00    +0.000 A 
BRANCH  11  17
ATOM     16  C   UNL     1       6.196   3.885  14.084  0.00  0.00    +0.000 C 
ATOM     17  C   UNL     1       6.125   5.147  14.928  0.00  0.00    +0.000 C 
ENDBRANCH  11  17
ENDBRANCH   5  15
ENDBRANCH   1   9
BRANCH   2  18
ATOM     18  C   UNL     1       1.483   9.637  20.520  0.00  0.00    +0.000 C 
BRANCH  18  19
ATOM     19  N   UNL     1       0.100   9.813  20.928  0.00  0.00    +0.000 N 
ATOM     20  C   UNL     1      -0.718  10.446  20.027  0.00  0.00    +0.000 C 
ATOM     21  O   UNL     1      -0.746  10.307  18.818  0.00  0.00    +0.000 OA
ATOM     22  C   UNL     1      -1.303  11.572  20.750  0.00  0.00    +0.000 A 
ATOM     23  C   UNL     1      -1.607  12.798  20.195  0.00  0.00    +0.000 A 
ATOM     24  C   UNL     1      -1.582  13.906  21.047  0.00  0.00    +0.000 A 
ATOM     25 CL   UNL     1      -1.711  15.462  20.305  0.00  0.00    +0.000 Cl
ATOM     26  C   UNL     1      -1.319  13.753  22.432  0.00  0.00    +0.000 A 
ATOM     27 CL   UNL     1      -1.199  15.112  23.492  0.00  0.00    +0.000 Cl
ATOM     28  C   UNL     1      -1.028  12.492  22.972  0.00  0.00    +0.000 A 
ATOM     29  C   UNL     1      -0.985  11.429  22.091  0.00  0.00    +0.000 A 
ATOM     30  C   UNL     1      -0.165  10.221  22.223  0.00  0.00    +0.000 C 
ATOM     31  O   UNL     1       0.280   9.788  23.264  0.00  0.00    +0.000 OA
ENDBRANCH  18  19
ENDBRANCH   2  18
TORSDOF 5
ENDMDL
MODEL 3
REMARK VINA RESULT:      -9.1      4.938      6.521
REMARK  Name = 
REMARK  6 active torsions:
REMARK  status: ('A' for Active; 'I' for Inactive)
REMARK    1  A    between atoms: C_1  and  C_2
REMARK    2  A    between atoms: C_2  and  N_3
REMARK    3  A    between atoms: C_7  and  C_8
REMARK    4  A    between atoms: C_12  and  N_13
REMARK    5  A    between atoms: C_14  and  C_16
REMARK    6  A    between atoms: C_16  and  N_17
REMARK                            x       y       z     vdW  Elec       q    Type
REMARK                         _______ _______ _______ _____ _____    ______ ____
ROOT
ATOM      1  N   UNL     1       1.642   7.222  18.558  0.00  0.00    +0.000 N 
ATOM      2  C   UNL     1       1.817   8.488  18.002  0.00  0.00    +0.000 C 
ATOM      3  O   UNL     1       2.593   8.749  17.084  0.00  0.00    +0.000 OA
ATOM      4  H   UNL     1       0.933   7.135  19.283  0.00  0.00    +0.000 HD
ENDROOT
BRANCH   1   9
ATOM      5  C   UNL     1       4.419   4.851  17.761  0.00  0.00    +0.000 A 
ATOM      6  C   UNL     1       3.694   3.694  17.446  0.00  0.00    +0.000 A 
ATOM      7  C   UNL     1       2.302   3.685  17.494  0.00  0.00    +0.000 A 
ATOM      8  C   UNL     1       1.601   4.844  17.845  0.00  0.00    +0.000 A 
ATOM      9  C   UNL     1       2.286   6.013  18.176  0.00  0.00    +0.000 A 
ATOM     10  C   UNL     1       3.695   5.996  18.158  0.00  0.00    +0.000 A 
BRANCH   5  15
ATOM     11  N   UNL     1       6.707   4.878  16.592  0.00  0.00    +0.000 N 
ATOM     12  N   UNL     1       7.987   4.673  16.952  0.00  0.00    +0.000 NA
ATOM     13  N   UNL     1       7.954   4.452  18.253  0.00  0.00    +0.000 NA
ATOM     14  N   UNL     1       6.669   4.506  18.721  0.00  0.00    +0.000 NA
ATOM     15  C   UNL     1       5.884   4.778  17.690  0.00  0.00    +0.000 A 
BRANCH  11  17
ATOM     16  C   UNL     1       6.085   3.818  14.471  0.00  0.00    +0.000 C 
ATOM     17  C   UNL     1       6.414   5.112  15.198  0.00  0.00    +0.000 C 
ENDBRANCH  11  17
ENDBRANCH   5  15
ENDBRANCH   1   9
BRANCH   2  18
ATOM     18  C   UNL     1       0.774   9.548  18.472  0.00  0.00    +0.000 C 
BRANCH  18  19
ATOM     19  N   UNL     1       1.346  10.138  19.669  0.00  0.00    +0.000 N 
ATOM     20  C   UNL     1       0.892   9.639  20.863  0.00  0.00    +0.000 C 
ATOM     21  O   UNL     1       0.658   8.478  21.147  0.00  0.00    +0.000 OA
ATOM     22  C   UNL     1       0.407  10.794  21.613  0.00  0.00    +0.000 A 
ATOM     23  C   UNL     1      -0.669  10.784  22.476  0.00  0.00    +0.000 A 
ATOM     24  C   UNL     1      -1.365  11.986  22.640  0.00  0.00    +0.000 A 
ATOM     25 CL   UNL     1      -2.853  11.911  23.516  0.00  0.00    +0.000 Cl
ATOM     26  C   UNL     1      -0.930  13.172  21.995  0.00  0.00    +0.000 A 
ATOM     27 CL   UNL     1      -1.817  14.650  22.113  0.00  0.00    +0.000 Cl
ATOM     28  C   UNL     1       0.176  13.156  21.134  0.00  0.00    +0.000 A 
ATOM     29  C   UNL     1       0.795  11.938  20.933  0.00  0.00    +0.000 A 
ATOM     30  C   UNL     1       1.505  11.511  19.724  0.00  0.00    +0.000 C 
ATOM     31  O   UNL     1       1.994  12.254  18.900  0.00  0.00    +0.000 OA
ENDBRANCH  18  19
ENDBRANCH   2  18
TORSDOF 5
ENDMDL
MODEL 4
REMARK VINA RESULT:      -9.1      5.244      6.622
REMARK  Name = 
REMARK  6 active torsions:
REMARK  status: ('A' for Active; 'I' for Inactive)
REMARK    1  A    between atoms: C_1  and  C_2
REMARK    2  A    between atoms: C_2  and  N_3
REMARK    3  A    between atoms: C_7  and  C_8
REMARK    4  A    between atoms: C_12  and  N_13
REMARK    5  A    between atoms: C_14  and  C_16
REMARK    6  A    between atoms: C_16  and  N_17
REMARK                            x       y       z     vdW  Elec       q    Type
REMARK                         _______ _______ _______ _____ _____    ______ ____
ROOT
ATOM      1  N   UNL     1       2.196   7.915  19.109  0.00  0.00    +0.000 N 
ATOM      2  C   UNL     1       1.581   8.114  20.345  0.00  0.00    +0.000 C 
ATOM      3  O   UNL     1       1.286   7.217  21.133  0.00  0.00    +0.000 OA
ATOM      4  H   UNL     1       2.427   8.748  18.574  0.00  0.00    +0.000 HD
ENDROOT
BRANCH   1   9
ATOM      5  C   UNL     1       4.263   5.502  17.140  0.00  0.00    +0.000 A 
ATOM      6  C   UNL     1       3.555   4.312  17.356  0.00  0.00    +0.000 A 
ATOM      7  C   UNL     1       2.405   4.295  18.142  0.00  0.00    +0.000 A 
ATOM      8  C   UNL     1       1.928   5.477  18.720  0.00  0.00    +0.000 A 
ATOM      9  C   UNL     1       2.611   6.680  18.539  0.00  0.00    +0.000 A 
ATOM     10  C   UNL     1       3.792   6.674  17.770  0.00  0.00    +0.000 A 
BRANCH   5  15
ATOM     11  N   UNL     1       6.770   5.193  16.670  0.00  0.00    +0.000 N 
ATOM     12  N   UNL     1       7.581   5.302  15.601  0.00  0.00    +0.000 NA
ATOM     13  N   UNL     1       6.788   5.603  14.589  0.00  0.00    +0.000 NA
ATOM     14  N   UNL     1       5.487   5.696  15.003  0.00  0.00    +0.000 NA
ATOM     15  C   UNL     1       5.466   5.436  16.302  0.00  0.00    +0.000 A 
BRANCH  11  17
ATOM     16  C   UNL     1       7.731   6.176  18.699  0.00  0.00    +0.000 C 
ATOM     17  C   UNL     1       7.360   4.904  17.954  0.00  0.00    +0.000 C 
ENDBRANCH  11  17
ENDBRANCH   5  15
ENDBRANCH   1   9
BRANCH   2  18
ATOM     18  C   UNL     1       1.492   9.607  20.785  0.00  0.00    +0.000 C 
BRANCH  18  19
ATOM     19  N   UNL     1       0.092   9.825  21.105  0.00  0.00    +0.000 N 
ATOM     20  C   UNL     1      -0.655  10.452  20.140  0.00  0.00    +0.000 C 
ATOM     21  O   UNL     1      -0.614  10.282  18.936  0.00  0.00    +0.000 OA
ATOM     22  C   UNL     1      -1.255  11.610  20.798  0.00  0.00    +0.000 A 
ATOM     23  C   UNL     1      -1.496  12.826  20.196  0.00  0.00    +0.000 A 
ATOM     24  C   UNL     1      -1.495  13.956  21.020  0.00  0.00    +0.000 A 
ATOM     25 CL   UNL     1      -1.543  15.494  20.234  0.00  0.00    +0.000 Cl
ATOM     26  C   UNL     1      -1.320  13.833  22.422  0.00  0.00    +0.000 A 
ATOM     27 CL   UNL     1      -1.231  15.217  23.454  0.00  0.00    +0.000 Cl
ATOM     28  C   UNL     1      -1.091  12.581  23.009  0.00  0.00    +0.000 A 
ATOM     29  C   UNL     1      -1.022  11.495  22.159  0.00  0.00    +0.000 A 
ATOM     30  C   UNL     1      -0.240  10.272  22.371  0.00  0.00    +0.000 C 
ATOM     31  O   UNL     1       0.132   9.856  23.447  0.00  0.00    +0.000 OA
ENDBRANCH  18  19
ENDBRANCH   2  18
TORSDOF 5
ENDMDL
MODEL 5
REMARK VINA RESULT:      -9.1      4.587      5.970
REMARK  Name = 
REMARK  6 active torsions:
REMARK  status: ('A' for Active; 'I' for Inactive)
REMARK    1  A    between atoms: C_1  and  C_2
REMARK    2  A    between atoms: C_2  and  N_3
REMARK    3  A    between atoms: C_7  and  C_8
REMARK    4  A    between atoms: C_12  and  N_13
REMARK    5  A    between atoms: C_14  and  C_16
REMARK    6  A    between atoms: C_16  and  N_17
REMARK                            x       y       z     vdW  Elec       q    Type
REMARK                         _______ _______ _______ _____ _____    ______ ____
ROOT
ATOM      1  N   UNL     1       2.389   7.063  19.129  0.00  0.00    +0.000 N 
ATOM      2  C   UNL     1       1.795   7.088  20.390  0.00  0.00    +0.000 C 
ATOM      3  O   UNL     1       1.474   6.090  21.033  0.00  0.00    +0.000 OA
ATOM      4  H   UNL     1       2.646   7.960  18.727  0.00  0.00    +0.000 HD
ENDROOT
BRANCH   1   9
ATOM      5  C   UNL     1       4.390   4.883  16.845  0.00  0.00    +0.000 A 
ATOM      6  C   UNL     1       3.597   3.729  16.821  0.00  0.00    +0.000 A 
ATOM      7  C   UNL     1       2.411   3.659  17.548  0.00  0.00    +0.000 A 
ATOM      8  C   UNL     1       1.983   4.755  18.307  0.00  0.00    +0.000 A 
ATOM      9  C   UNL     1       2.751   5.918  18.366  0.00  0.00    +0.000 A 
ATOM     10  C   UNL     1       3.966   5.960  17.653  0.00  0.00    +0.000 A 
BRANCH   5  15
ATOM     11  N   UNL     1       6.932   4.785  16.482  0.00  0.00    +0.000 N 
ATOM     12  N   UNL     1       7.772   4.898  15.436  0.00  0.00    +0.000 NA
ATOM     13  N   UNL     1       6.995   5.052  14.379  0.00  0.00    +0.000 NA
ATOM     14  N   UNL     1       5.676   5.048  14.741  0.00  0.00    +0.000 NA
ATOM     15  C   UNL     1       5.627   4.876  16.054  0.00  0.00    +0.000 A 
BRANCH  11  17
ATOM     16  C   UNL     1       7.639   5.985  18.498  0.00  0.00    +0.000 C 
ATOM     17  C   UNL     1       7.495   4.642  17.802  0.00  0.00    +0.000 C 
ENDBRANCH  11  17
ENDBRANCH   5  15
ENDBRANCH   1   9
BRANCH   2  18
ATOM     18  C   UNL     1       1.768   8.495  21.060  0.00  0.00    +0.000 C 
BRANCH  18  19
ATOM     19  N   UNL     1       0.484   9.066  20.691  0.00  0.00    +0.000 N 
ATOM     20  C   UNL     1       0.519  10.074  19.761  0.00  0.00    +0.000 C 
ATOM     21  O   UNL     1       1.212  10.146  18.763  0.00  0.00    +0.000 OA
ATOM     22  C   UNL     1      -0.172  11.202  20.379  0.00  0.00    +0.000 A 
ATOM     23  C   UNL     1       0.152  12.530  20.191  0.00  0.00    +0.000 A 
ATOM     24  C   UNL     1      -0.151  13.413  21.232  0.00  0.00    +0.000 A 
ATOM     25 CL   UNL     1       0.482  15.016  21.102  0.00  0.00    +0.000 Cl
ATOM     26  C   UNL     1      -0.823  12.962  22.396  0.00  0.00    +0.000 A 
ATOM     27 CL   UNL     1      -1.135  14.012  23.732  0.00  0.00    +0.000 Cl
ATOM     28  C   UNL     1      -1.154  11.609  22.554  0.00  0.00    +0.000 A 
ATOM     29  C   UNL     1      -0.773  10.749  21.543  0.00  0.00    +0.000 A 
ATOM     30  C   UNL     1      -0.439   9.329  21.687  0.00  0.00    +0.000 C 
ATOM     31  O   UNL     1      -0.810   8.610  22.590  0.00  0.00    +0.000 OA
ENDBRANCH  18  19
ENDBRANCH   2  18
TORSDOF 5
ENDMDL
MODEL 6
REMARK VINA RESULT:      -9.0      5.537      6.970
REMARK  Name = 
REMARK  6 active torsions:
REMARK  status: ('A' for Active; 'I' for Inactive)
REMARK    1  A    between atoms: C_1  and  C_2
REMARK    2  A    between atoms: C_2  and  N_3
REMARK    3  A    between atoms: C_7  and  C_8
REMARK    4  A    between atoms: C_12  and  N_13
REMARK    5  A    between atoms: C_14  and  C_16
REMARK    6  A    between atoms: C_16  and  N_17
REMARK                            x       y       z     vdW  Elec       q    Type
REMARK                         _______ _______ _______ _____ _____    ______ ____
ROOT
ATOM      1  N   UNL     1       2.200   7.509  19.172  0.00  0.00    +0.000 N 
ATOM      2  C   UNL     1       1.808   8.713  18.588  0.00  0.00    +0.000 C 
ATOM      3  O   UNL     1       1.821   8.943  17.380  0.00  0.00    +0.000 OA
ATOM      4  H   UNL     1       2.095   7.435  20.181  0.00  0.00    +0.000 HD
ENDROOT
BRANCH   1   9
ATOM      5  C   UNL     1       4.344   5.332  17.020  0.00  0.00    +0.000 A 
ATOM      6  C   UNL     1       3.686   4.102  17.153  0.00  0.00    +0.000 A 
ATOM      7  C   UNL     1       2.546   3.980  17.943  0.00  0.00    +0.000 A 
ATOM      8  C   UNL     1       2.027   5.097  18.608  0.00  0.00    +0.000 A 
ATOM      9  C   UNL     1       2.659   6.336  18.511  0.00  0.00    +0.000 A 
ATOM     10  C   UNL     1       3.832   6.435  17.737  0.00  0.00    +0.000 A 
BRANCH   5  15
ATOM     11  N   UNL     1       6.813   5.798  16.484  0.00  0.00    +0.000 N 
ATOM     12  N   UNL     1       7.598   5.752  15.391  0.00  0.00    +0.000 NA
ATOM     13  N   UNL     1       6.822   5.304  14.421  0.00  0.00    +0.000 NA
ATOM     14  N   UNL     1       5.554   5.075  14.881  0.00  0.00    +0.000 NA
ATOM     15  C   UNL     1       5.541   5.376  16.171  0.00  0.00    +0.000 A 
BRANCH  11  17
ATOM     16  C   UNL     1       7.688   7.777  17.633  0.00  0.00    +0.000 C 
ATOM     17  C   UNL     1       7.378   6.291  17.715  0.00  0.00    +0.000 C 
ENDBRANCH  11  17
ENDBRANCH   5  15
ENDBRANCH   1   9
BRANCH   2  18
ATOM     18  C   UNL     1       1.112   9.707  19.568  0.00  0.00    +0.000 C 
BRANCH  18  19
ATOM     19  N   UNL     1       0.491  10.706  18.716  0.00  0.00    +0.000 N 
ATOM     20  C   UNL     1       0.962  11.988  18.850  0.00  0.00    +0.000 C 
ATOM     21  O   UNL     1       2.115  12.348  18.996  0.00  0.00    +0.000 OA
ATOM     22  C   UNL     1      -0.211  12.808  19.140  0.00  0.00    +0.000 A 
ATOM     23  C   UNL     1      -0.221  13.915  19.963  0.00  0.00    +0.000 A 
ATOM     24  C   UNL     1      -1.425  14.222  20.604  0.00  0.00    +0.000 A 
ATOM     25 CL   UNL     1      -1.369  15.446  21.822  0.00  0.00    +0.000 Cl
ATOM     26  C   UNL     1      -2.595  13.459  20.357  0.00  0.00    +0.000 A 
ATOM     27 CL   UNL     1      -4.074  13.763  21.197  0.00  0.00    +0.000 Cl
ATOM     28  C   UNL     1      -2.560  12.348  19.503  0.00  0.00    +0.000 A 
ATOM     29  C   UNL     1      -1.338  12.026  18.946  0.00  0.00    +0.000 A 
ATOM     30  C   UNL     1      -0.883  10.686  18.560  0.00  0.00    +0.000 C 
ATOM     31  O   UNL     1      -1.607   9.748  18.302  0.00  0.00    +0.000 OA
ENDBRANCH  18  19
ENDBRANCH   2  18
TORSDOF 5
ENDMDL
MODEL 7
REMARK VINA RESULT:      -9.0      5.270      6.937
REMARK  Name = 
REMARK  6 active torsions:
REMARK  status: ('A' for Active; 'I' for Inactive)
REMARK    1  A    between atoms: C_1  and  C_2
REMARK    2  A    between atoms: C_2  and  N_3
REMARK    3  A    between atoms: C_7  and  C_8
REMARK    4  A    between atoms: C_12  and  N_13
REMARK    5  A    between atoms: C_14  and  C_16
REMARK    6  A    between atoms: C_16  and  N_17
REMARK                            x       y       z     vdW  Elec       q    Type
REMARK                         _______ _______ _______ _____ _____    ______ ____
ROOT
ATOM      1  N   UNL     1       1.864   7.913  19.364  0.00  0.00    +0.000 N 
ATOM      2  C   UNL     1       1.611   8.945  18.462  0.00  0.00    +0.000 C 
ATOM      3  O   UNL     1       2.046   8.995  17.313  0.00  0.00    +0.000 OA
ATOM      4  H   UNL     1       1.404   7.973  20.269  0.00  0.00    +0.000 HD
ENDROOT
BRANCH   1   9
ATOM      5  C   UNL     1       4.448   5.672  17.857  0.00  0.00    +0.000 A 
ATOM      6  C   UNL     1       4.240   4.498  18.593  0.00  0.00    +0.000 A 
ATOM      7  C   UNL     1       3.259   4.436  19.580  0.00  0.00    +0.000 A 
ATOM      8  C   UNL     1       2.451   5.548  19.842  0.00  0.00    +0.000 A 
ATOM      9  C   UNL     1       2.635   6.739  19.140  0.00  0.00    +0.000 A 
ATOM     10  C   UNL     1       3.655   6.797  18.169  0.00  0.00    +0.000 A 
BRANCH   5  15
ATOM     11  N   UNL     1       6.803   6.103  16.923  0.00  0.00    +0.000 N 
ATOM     12  N   UNL     1       7.416   5.981  15.731  0.00  0.00    +0.000 NA
ATOM     13  N   UNL     1       6.508   5.465  14.922  0.00  0.00    +0.000 NA
ATOM     14  N   UNL     1       5.326   5.266  15.583  0.00  0.00    +0.000 NA
ATOM     15  C   UNL     1       5.504   5.658  16.836  0.00  0.00    +0.000 A 
BRANCH  11  17
ATOM     16  C   UNL     1       7.889   8.139  17.749  0.00  0.00    +0.000 C 
ATOM     17  C   UNL     1       7.541   6.684  18.018  0.00  0.00    +0.000 C 
ENDBRANCH  11  17
ENDBRANCH   5  15
ENDBRANCH   1   9
BRANCH   2  18
ATOM     18  C   UNL     1       0.520   9.956  18.932  0.00  0.00    +0.000 C 
BRANCH  18  19
ATOM     19  N   UNL     1       0.998  10.465  20.205  0.00  0.00    +0.000 N 
ATOM     20  C   UNL     1       0.400   9.944  21.325  0.00  0.00    +0.000 C 
ATOM     21  O   UNL     1       0.079   8.789  21.531  0.00  0.00    +0.000 OA
ATOM     22  C   UNL     1      -0.098  11.094  22.074  0.00  0.00    +0.000 A 
ATOM     23  C   UNL     1      -1.255  11.110  22.825  0.00  0.00    +0.000 A 
ATOM     24  C   UNL     1      -1.901  12.341  22.975  0.00  0.00    +0.000 A 
ATOM     25 CL   UNL     1      -3.472  12.314  23.695  0.00  0.00    +0.000 Cl
ATOM     26  C   UNL     1      -1.343  13.526  22.430  0.00  0.00    +0.000 A 
ATOM     27 CL   UNL     1      -2.160  15.045  22.527  0.00  0.00    +0.000 Cl
ATOM     28  C   UNL     1      -0.157  13.482  21.683  0.00  0.00    +0.000 A 
ATOM     29  C   UNL     1       0.415  12.240  21.489  0.00  0.00    +0.000 A 
ATOM     30  C   UNL     1       1.221  11.823  20.337  0.00  0.00    +0.000 C 
ATOM     31  O   UNL     1       1.828  12.571  19.600  0.00  0.00    +0.000 OA
ENDBRANCH  18  19
ENDBRANCH   2  18
TORSDOF 5
ENDMDL
MODEL 8
REMARK VINA RESULT:      -8.9      5.330      7.486
REMARK  Name = 
REMARK  6 active torsions:
REMARK  status: ('A' for Active; 'I' for Inactive)
REMARK    1  A    between atoms: C_1  and  C_2
REMARK    2  A    between atoms: C_2  and  N_3
REMARK    3  A    between atoms: C_7  and  C_8
REMARK    4  A    between atoms: C_12  and  N_13
REMARK    5  A    between atoms: C_14  and  C_16
REMARK    6  A    between atoms: C_16  and  N_17
REMARK                            x       y       z     vdW  Elec       q    Type
REMARK                         _______ _______ _______ _____ _____    ______ ____
ROOT
ATOM      1  N   UNL     1       1.962   8.079  18.935  0.00  0.00    +0.000 N 
ATOM      2  C   UNL     1       1.527   9.312  18.449  0.00  0.00    +0.000 C 
ATOM      3  O   UNL     1       1.952   9.852  17.430  0.00  0.00    +0.000 OA
ATOM      4  H   UNL     1       1.494   7.725  19.765  0.00  0.00    +0.000 HD
ENDROOT
BRANCH   1   9
ATOM      5  C   UNL     1       4.002   4.996  18.386  0.00  0.00    +0.000 A 
ATOM      6  C   UNL     1       4.810   5.403  17.316  0.00  0.00    +0.000 A 
ATOM      7  C   UNL     1       4.692   6.680  16.774  0.00  0.00    +0.000 A 
ATOM      8  C   UNL     1       3.767   7.588  17.302  0.00  0.00    +0.000 A 
ATOM      9  C   UNL     1       2.936   7.218  18.359  0.00  0.00    +0.000 A 
ATOM     10  C   UNL     1       3.043   5.909  18.874  0.00  0.00    +0.000 A 
BRANCH   5  15
ATOM     11  N   UNL     1       3.418   2.512  18.684  0.00  0.00    +0.000 N 
ATOM     12  N   UNL     1       3.890   1.480  19.408  0.00  0.00    +0.000 NA
ATOM     13  N   UNL     1       4.937   1.957  20.055  0.00  0.00    +0.000 NA
ATOM     14  N   UNL     1       5.130   3.279  19.760  0.00  0.00    +0.000 NA
ATOM     15  C   UNL     1       4.187   3.633  18.899  0.00  0.00    +0.000 A 
BRANCH  11  17
ATOM     16  C   UNL     1       0.968   2.587  18.681  0.00  0.00    +0.000 C 
ATOM     17  C   UNL     1       2.233   2.306  17.887  0.00  0.00    +0.000 C 
ENDBRANCH  11  17
ENDBRANCH   5  15
ENDBRANCH   1   9
BRANCH   2  18
ATOM     18  C   UNL     1       0.268   9.880  19.172  0.00  0.00    +0.000 C 
BRANCH  18  19
ATOM     19  N   UNL     1       0.756  10.390  20.441  0.00  0.00    +0.000 N 
ATOM     20  C   UNL     1       0.155   9.884  21.565  0.00  0.00    +0.000 C 
ATOM     21  O   UNL     1      -0.179   8.733  21.779  0.00  0.00    +0.000 OA
ATOM     22  C   UNL     1      -0.326  11.044  22.310  0.00  0.00    +0.000 A 
ATOM     23  C   UNL     1      -1.480  11.078  23.064  0.00  0.00    +0.000 A 
ATOM     24  C   UNL     1      -2.110  12.318  23.209  0.00  0.00    +0.000 A 
ATOM     25 CL   UNL     1      -3.679  12.315  23.933  0.00  0.00    +0.000 Cl
ATOM     26  C   UNL     1      -1.539  13.493  22.655  0.00  0.00    +0.000 A 
ATOM     27 CL   UNL     1      -2.337  15.023  22.745  0.00  0.00    +0.000 Cl
ATOM     28  C   UNL     1      -0.356  13.430  21.905  0.00  0.00    +0.000 A 
ATOM     29  C   UNL     1       0.200  12.180  21.716  0.00  0.00    +0.000 A 
ATOM     30  C   UNL     1       0.997  11.747  20.564  0.00  0.00    +0.000 C 
ATOM     31  O   UNL     1       1.611  12.482  19.821  0.00  0.00    +0.000 OA
ENDBRANCH  18  19
ENDBRANCH   2  18
TORSDOF 5
ENDMDL
MODEL 9
REMARK VINA RESULT:      -8.9      5.477      6.888
REMARK  Name = 
REMARK  6 active torsions:
REMARK  status: ('A' for Active; 'I' for Inactive)
REMARK    1  A    between atoms: C_1  and  C_2
REMARK    2  A    between atoms: C_2  and  N_3
REMARK    3  A    between atoms: C_7  and  C_8
REMARK    4  A    between atoms: C_12  and  N_13
REMARK    5  A    between atoms: C_14  and  C_16
REMARK    6  A    between atoms: C_16  and  N_17
REMARK                            x       y       z     vdW  Elec       q    Type
REMARK                         _______ _______ _______ _____ _____    ______ ____
ROOT
ATOM      1  N   UNL     1       2.491   8.558  18.561  0.00  0.00    +0.000 N 
ATOM      2  C   UNL     1       1.407   9.301  18.093  0.00  0.00    +0.000 C 
ATOM      3  O   UNL     1       0.580   8.897  17.278  0.00  0.00    +0.000 OA
ATOM      4  H   UNL     1       3.073   8.995  19.269  0.00  0.00    +0.000 HD
ENDROOT
BRANCH   1   9
ATOM      5  C   UNL     1       4.391   5.730  17.023  0.00  0.00    +0.000 A 
ATOM      6  C   UNL     1       3.638   4.635  17.468  0.00  0.00    +0.000 A 
ATOM      7  C   UNL     1       2.513   4.816  18.269  0.00  0.00    +0.000 A 
ATOM      8  C   UNL     1       2.106   6.105  18.630  0.00  0.00    +0.000 A 
ATOM      9  C   UNL     1       2.834   7.221  18.218  0.00  0.00    +0.000 A 
ATOM     10  C   UNL     1       3.991   7.018  17.438  0.00  0.00    +0.000 A 
BRANCH   5  15
ATOM     11  N   UNL     1       6.823   5.044  16.561  0.00  0.00    +0.000 N 
ATOM     12  N   UNL     1       7.632   4.987  15.487  0.00  0.00    +0.000 NA
ATOM     13  N   UNL     1       6.882   5.353  14.464  0.00  0.00    +0.000 NA
ATOM     14  N   UNL     1       5.611   5.650  14.876  0.00  0.00    +0.000 NA
ATOM     15  C   UNL     1       5.565   5.454  16.185  0.00  0.00    +0.000 A 
BRANCH  11  17
ATOM     16  C   UNL     1       7.681   5.987  18.654  0.00  0.00    +0.000 C 
ATOM     17  C   UNL     1       7.378   4.730  17.855  0.00  0.00    +0.000 C 
ENDBRANCH  11  17
ENDBRANCH   5  15
ENDBRANCH   1   9
BRANCH   2  18
ATOM     18  C   UNL     1       1.166  10.637  18.859  0.00  0.00    +0.000 C 
BRANCH  18  19
ATOM     19  N   UNL     1      -0.092  10.449  19.561  0.00  0.00    +0.000 N 
ATOM     20  C   UNL     1      -1.148  11.202  19.115  0.00  0.00    +0.000 C 
ATOM     21  O   UNL     1      -1.448  11.461  17.965  0.00  0.00    +0.000 OA
ATOM     22  C   UNL     1      -1.638  11.924  20.287  0.00  0.00    +0.000 A 
ATOM     23  C   UNL     1      -2.165  13.198  20.269  0.00  0.00    +0.000 A 
ATOM     24  C   UNL     1      -2.032  13.959  21.435  0.00  0.00    +0.000 A 
ATOM     25 CL   UNL     1      -2.461  15.630  21.328  0.00  0.00    +0.000 Cl
ATOM     26  C   UNL     1      -1.439  13.407  22.599  0.00  0.00    +0.000 A 
ATOM     27 CL   UNL     1      -1.186  14.349  24.026  0.00  0.00    +0.000 Cl
ATOM     28  C   UNL     1      -0.925  12.103  22.593  0.00  0.00    +0.000 A 
ATOM     29  C   UNL     1      -1.003  11.406  21.404  0.00  0.00    +0.000 A 
ATOM     30  C   UNL     1      -0.078  10.366  20.942  0.00  0.00    +0.000 C 
ATOM     31  O   UNL     1       0.635   9.695  21.657  0.00  0.00    +0.000 OA
ENDBRANCH  18  19
ENDBRANCH   2  18
TORSDOF 5
ENDMDL
