MODEL 1
REMARK VINA RESULT:      -9.0      0.000      0.000
REMARK  Name = 
REMARK  4 active torsions:
REMARK  status: ('A' for Active; 'I' for Inactive)
REMARK    1  A    between atoms: C_1  and  C_2
REMARK    2  A    between atoms: C_7  and  C_9
REMARK    3  A    between atoms: C_13  and  S_14
REMARK    4  A    between atoms: S_14  and  N_17
REMARK                            x       y       z     vdW  Elec       q    Type
REMARK                         _______ _______ _______ _____ _____    ______ ____
ROOT
ATOM      1  C   UNL     1       7.937   7.611  18.100  0.00  0.00    +0.000 A 
ATOM      2  C   UNL     1       8.346   6.816  19.189  0.00  0.00    +0.000 A 
ATOM      3  C   UNL     1       7.916   5.496  19.294  0.00  0.00    +0.000 A 
ATOM      4  C   UNL     1       7.042   4.974  18.335  0.00  0.00    +0.000 A 
ATOM      5  C   UNL     1       6.622   5.771  17.253  0.00  0.00    +0.000 A 
ATOM      6  C   UNL     1       7.094   7.078  17.115  0.00  0.00    +0.000 A 
ENDROOT
BRANCH   1  13
ATOM      7  C   UNL     1      11.200  14.752  19.445  0.00  0.00    +0.000 C 
ATOM      8  C   UNL     1      10.683  13.347  19.439  0.00  0.00    +0.000 A 
ATOM      9  C   UNL     1      10.893  12.438  20.470  0.00  0.00    +0.000 A 
ATOM     10  C   UNL     1      10.331  11.154  20.384  0.00  0.00    +0.000 A 
ATOM     11  C   UNL     1       9.577  10.809  19.268  0.00  0.00    +0.000 A 
ATOM     12  N   UNL     1       9.034   9.509  19.182  0.00  0.00    +0.000 N 
ATOM     13  C   UNL     1       8.273   9.060  18.117  0.00  0.00    +0.000 C 
ATOM     14  O   UNL     1       7.854   9.720  17.174  0.00  0.00    +0.000 OA
ATOM     15  N   UNL     1       9.385  11.676  18.261  0.00  0.00    +0.000 NA
ATOM     16  C   UNL     1       9.931  12.907  18.360  0.00  0.00    +0.000 A 
ATOM     17  H   UNL     1       9.207   8.894  19.962  0.00  0.00    +0.000 HD
ENDBRANCH   1  13
BRANCH   5  18
ATOM     18  S   UNL     1       5.400   5.138  16.083  0.00  0.00    +0.000 S 
ATOM     19  O   UNL     1       5.363   6.114  15.004  0.00  0.00    +0.000 OA
ATOM     20  O   UNL     1       5.739   3.771  15.829  0.00  0.00    +0.000 OA
BRANCH  18  21
ATOM     21  N   UNL     1       3.864   5.160  16.913  0.00  0.00    +0.000 N 
ATOM     22  C   UNL     1       3.506   6.542  17.428  0.00  0.00    +0.000 C 
ATOM     23  C   UNL     1       3.486   6.768  18.917  0.00  0.00    +0.000 C 
ATOM     24  C   UNL     1       3.339   5.547  19.766  0.00  0.00    +0.000 C 
ATOM     25  C   UNL     1       3.523   4.203  19.182  0.00  0.00    +0.000 A 
ATOM     26  C   UNL     1       3.449   3.145  20.127  0.00  0.00    +0.000 A 
ATOM     27  C   UNL     1       3.468   1.827  19.727  0.00  0.00    +0.000 A 
ATOM     28  C   UNL     1       3.533   1.579  18.368  0.00  0.00    +0.000 A 
ATOM     29  C   UNL     1       3.637   2.646  17.420  0.00  0.00    +0.000 A 
ATOM     30  C   UNL     1       3.664   3.996  17.819  0.00  0.00    +0.000 A 
ENDBRANCH  18  21
ENDBRANCH   5  18
TORSDOF 3
ENDMDL
MODEL 2
REMARK VINA RESULT:      -8.8      1.994      3.523
REMARK  Name = 
REMARK  4 active torsions:
REMARK  status: ('A' for Active; 'I' for Inactive)
REMARK    1  A    between atoms: C_1  and  C_2
REMARK    2  A    between atoms: C_7  and  C_9
REMARK    3  A    between atoms: C_13  and  S_14
REMARK    4  A    between atoms: S_14  and  N_17
REMARK                            x       y       z     vdW  Elec       q    Type
REMARK                         _______ _______ _______ _____ _____    ______ ____
ROOT
ATOM      1  C   UNL     1       6.789   6.021  17.006  0.00  0.00    +0.000 A 
ATOM      2  C   UNL     1       7.239   5.602  15.740  0.00  0.00    +0.000 A 
ATOM      3  C   UNL     1       6.569   4.591  15.056  0.00  0.00    +0.000 A 
ATOM      4  C   UNL     1       5.470   3.964  15.652  0.00  0.00    +0.000 A 
ATOM      5  C   UNL     1       5.026   4.373  16.924  0.00  0.00    +0.000 A 
ATOM      6  C   UNL     1       5.663   5.423  17.589  0.00  0.00    +0.000 A 
ENDROOT
BRANCH   1  13
ATOM      7  C   UNL     1      10.180  12.508  20.148  0.00  0.00    +0.000 C 
ATOM      8  C   UNL     1       9.489  11.451  19.344  0.00  0.00    +0.000 A 
ATOM      9  C   UNL     1       8.918  11.672  18.096  0.00  0.00    +0.000 A 
ATOM     10  C   UNL     1       8.327  10.601  17.407  0.00  0.00    +0.000 A 
ATOM     11  C   UNL     1       8.318   9.336  17.985  0.00  0.00    +0.000 A 
ATOM     12  N   UNL     1       7.702   8.271  17.293  0.00  0.00    +0.000 N 
ATOM     13  C   UNL     1       7.631   6.976  17.776  0.00  0.00    +0.000 C 
ATOM     14  O   UNL     1       8.176   6.528  18.777  0.00  0.00    +0.000 OA
ATOM     15  N   UNL     1       8.851   9.119  19.197  0.00  0.00    +0.000 NA
ATOM     16  C   UNL     1       9.416  10.160  19.846  0.00  0.00    +0.000 A 
ATOM     17  H   UNL     1       7.314   8.484  16.387  0.00  0.00    +0.000 HD
ENDBRANCH   1  13
BRANCH   5  18
ATOM     18  S   UNL     1       3.685   3.483  17.745  0.00  0.00    +0.000 S 
ATOM     19  O   UNL     1       2.461   4.066  17.216  0.00  0.00    +0.000 OA
ATOM     20  O   UNL     1       3.961   2.087  17.594  0.00  0.00    +0.000 OA
BRANCH  18  21
ATOM     21  N   UNL     1       3.804   3.869  19.443  0.00  0.00    +0.000 N 
ATOM     22  C   UNL     1       3.713   2.636  20.324  0.00  0.00    +0.000 C 
ATOM     23  C   UNL     1       2.497   2.470  21.197  0.00  0.00    +0.000 C 
ATOM     24  C   UNL     1       1.728   3.715  21.500  0.00  0.00    +0.000 C 
ATOM     25  C   UNL     1       1.974   4.952  20.731  0.00  0.00    +0.000 A 
ATOM     26  C   UNL     1       1.105   6.025  21.064  0.00  0.00    +0.000 A 
ATOM     27  C   UNL     1       1.287   7.282  20.535  0.00  0.00    +0.000 A 
ATOM     28  C   UNL     1       2.368   7.464  19.691  0.00  0.00    +0.000 A 
ATOM     29  C   UNL     1       3.226   6.375  19.334  0.00  0.00    +0.000 A 
ATOM     30  C   UNL     1       3.022   5.074  19.833  0.00  0.00    +0.000 A 
ENDBRANCH  18  21
ENDBRANCH   5  18
TORSDOF 3
ENDMDL
MODEL 3
REMARK VINA RESULT:      -8.6      6.685     10.341
REMARK  Name = 
REMARK  4 active torsions:
REMARK  status: ('A' for Active; 'I' for Inactive)
REMARK    1  A    between atoms: C_1  and  C_2
REMARK    2  A    between atoms: C_7  and  C_9
REMARK    3  A    between atoms: C_13  and  S_14
REMARK    4  A    between atoms: S_14  and  N_17
REMARK                            x       y       z     vdW  Elec       q    Type
REMARK                         _______ _______ _______ _____ _____    ______ ____
ROOT
ATOM      1  C   UNL     1       0.747   9.069  20.917  0.00  0.00    +0.000 A 
ATOM      2  C   UNL     1      -0.023   8.779  22.060  0.00  0.00    +0.000 A 
ATOM      3  C   UNL     1      -0.609   9.809  22.790  0.00  0.00    +0.000 A 
ATOM      4  C   UNL     1      -0.397  11.138  22.407  0.00  0.00    +0.000 A 
ATOM      5  C   UNL     1       0.383  11.430  21.272  0.00  0.00    +0.000 A 
ATOM      6  C   UNL     1       0.928  10.397  20.506  0.00  0.00    +0.000 A 
ENDROOT
BRANCH   1  13
ATOM      7  C   UNL     1       3.654   1.991  18.703  0.00  0.00    +0.000 C 
ATOM      8  C   UNL     1       3.061   3.199  19.358  0.00  0.00    +0.000 A 
ATOM      9  C   UNL     1       2.562   3.213  20.656  0.00  0.00    +0.000 A 
ATOM     10  C   UNL     1       2.061   4.410  21.191  0.00  0.00    +0.000 A 
ATOM     11  C   UNL     1       2.069   5.564  20.414  0.00  0.00    +0.000 A 
ATOM     12  N   UNL     1       1.544   6.758  20.955  0.00  0.00    +0.000 N 
ATOM     13  C   UNL     1       1.498   7.960  20.270  0.00  0.00    +0.000 C 
ATOM     14  O   UNL     1       1.996   8.211  19.180  0.00  0.00    +0.000 OA
ATOM     15  N   UNL     1       2.533   5.554  19.155  0.00  0.00    +0.000 NA
ATOM     16  C   UNL     1       3.011   4.394  18.656  0.00  0.00    +0.000 A 
ATOM     17  H   UNL     1       1.205   6.715  21.903  0.00  0.00    +0.000 HD
ENDBRANCH   1  13
BRANCH   5  18
ATOM     18  S   UNL     1       0.759  13.146  20.849  0.00  0.00    +0.000 S 
ATOM     19  O   UNL     1       1.146  13.773  22.104  0.00  0.00    +0.000 OA
ATOM     20  O   UNL     1       1.656  13.109  19.735  0.00  0.00    +0.000 OA
BRANCH  18  21
ATOM     21  N   UNL     1      -0.739  13.858  20.303  0.00  0.00    +0.000 N 
ATOM     22  C   UNL     1      -1.465  14.598  21.412  0.00  0.00    +0.000 C 
ATOM     23  C   UNL     1      -2.767  14.032  21.916  0.00  0.00    +0.000 C 
ATOM     24  C   UNL     1      -3.479  13.096  20.994  0.00  0.00    +0.000 C 
ATOM     25  C   UNL     1      -2.786  12.533  19.818  0.00  0.00    +0.000 A 
ATOM     26  C   UNL     1      -3.555  11.586  19.089  0.00  0.00    +0.000 A 
ATOM     27  C   UNL     1      -3.106  11.068  17.896  0.00  0.00    +0.000 A 
ATOM     28  C   UNL     1      -1.890  11.529  17.422  0.00  0.00    +0.000 A 
ATOM     29  C   UNL     1      -1.104  12.460  18.172  0.00  0.00    +0.000 A 
ATOM     30  C   UNL     1      -1.531  12.963  19.416  0.00  0.00    +0.000 A 
ENDBRANCH  18  21
ENDBRANCH   5  18
TORSDOF 3
ENDMDL
MODEL 4
REMARK VINA RESULT:      -8.6      1.081      1.081
REMARK  Name = 
REMARK  4 active torsions:
REMARK  status: ('A' for Active; 'I' for Inactive)
REMARK    1  A    between atoms: C_1  and  C_2
REMARK    2  A    between atoms: C_7  and  C_9
REMARK    3  A    between atoms: C_13  and  S_14
REMARK    4  A    between atoms: S_14  and  N_17
REMARK                            x       y       z     vdW  Elec       q    Type
REMARK                         _______ _______ _______ _____ _____    ______ ____
ROOT
ATOM      1  C   UNL     1       7.694   7.081  18.231  0.00  0.00    +0.000 A 
ATOM      2  C   UNL     1       8.037   6.396  19.413  0.00  0.00    +0.000 A 
ATOM      3  C   UNL     1       7.456   5.164  19.702  0.00  0.00    +0.000 A 
ATOM      4  C   UNL     1       6.500   4.628  18.833  0.00  0.00    +0.000 A 
ATOM      5  C   UNL     1       6.147   5.318  17.658  0.00  0.00    +0.000 A 
ATOM      6  C   UNL     1       6.767   6.528  17.338  0.00  0.00    +0.000 A 
ENDROOT
BRANCH   1  13
ATOM      7  C   UNL     1      11.518  14.041  18.867  0.00  0.00    +0.000 C 
ATOM      8  C   UNL     1      10.839  12.715  19.017  0.00  0.00    +0.000 A 
ATOM      9  C   UNL     1      10.736  12.026  20.220  0.00  0.00    +0.000 A 
ATOM     10  C   UNL     1      10.044  10.805  20.261  0.00  0.00    +0.000 A 
ATOM     11  C   UNL     1       9.475  10.301  19.096  0.00  0.00    +0.000 A 
ATOM     12  N   UNL     1       8.799   9.063  19.144  0.00  0.00    +0.000 N 
ATOM     13  C   UNL     1       8.201   8.468  18.046  0.00  0.00    +0.000 C 
ATOM     14  O   UNL     1       8.052   8.951  16.931  0.00  0.00    +0.000 OA
ATOM     15  N   UNL     1       9.586  10.952  17.927  0.00  0.00    +0.000 NA
ATOM     16  C   UNL     1      10.254  12.125  17.906  0.00  0.00    +0.000 A 
ATOM     17  H   UNL     1       8.744   8.611  20.043  0.00  0.00    +0.000 HD
ENDBRANCH   1  13
BRANCH   5  18
ATOM     18  S   UNL     1       4.825   4.688  16.599  0.00  0.00    +0.000 S 
ATOM     19  O   UNL     1       5.093   5.246  15.282  0.00  0.00    +0.000 OA
ATOM     20  O   UNL     1       4.773   3.273  16.803  0.00  0.00    +0.000 OA
BRANCH  18  21
ATOM     21  N   UNL     1       3.338   5.370  17.208  0.00  0.00    +0.000 N 
ATOM     22  C   UNL     1       3.511   6.800  17.684  0.00  0.00    +0.000 C 
ATOM     23  C   UNL     1       3.388   7.082  19.159  0.00  0.00    +0.000 C 
ATOM     24  C   UNL     1       2.644   6.067  19.964  0.00  0.00    +0.000 C 
ATOM     25  C   UNL     1       2.339   4.738  19.394  0.00  0.00    +0.000 A 
ATOM     26  C   UNL     1       1.713   3.846  20.306  0.00  0.00    +0.000 A 
ATOM     27  C   UNL     1       1.245   2.618  19.896  0.00  0.00    +0.000 A 
ATOM     28  C   UNL     1       1.382   2.303  18.556  0.00  0.00    +0.000 A 
ATOM     29  C   UNL     1       2.038   3.191  17.645  0.00  0.00    +0.000 A 
ATOM     30  C   UNL     1       2.562   4.430  18.062  0.00  0.00    +0.000 A 
ENDBRANCH  18  21
ENDBRANCH   5  18
TORSDOF 3
ENDMDL
MODEL 5
REMARK VINA RESULT:      -8.3      6.839      9.945
REMARK  Name = 
REMARK  4 active torsions:
REMARK  status: ('A' for Active; 'I' for Inactive)
REMARK    1  A    between atoms: C_1  and  C_2
REMARK    2  A    between atoms: C_7  and  C_9
REMARK    3  A    between atoms: C_13  and  S_14
REMARK    4  A    between atoms: S_14  and  N_17
REMARK                            x       y       z     vdW  Elec       q    Type
REMARK                         _______ _______ _______ _____ _____    ______ ____
ROOT
ATOM      1  C   UNL     1       0.543   9.146  21.174  0.00  0.00    +0.000 A 
ATOM      2  C   UNL     1      -0.242   8.945  22.326  0.00  0.00    +0.000 A 
ATOM      3  C   UNL     1      -0.799  10.033  22.993  0.00  0.00    +0.000 A 
ATOM      4  C   UNL     1      -0.543  11.330  22.537  0.00  0.00    +0.000 A 
ATOM      5  C   UNL     1       0.252  11.533  21.393  0.00  0.00    +0.000 A 
ATOM      6  C   UNL     1       0.768  10.442  20.690  0.00  0.00    +0.000 A 
ENDROOT
BRANCH   1  13
ATOM      7  C   UNL     1       5.392   4.337  17.074  0.00  0.00    +0.000 C 
ATOM      8  C   UNL     1       4.514   5.412  17.635  0.00  0.00    +0.000 A 
ATOM      9  C   UNL     1       4.290   6.636  17.013  0.00  0.00    +0.000 A 
ATOM     10  C   UNL     1       3.417   7.562  17.605  0.00  0.00    +0.000 A 
ATOM     11  C   UNL     1       2.791   7.243  18.806  0.00  0.00    +0.000 A 
ATOM     12  N   UNL     1       1.930   8.189  19.403  0.00  0.00    +0.000 N 
ATOM     13  C   UNL     1       1.261   7.978  20.596  0.00  0.00    +0.000 C 
ATOM     14  O   UNL     1       1.203   6.938  21.239  0.00  0.00    +0.000 OA
ATOM     15  N   UNL     1       3.016   6.071  19.420  0.00  0.00    +0.000 NA
ATOM     16  C   UNL     1       3.858   5.192  18.837  0.00  0.00    +0.000 A 
ATOM     17  H   UNL     1       1.795   9.056  18.905  0.00  0.00    +0.000 HD
ENDBRANCH   1  13
BRANCH   5  18
ATOM     18  S   UNL     1       0.685  13.210  20.876  0.00  0.00    +0.000 S 
ATOM     19  O   UNL     1       1.071  13.898  22.099  0.00  0.00    +0.000 OA
ATOM     20  O   UNL     1       1.598  13.082  19.782  0.00  0.00    +0.000 OA
BRANCH  18  21
ATOM     21  N   UNL     1      -0.783  13.931  20.264  0.00  0.00    +0.000 N 
ATOM     22  C   UNL     1      -1.521  14.727  21.323  0.00  0.00    +0.000 C 
ATOM     23  C   UNL     1      -2.848  14.208  21.813  0.00  0.00    +0.000 C 
ATOM     24  C   UNL     1      -3.556  13.252  20.909  0.00  0.00    +0.000 C 
ATOM     25  C   UNL     1      -2.844  12.629  19.774  0.00  0.00    +0.000 A 
ATOM     26  C   UNL     1      -3.614  11.671  19.062  0.00  0.00    +0.000 A 
ATOM     27  C   UNL     1      -3.145  11.098  17.901  0.00  0.00    +0.000 A 
ATOM     28  C   UNL     1      -1.907  11.516  17.443  0.00  0.00    +0.000 A 
ATOM     29  C   UNL     1      -1.121  12.459  18.178  0.00  0.00    +0.000 A 
ATOM     30  C   UNL     1      -1.570  13.018  19.390  0.00  0.00    +0.000 A 
ENDBRANCH  18  21
ENDBRANCH   5  18
TORSDOF 3
ENDMDL
MODEL 6
REMARK VINA RESULT:      -8.3      5.894      8.358
REMARK  Name = 
REMARK  4 active torsions:
REMARK  status: ('A' for Active; 'I' for Inactive)
REMARK    1  A    between atoms: C_1  and  C_2
REMARK    2  A    between atoms: C_7  and  C_9
REMARK    3  A    between atoms: C_13  and  S_14
REMARK    4  A    between atoms: S_14  and  N_17
REMARK                            x       y       z     vdW  Elec       q    Type
REMARK                         _______ _______ _______ _____ _____    ______ ____
ROOT
ATOM      1  C   UNL     1       0.969   9.591  19.873  0.00  0.00    +0.000 A 
ATOM      2  C   UNL     1       1.351  10.237  18.682  0.00  0.00    +0.000 A 
ATOM      3  C   UNL     1       2.096   9.556  17.723  0.00  0.00    +0.000 A 
ATOM      4  C   UNL     1       2.498   8.238  17.966  0.00  0.00    +0.000 A 
ATOM      5  C   UNL     1       2.127   7.595  19.162  0.00  0.00    +0.000 A 
ATOM      6  C   UNL     1       1.335   8.257  20.102  0.00  0.00    +0.000 A 
ENDROOT
BRANCH   1  13
ATOM      7  C   UNL     1      -3.996  13.987  24.287  0.00  0.00    +0.000 C 
ATOM      8  C   UNL     1      -3.197  13.268  23.246  0.00  0.00    +0.000 A 
ATOM      9  C   UNL     1      -3.431  13.370  21.878  0.00  0.00    +0.000 A 
ATOM     10  C   UNL     1      -2.598  12.683  20.982  0.00  0.00    +0.000 A 
ATOM     11  C   UNL     1      -1.553  11.908  21.474  0.00  0.00    +0.000 A 
ATOM     12  N   UNL     1      -0.734  11.205  20.564  0.00  0.00    +0.000 N 
ATOM     13  C   UNL     1       0.328  10.403  20.944  0.00  0.00    +0.000 C 
ATOM     14  O   UNL     1       0.795  10.275  22.068  0.00  0.00    +0.000 OA
ATOM     15  N   UNL     1      -1.332  11.791  22.792  0.00  0.00    +0.000 NA
ATOM     16  C   UNL     1      -2.142  12.459  23.641  0.00  0.00    +0.000 A 
ATOM     17  H   UNL     1      -0.941  11.322  19.584  0.00  0.00    +0.000 HD
ENDBRANCH   1  13
BRANCH   5  18
ATOM     18  S   UNL     1       2.747   5.938  19.530  0.00  0.00    +0.000 S 
ATOM     19  O   UNL     1       4.175   6.108  19.758  0.00  0.00    +0.000 OA
ATOM     20  O   UNL     1       1.898   5.395  20.545  0.00  0.00    +0.000 OA
BRANCH  18  21
ATOM     21  N   UNL     1       2.518   4.993  18.080  0.00  0.00    +0.000 N 
ATOM     22  C   UNL     1       1.666   3.761  18.323  0.00  0.00    +0.000 C 
ATOM     23  C   UNL     1       2.322   2.408  18.223  0.00  0.00    +0.000 C 
ATOM     24  C   UNL     1       3.592   2.347  17.439  0.00  0.00    +0.000 C 
ATOM     25  C   UNL     1       4.301   3.588  17.067  0.00  0.00    +0.000 A 
ATOM     26  C   UNL     1       5.541   3.373  16.408  0.00  0.00    +0.000 A 
ATOM     27  C   UNL     1       6.261   4.421  15.880  0.00  0.00    +0.000 A 
ATOM     28  C   UNL     1       5.714   5.686  15.993  0.00  0.00    +0.000 A 
ATOM     29  C   UNL     1       4.479   5.904  16.683  0.00  0.00    +0.000 A 
ATOM     30  C   UNL     1       3.756   4.847  17.267  0.00  0.00    +0.000 A 
ENDBRANCH  18  21
ENDBRANCH   5  18
TORSDOF 3
ENDMDL
MODEL 7
REMARK VINA RESULT:      -8.2      4.989      6.521
REMARK  Name = 
REMARK  4 active torsions:
REMARK  status: ('A' for Active; 'I' for Inactive)
REMARK    1  A    between atoms: C_1  and  C_2
REMARK    2  A    between atoms: C_7  and  C_9
REMARK    3  A    between atoms: C_13  and  S_14
REMARK    4  A    between atoms: S_14  and  N_17
REMARK                            x       y       z     vdW  Elec       q    Type
REMARK                         _______ _______ _______ _____ _____    ______ ____
ROOT
ATOM      1  C   UNL     1       3.083   7.472  17.903  0.00  0.00    +0.000 A 
ATOM      2  C   UNL     1       3.694   7.968  16.736  0.00  0.00    +0.000 A 
ATOM      3  C   UNL     1       4.793   7.313  16.186  0.00  0.00    +0.000 A 
ATOM      4  C   UNL     1       5.312   6.180  16.821  0.00  0.00    +0.000 A 
ATOM      5  C   UNL     1       4.710   5.690  17.995  0.00  0.00    +0.000 A 
ATOM      6  C   UNL     1       3.575   6.313  18.519  0.00  0.00    +0.000 A 
ENDROOT
BRANCH   1  13
ATOM      7  C   UNL     1      -1.499  11.455  23.059  0.00  0.00    +0.000 C 
ATOM      8  C   UNL     1      -0.576  10.551  22.305  0.00  0.00    +0.000 A 
ATOM      9  C   UNL     1       0.132   9.504  22.885  0.00  0.00    +0.000 A 
ATOM     10  C   UNL     1       0.944   8.689  22.080  0.00  0.00    +0.000 A 
ATOM     11  C   UNL     1       1.030   8.942  20.715  0.00  0.00    +0.000 A 
ATOM     12  N   UNL     1       1.865   8.129  19.919  0.00  0.00    +0.000 N 
ATOM     13  C   UNL     1       2.028   8.295  18.554  0.00  0.00    +0.000 C 
ATOM     14  O   UNL     1       1.409   9.055  17.821  0.00  0.00    +0.000 OA
ATOM     15  N   UNL     1       0.363   9.961  20.152  0.00  0.00    +0.000 NA
ATOM     16  C   UNL     1      -0.413  10.735  20.940  0.00  0.00    +0.000 A 
ATOM     17  H   UNL     1       2.347   7.378  20.388  0.00  0.00    +0.000 HD
ENDBRANCH   1  13
BRANCH   5  18
ATOM     18  S   UNL     1       5.452   4.301  18.882  0.00  0.00    +0.000 S 
ATOM     19  O   UNL     1       6.713   4.045  18.202  0.00  0.00    +0.000 OA
ATOM     20  O   UNL     1       5.419   4.635  20.273  0.00  0.00    +0.000 OA
BRANCH  18  21
ATOM     21  N   UNL     1       4.392   2.936  18.636  0.00  0.00    +0.000 N 
ATOM     22  C   UNL     1       4.030   2.742  17.175  0.00  0.00    +0.000 C 
ATOM     23  C   UNL     1       2.605   2.991  16.753  0.00  0.00    +0.000 C 
ATOM     24  C   UNL     1       1.577   2.932  17.836  0.00  0.00    +0.000 C 
ATOM     25  C   UNL     1       1.985   2.945  19.256  0.00  0.00    +0.000 A 
ATOM     26  C   UNL     1       0.899   2.981  20.171  0.00  0.00    +0.000 A 
ATOM     27  C   UNL     1       1.104   2.865  21.528  0.00  0.00    +0.000 A 
ATOM     28  C   UNL     1       2.405   2.680  21.958  0.00  0.00    +0.000 A 
ATOM     29  C   UNL     1       3.501   2.673  21.037  0.00  0.00    +0.000 A 
ATOM     30  C   UNL     1       3.309   2.837  19.652  0.00  0.00    +0.000 A 
ENDBRANCH  18  21
ENDBRANCH   5  18
TORSDOF 3
ENDMDL
MODEL 8
REMARK VINA RESULT:      -8.2      5.161      6.957
REMARK  Name = 
REMARK  4 active torsions:
REMARK  status: ('A' for Active; 'I' for Inactive)
REMARK    1  A    between atoms: C_1  and  C_2
REMARK    2  A    between atoms: C_7  and  C_9
REMARK    3  A    between atoms: C_13  and  S_14
REMARK    4  A    between atoms: S_14  and  N_17
REMARK                            x       y       z     vdW  Elec       q    Type
REMARK                         _______ _______ _______ _____ _____    ______ ____
ROOT
ATOM      1  C   UNL     1       2.546   7.499  19.164  0.00  0.00    +0.000 A 
ATOM      2  C   UNL     1       2.669   8.209  17.954  0.00  0.00    +0.000 A 
ATOM      3  C   UNL     1       3.539   7.761  16.964  0.00  0.00    +0.000 A 
ATOM      4  C   UNL     1       4.320   6.623  17.191  0.00  0.00    +0.000 A 
ATOM      5  C   UNL     1       4.207   5.920  18.405  0.00  0.00    +0.000 A 
ATOM      6  C   UNL     1       3.297   6.335  19.380  0.00  0.00    +0.000 A 
ENDROOT
BRANCH   1  13
ATOM      7  C   UNL     1      -2.318  12.015  23.568  0.00  0.00    +0.000 C 
ATOM      8  C   UNL     1      -1.373  11.391  22.590  0.00  0.00    +0.000 A 
ATOM      9  C   UNL     1      -0.843  12.056  21.489  0.00  0.00    +0.000 A 
ATOM     10  C   UNL     1       0.068  11.391  20.653  0.00  0.00    +0.000 A 
ATOM     11  C   UNL     1       0.424  10.076  20.936  0.00  0.00    +0.000 A 
ATOM     12  N   UNL     1       1.324   9.410  20.076  0.00  0.00    +0.000 N 
ATOM     13  C   UNL     1       1.742   8.104  20.260  0.00  0.00    +0.000 C 
ATOM     14  O   UNL     1       1.514   7.381  21.223  0.00  0.00    +0.000 OA
ATOM     15  N   UNL     1      -0.097   9.423  21.986  0.00  0.00    +0.000 NA
ATOM     16  C   UNL     1      -0.971  10.078  22.780  0.00  0.00    +0.000 A 
ATOM     17  H   UNL     1       1.686   9.941  19.300  0.00  0.00    +0.000 HD
ENDBRANCH   1  13
BRANCH   5  18
ATOM     18  S   UNL     1       5.303   4.524  18.749  0.00  0.00    +0.000 S 
ATOM     19  O   UNL     1       6.312   4.564  17.701  0.00  0.00    +0.000 OA
ATOM     20  O   UNL     1       5.669   4.616  20.128  0.00  0.00    +0.000 OA
BRANCH  18  21
ATOM     21  N   UNL     1       4.341   3.081  18.548  0.00  0.00    +0.000 N 
ATOM     22  C   UNL     1       3.957   2.840  17.099  0.00  0.00    +0.000 C 
ATOM     23  C   UNL     1       2.508   2.978  16.712  0.00  0.00    +0.000 C 
ATOM     24  C   UNL     1       1.514   2.860  17.822  0.00  0.00    +0.000 C 
ATOM     25  C   UNL     1       1.956   2.922  19.230  0.00  0.00    +0.000 A 
ATOM     26  C   UNL     1       0.893   2.893  20.172  0.00  0.00    +0.000 A 
ATOM     27  C   UNL     1       1.140   2.811  21.524  0.00  0.00    +0.000 A 
ATOM     28  C   UNL     1       2.462   2.729  21.923  0.00  0.00    +0.000 A 
ATOM     29  C   UNL     1       3.531   2.788  20.974  0.00  0.00    +0.000 A 
ATOM     30  C   UNL     1       3.293   2.918  19.592  0.00  0.00    +0.000 A 
ENDBRANCH  18  21
ENDBRANCH   5  18
TORSDOF 3
ENDMDL
MODEL 9
REMARK VINA RESULT:      -8.2      4.733      7.134
REMARK  Name = 
REMARK  4 active torsions:
REMARK  status: ('A' for Active; 'I' for Inactive)
REMARK    1  A    between atoms: C_1  and  C_2
REMARK    2  A    between atoms: C_7  and  C_9
REMARK    3  A    between atoms: C_13  and  S_14
REMARK    4  A    between atoms: S_14  and  N_17
REMARK                            x       y       z     vdW  Elec       q    Type
REMARK                         _______ _______ _______ _____ _____    ______ ____
ROOT
ATOM      1  C   UNL     1       1.996   6.074  20.198  0.00  0.00    +0.000 A 
ATOM      2  C   UNL     1       1.705   5.220  21.279  0.00  0.00    +0.000 A 
ATOM      3  C   UNL     1       1.981   3.858  21.191  0.00  0.00    +0.000 A 
ATOM      4  C   UNL     1       2.513   3.334  20.009  0.00  0.00    +0.000 A 
ATOM      5  C   UNL     1       2.793   4.185  18.922  0.00  0.00    +0.000 A 
ATOM      6  C   UNL     1       2.567   5.559  19.025  0.00  0.00    +0.000 A 
ENDROOT
BRANCH   1  13
ATOM      7  C   UNL     1      -0.861  13.148  22.488  0.00  0.00    +0.000 C 
ATOM      8  C   UNL     1      -0.478  11.719  22.259  0.00  0.00    +0.000 A 
ATOM      9  C   UNL     1      -0.931  10.659  23.037  0.00  0.00    +0.000 A 
ATOM     10  C   UNL     1      -0.542   9.350  22.714  0.00  0.00    +0.000 A 
ATOM     11  C   UNL     1       0.293   9.132  21.623  0.00  0.00    +0.000 A 
ATOM     12  N   UNL     1       0.695   7.813  21.320  0.00  0.00    +0.000 N 
ATOM     13  C   UNL     1       1.525   7.484  20.263  0.00  0.00    +0.000 C 
ATOM     14  O   UNL     1       1.930   8.228  19.379  0.00  0.00    +0.000 OA
ATOM     15  N   UNL     1       0.748  10.152  20.880  0.00  0.00    +0.000 NA
ATOM     16  C   UNL     1       0.364  11.405  21.203  0.00  0.00    +0.000 A 
ATOM     17  H   UNL     1       0.329   7.081  21.909  0.00  0.00    +0.000 HD
ENDBRANCH   1  13
BRANCH   5  18
ATOM     18  S   UNL     1       3.364   3.492  17.353  0.00  0.00    +0.000 S 
ATOM     19  O   UNL     1       4.127   2.308  17.715  0.00  0.00    +0.000 OA
ATOM     20  O   UNL     1       2.218   3.400  16.502  0.00  0.00    +0.000 OA
BRANCH  18  21
ATOM     21  N   UNL     1       4.449   4.671  16.661  0.00  0.00    +0.000 N 
ATOM     22  C   UNL     1       4.618   4.491  15.163  0.00  0.00    +0.000 C 
ATOM     23  C   UNL     1       5.957   4.034  14.645  0.00  0.00    +0.000 C 
ATOM     24  C   UNL     1       7.125   4.257  15.550  0.00  0.00    +0.000 C 
ATOM     25  C   UNL     1       6.915   4.607  16.970  0.00  0.00    +0.000 A 
ATOM     26  C   UNL     1       8.113   4.693  17.729  0.00  0.00    +0.000 A 
ATOM     27  C   UNL     1       8.102   5.137  19.032  0.00  0.00    +0.000 A 
ATOM     28  C   UNL     1       6.882   5.523  19.560  0.00  0.00    +0.000 A 
ATOM     29  C   UNL     1       5.673   5.408  18.802  0.00  0.00    +0.000 A 
ATOM     30  C   UNL     1       5.665   4.912  17.485  0.00  0.00    +0.000 A 
ENDBRANCH  18  21
ENDBRANCH   5  18
TORSDOF 3
ENDMDL
