MODEL 1
REMARK VINA RESULT:      -9.5      0.000      0.000
REMARK  Name = 
REMARK  3 active torsions:
REMARK  status: ('A' for Active; 'I' for Inactive)
REMARK    1  A    between atoms: C_8  and  N_9
REMARK    2  A    between atoms: N_9  and  C_10
REMARK    3  A    between atoms: C_17  and  C_18
REMARK                            x       y       z     vdW  Elec       q    Type
REMARK                         _______ _______ _______ _____ _____    ______ ____
ROOT
ATOM      1  C   UNL     1       2.395   5.028  19.969  0.00  0.00    +0.000 A 
ATOM      2  N   UNL     1       1.202   4.686  20.513  0.00  0.00    +0.000 NA
ATOM      3  C   UNL     1       0.757   3.435  20.407  0.00  0.00    +0.000 A 
ATOM      4  N   UNL     1       1.354   2.428  19.781  0.00  0.00    +0.000 NA
ATOM      5  C   UNL     1       2.520   2.788  19.219  0.00  0.00    +0.000 A 
ATOM      6  S   UNL     1       3.403   1.625  18.350  0.00  0.00    +0.000 S 
ATOM      7  C   UNL     1       4.608   2.758  17.958  0.00  0.00    +0.000 A 
ATOM      8  C   UNL     1       4.375   4.024  18.482  0.00  0.00    +0.000 A 
ATOM      9  C   UNL     1       3.124   4.039  19.251  0.00  0.00    +0.000 A 
ENDROOT
BRANCH   8  10
ATOM     10  C   UNL     1       5.315   5.112  18.169  0.00  0.00    +0.000 A 
ATOM     11  C   UNL     1       5.037   6.045  17.159  0.00  0.00    +0.000 A 
ATOM     12  C   UNL     1       5.919   7.091  16.872  0.00  0.00    +0.000 A 
ATOM     13  C   UNL     1       7.131   7.163  17.536  0.00  0.00    +0.000 A 
ATOM     14  F   UNL     1       8.001   8.132  17.223  0.00  0.00    +0.000 F 
ATOM     15  C   UNL     1       7.464   6.228  18.505  0.00  0.00    +0.000 A 
ATOM     16  C   UNL     1       6.553   5.218  18.833  0.00  0.00    +0.000 A 
ENDBRANCH   8  10
BRANCH   1  17
ATOM     17  N   UNL     1       2.839   6.344  20.160  0.00  0.00    +0.000 N 
ATOM     18  H   UNL     1       3.481   6.421  20.946  0.00  0.00    +0.000 HD
BRANCH  17  26
ATOM     19  O   UNL     1      -1.296  11.936  21.730  0.00  0.00    +0.000 OA
ATOM     20  C   UNL     1      -0.581  11.338  20.927  0.00  0.00    +0.000 C 
ATOM     21  C   UNL     1      -0.169  11.914  19.573  0.00  0.00    +0.000 C 
ATOM     22  O   UNL     1       0.299  11.050  18.547  0.00  0.00    +0.000 OA
ATOM     23  C   UNL     1       0.900   9.909  19.003  0.00  0.00    +0.000 A 
ATOM     24  C   UNL     1       1.638   9.175  18.078  0.00  0.00    +0.000 A 
ATOM     25  C   UNL     1       2.270   7.988  18.462  0.00  0.00    +0.000 A 
ATOM     26  C   UNL     1       2.185   7.529  19.779  0.00  0.00    +0.000 A 
ATOM     27  C   UNL     1       1.391   8.250  20.689  0.00  0.00    +0.000 A 
ATOM     28  C   UNL     1       0.762   9.434  20.306  0.00  0.00    +0.000 A 
ATOM     29  N   UNL     1      -0.026  10.123  21.228  0.00  0.00    +0.000 N 
ATOM     30  H   UNL     1      -0.209   9.747  22.149  0.00  0.00    +0.000 HD
ENDBRANCH  17  26
ENDBRANCH   1  17
TORSDOF 3
ENDMDL
MODEL 2
REMARK VINA RESULT:      -9.4      0.574      1.101
REMARK  Name = 
REMARK  3 active torsions:
REMARK  status: ('A' for Active; 'I' for Inactive)
REMARK    1  A    between atoms: C_8  and  N_9
REMARK    2  A    between atoms: N_9  and  C_10
REMARK    3  A    between atoms: C_17  and  C_18
REMARK                            x       y       z     vdW  Elec       q    Type
REMARK                         _______ _______ _______ _____ _____    ______ ____
ROOT
ATOM      1  C   UNL     1       2.388   5.076  19.886  0.00  0.00    +0.000 A 
ATOM      2  N   UNL     1       1.192   4.751  20.432  0.00  0.00    +0.000 NA
ATOM      3  C   UNL     1       0.716   3.515  20.304  0.00  0.00    +0.000 A 
ATOM      4  N   UNL     1       1.284   2.507  19.651  0.00  0.00    +0.000 NA
ATOM      5  C   UNL     1       2.454   2.851  19.088  0.00  0.00    +0.000 A 
ATOM      6  S   UNL     1       3.302   1.686  18.187  0.00  0.00    +0.000 S 
ATOM      7  C   UNL     1       4.531   2.798  17.810  0.00  0.00    +0.000 A 
ATOM      8  C   UNL     1       4.332   4.057  18.362  0.00  0.00    +0.000 A 
ATOM      9  C   UNL     1       3.088   4.086  19.141  0.00  0.00    +0.000 A 
ENDROOT
BRANCH   8  10
ATOM     10  C   UNL     1       5.296   5.129  18.064  0.00  0.00    +0.000 A 
ATOM     11  C   UNL     1       6.537   5.192  18.715  0.00  0.00    +0.000 A 
ATOM     12  C   UNL     1       7.463   6.197  18.421  0.00  0.00    +0.000 A 
ATOM     13  C   UNL     1       7.119   7.202  17.533  0.00  0.00    +0.000 A 
ATOM     14  F   UNL     1       7.984   8.196  17.292  0.00  0.00    +0.000 F 
ATOM     15  C   UNL     1       5.881   7.201  16.908  0.00  0.00    +0.000 A 
ATOM     16  C   UNL     1       4.981   6.160  17.158  0.00  0.00    +0.000 A 
ENDBRANCH   8  10
BRANCH   1  17
ATOM     17  N   UNL     1       2.866   6.377  20.101  0.00  0.00    +0.000 N 
ATOM     18  H   UNL     1       3.680   6.390  20.710  0.00  0.00    +0.000 HD
BRANCH  17  26
ATOM     19  O   UNL     1      -0.988  11.528  23.175  0.00  0.00    +0.000 OA
ATOM     20  C   UNL     1      -0.423  11.077  22.179  0.00  0.00    +0.000 C 
ATOM     21  C   UNL     1      -0.271  11.853  20.872  0.00  0.00    +0.000 C 
ATOM     22  O   UNL     1       0.014  11.161  19.665  0.00  0.00    +0.000 OA
ATOM     23  C   UNL     1       0.702   9.991  19.837  0.00  0.00    +0.000 A 
ATOM     24  C   UNL     1       1.270   9.423  18.698  0.00  0.00    +0.000 A 
ATOM     25  C   UNL     1       1.977   8.220  18.787  0.00  0.00    +0.000 A 
ATOM     26  C   UNL     1       2.138   7.578  20.018  0.00  0.00    +0.000 A 
ATOM     27  C   UNL     1       1.513   8.132  21.149  0.00  0.00    +0.000 A 
ATOM     28  C   UNL     1       0.810   9.333  21.060  0.00  0.00    +0.000 A 
ATOM     29  N   UNL     1       0.193   9.855  22.198  0.00  0.00    +0.000 N 
ATOM     30  H   UNL     1       0.185   9.346  23.072  0.00  0.00    +0.000 HD
ENDBRANCH  17  26
ENDBRANCH   1  17
TORSDOF 3
ENDMDL
MODEL 3
REMARK VINA RESULT:      -8.5      0.911      1.594
REMARK  Name = 
REMARK  3 active torsions:
REMARK  status: ('A' for Active; 'I' for Inactive)
REMARK    1  A    between atoms: C_8  and  N_9
REMARK    2  A    between atoms: N_9  and  C_10
REMARK    3  A    between atoms: C_17  and  C_18
REMARK                            x       y       z     vdW  Elec       q    Type
REMARK                         _______ _______ _______ _____ _____    ______ ____
ROOT
ATOM      1  C   UNL     1       2.295   5.316  19.845  0.00  0.00    +0.000 A 
ATOM      2  N   UNL     1       1.069   5.009  20.332  0.00  0.00    +0.000 NA
ATOM      3  C   UNL     1       0.639   3.749  20.304  0.00  0.00    +0.000 A 
ATOM      4  N   UNL     1       1.283   2.699  19.809  0.00  0.00    +0.000 NA
ATOM      5  C   UNL     1       2.483   3.022  19.300  0.00  0.00    +0.000 A 
ATOM      6  S   UNL     1       3.430   1.798  18.597  0.00  0.00    +0.000 S 
ATOM      7  C   UNL     1       4.654   2.907  18.193  0.00  0.00    +0.000 A 
ATOM      8  C   UNL     1       4.379   4.210  18.589  0.00  0.00    +0.000 A 
ATOM      9  C   UNL     1       3.078   4.277  19.266  0.00  0.00    +0.000 A 
ENDROOT
BRANCH   8  10
ATOM     10  C   UNL     1       5.334   5.278  18.249  0.00  0.00    +0.000 A 
ATOM     11  C   UNL     1       5.038   6.230  17.262  0.00  0.00    +0.000 A 
ATOM     12  C   UNL     1       5.934   7.256  16.950  0.00  0.00    +0.000 A 
ATOM     13  C   UNL     1       7.175   7.288  17.563  0.00  0.00    +0.000 A 
ATOM     14  F   UNL     1       8.055   8.239  17.225  0.00  0.00    +0.000 F 
ATOM     15  C   UNL     1       7.523   6.333  18.506  0.00  0.00    +0.000 A 
ATOM     16  C   UNL     1       6.600   5.343  18.861  0.00  0.00    +0.000 A 
ENDBRANCH   8  10
BRANCH   1  17
ATOM     17  N   UNL     1       2.719   6.648  19.952  0.00  0.00    +0.000 N 
ATOM     18  H   UNL     1       3.699   6.719  20.216  0.00  0.00    +0.000 HD
BRANCH  17  26
ATOM     19  O   UNL     1      -0.881  12.386  17.728  0.00  0.00    +0.000 OA
ATOM     20  C   UNL     1      -0.552  11.628  18.640  0.00  0.00    +0.000 C 
ATOM     21  C   UNL     1      -1.133  11.705  20.051  0.00  0.00    +0.000 C 
ATOM     22  O   UNL     1      -0.446  11.097  21.135  0.00  0.00    +0.000 OA
ATOM     23  C   UNL     1       0.323  10.021  20.781  0.00  0.00    +0.000 A 
ATOM     24  C   UNL     1       0.776   9.206  21.816  0.00  0.00    +0.000 A 
ATOM     25  C   UNL     1       1.579   8.096  21.539  0.00  0.00    +0.000 A 
ATOM     26  C   UNL     1       1.925   7.777  20.223  0.00  0.00    +0.000 A 
ATOM     27  C   UNL     1       1.508   8.640  19.194  0.00  0.00    +0.000 A 
ATOM     28  C   UNL     1       0.706   9.746  19.471  0.00  0.00    +0.000 A 
ATOM     29  N   UNL     1       0.314  10.589  18.430  0.00  0.00    +0.000 N 
ATOM     30  H   UNL     1       0.656  10.455  17.487  0.00  0.00    +0.000 HD
ENDBRANCH  17  26
ENDBRANCH   1  17
TORSDOF 3
ENDMDL
MODEL 4
REMARK VINA RESULT:      -8.1      4.150      7.023
REMARK  Name = 
REMARK  3 active torsions:
REMARK  status: ('A' for Active; 'I' for Inactive)
REMARK    1  A    between atoms: C_8  and  N_9
REMARK    2  A    between atoms: N_9  and  C_10
REMARK    3  A    between atoms: C_17  and  C_18
REMARK                            x       y       z     vdW  Elec       q    Type
REMARK                         _______ _______ _______ _____ _____    ______ ____
ROOT
ATOM      1  C   UNL     1       4.511   4.245  19.475  0.00  0.00    +0.000 A 
ATOM      2  N   UNL     1       5.292   3.158  19.684  0.00  0.00    +0.000 NA
ATOM      3  C   UNL     1       4.775   2.066  20.244  0.00  0.00    +0.000 A 
ATOM      4  N   UNL     1       3.528   1.904  20.670  0.00  0.00    +0.000 NA
ATOM      5  C   UNL     1       2.773   2.999  20.486  0.00  0.00    +0.000 A 
ATOM      6  S   UNL     1       1.155   2.974  21.004  0.00  0.00    +0.000 S 
ATOM      7  C   UNL     1       0.916   4.581  20.504  0.00  0.00    +0.000 A 
ATOM      8  C   UNL     1       2.042   5.159  19.930  0.00  0.00    +0.000 A 
ATOM      9  C   UNL     1       3.156   4.204  19.908  0.00  0.00    +0.000 A 
ENDROOT
BRANCH   8  10
ATOM     10  C   UNL     1       1.985   6.568  19.506  0.00  0.00    +0.000 A 
ATOM     11  C   UNL     1       1.543   7.573  20.379  0.00  0.00    +0.000 A 
ATOM     12  C   UNL     1       1.505   8.914  19.986  0.00  0.00    +0.000 A 
ATOM     13  C   UNL     1       1.829   9.252  18.683  0.00  0.00    +0.000 A 
ATOM     14  F   UNL     1       1.741  10.529  18.289  0.00  0.00    +0.000 F 
ATOM     15  C   UNL     1       2.221   8.278  17.776  0.00  0.00    +0.000 A 
ATOM     16  C   UNL     1       2.317   6.945  18.190  0.00  0.00    +0.000 A 
ENDBRANCH   8  10
BRANCH   1  17
ATOM     17  N   UNL     1       5.093   5.345  18.830  0.00  0.00    +0.000 N 
ATOM     18  H   UNL     1       4.658   6.224  19.102  0.00  0.00    +0.000 HD
BRANCH  17  26
ATOM     19  O   UNL     1       5.974   2.865  12.204  0.00  0.00    +0.000 OA
ATOM     20  C   UNL     1       6.284   3.664  13.087  0.00  0.00    +0.000 C 
ATOM     21  C   UNL     1       7.240   4.835  12.867  0.00  0.00    +0.000 C 
ATOM     22  O   UNL     1       7.863   5.462  13.980  0.00  0.00    +0.000 OA
ATOM     23  C   UNL     1       7.143   5.389  15.141  0.00  0.00    +0.000 A 
ATOM     24  C   UNL     1       7.543   6.226  16.180  0.00  0.00    +0.000 A 
ATOM     25  C   UNL     1       6.869   6.201  17.405  0.00  0.00    +0.000 A 
ATOM     26  C   UNL     1       5.777   5.351  17.600  0.00  0.00    +0.000 A 
ATOM     27  C   UNL     1       5.420   4.471  16.563  0.00  0.00    +0.000 A 
ATOM     28  C   UNL     1       6.091   4.498  15.342  0.00  0.00    +0.000 A 
ATOM     29  N   UNL     1       5.720   3.608  14.333  0.00  0.00    +0.000 N 
ATOM     30  H   UNL     1       5.019   2.895  14.492  0.00  0.00    +0.000 HD
ENDBRANCH  17  26
ENDBRANCH   1  17
TORSDOF 3
ENDMDL
MODEL 5
REMARK VINA RESULT:      -8.1      3.005      4.613
REMARK  Name = 
REMARK  3 active torsions:
REMARK  status: ('A' for Active; 'I' for Inactive)
REMARK    1  A    between atoms: C_8  and  N_9
REMARK    2  A    between atoms: N_9  and  C_10
REMARK    3  A    between atoms: C_17  and  C_18
REMARK                            x       y       z     vdW  Elec       q    Type
REMARK                         _______ _______ _______ _____ _____    ______ ____
ROOT
ATOM      1  C   UNL     1       5.489   6.109  17.925  0.00  0.00    +0.000 A 
ATOM      2  N   UNL     1       6.509   7.000  17.964  0.00  0.00    +0.000 NA
ATOM      3  C   UNL     1       7.434   6.993  17.007  0.00  0.00    +0.000 A 
ATOM      4  N   UNL     1       7.505   6.163  15.974  0.00  0.00    +0.000 NA
ATOM      5  C   UNL     1       6.507   5.264  15.964  0.00  0.00    +0.000 A 
ATOM      6  S   UNL     1       6.462   4.103  14.724  0.00  0.00    +0.000 S 
ATOM      7  C   UNL     1       5.066   3.385  15.377  0.00  0.00    +0.000 A 
ATOM      8  C   UNL     1       4.603   4.011  16.528  0.00  0.00    +0.000 A 
ATOM      9  C   UNL     1       5.463   5.149  16.875  0.00  0.00    +0.000 A 
ENDROOT
BRANCH   8  10
ATOM     10  C   UNL     1       3.433   3.452  17.225  0.00  0.00    +0.000 A 
ATOM     11  C   UNL     1       2.236   4.176  17.329  0.00  0.00    +0.000 A 
ATOM     12  C   UNL     1       1.116   3.641  17.973  0.00  0.00    +0.000 A 
ATOM     13  C   UNL     1       1.212   2.408  18.596  0.00  0.00    +0.000 A 
ATOM     14  F   UNL     1       0.157   1.919  19.260  0.00  0.00    +0.000 F 
ATOM     15  C   UNL     1       2.395   1.686  18.557  0.00  0.00    +0.000 A 
ATOM     16  C   UNL     1       3.495   2.196  17.859  0.00  0.00    +0.000 A 
ENDBRANCH   8  10
BRANCH   1  17
ATOM     17  N   UNL     1       4.512   6.200  18.927  0.00  0.00    +0.000 N 
ATOM     18  H   UNL     1       4.395   5.322  19.428  0.00  0.00    +0.000 HD
BRANCH  17  26
ATOM     19  O   UNL     1      -0.820   9.276  22.524  0.00  0.00    +0.000 OA
ATOM     20  C   UNL     1      -0.142   9.189  21.500  0.00  0.00    +0.000 C 
ATOM     21  C   UNL     1      -0.264  10.156  20.324  0.00  0.00    +0.000 C 
ATOM     22  O   UNL     1       0.229   9.784  19.045  0.00  0.00    +0.000 OA
ATOM     23  C   UNL     1       1.268   8.894  19.080  0.00  0.00    +0.000 A 
ATOM     24  C   UNL     1       1.986   8.721  17.899  0.00  0.00    +0.000 A 
ATOM     25  C   UNL     1       3.054   7.819  17.849  0.00  0.00    +0.000 A 
ATOM     26  C   UNL     1       3.426   7.092  18.983  0.00  0.00    +0.000 A 
ATOM     27  C   UNL     1       2.658   7.234  20.152  0.00  0.00    +0.000 A 
ATOM     28  C   UNL     1       1.595   8.135  20.202  0.00  0.00    +0.000 A 
ATOM     29  N   UNL     1       0.845   8.250  21.373  0.00  0.00    +0.000 N 
ATOM     30  H   UNL     1       1.012   7.643  22.165  0.00  0.00    +0.000 HD
ENDBRANCH  17  26
ENDBRANCH   1  17
TORSDOF 3
ENDMDL
MODEL 6
REMARK VINA RESULT:      -8.0      1.402      1.546
REMARK  Name = 
REMARK  3 active torsions:
REMARK  status: ('A' for Active; 'I' for Inactive)
REMARK    1  A    between atoms: C_8  and  N_9
REMARK    2  A    between atoms: N_9  and  C_10
REMARK    3  A    between atoms: C_17  and  C_18
REMARK                            x       y       z     vdW  Elec       q    Type
REMARK                         _______ _______ _______ _____ _____    ______ ____
ROOT
ATOM      1  C   UNL     1       2.443   4.689  18.284  0.00  0.00    +0.000 A 
ATOM      2  N   UNL     1       1.201   4.150  18.235  0.00  0.00    +0.000 NA
ATOM      3  C   UNL     1       0.983   2.935  18.733  0.00  0.00    +0.000 A 
ATOM      4  N   UNL     1       1.883   2.125  19.280  0.00  0.00    +0.000 NA
ATOM      5  C   UNL     1       3.116   2.658  19.293  0.00  0.00    +0.000 A 
ATOM      6  S   UNL     1       4.396   1.741  19.932  0.00  0.00    +0.000 S 
ATOM      7  C   UNL     1       5.517   2.971  19.584  0.00  0.00    +0.000 A 
ATOM      8  C   UNL     1       4.949   4.093  18.994  0.00  0.00    +0.000 A 
ATOM      9  C   UNL     1       3.502   3.910  18.829  0.00  0.00    +0.000 A 
ENDROOT
BRANCH   8  10
ATOM     10  C   UNL     1       5.822   5.208  18.590  0.00  0.00    +0.000 A 
ATOM     11  C   UNL     1       5.515   6.005  17.478  0.00  0.00    +0.000 A 
ATOM     12  C   UNL     1       6.330   7.076  17.102  0.00  0.00    +0.000 A 
ATOM     13  C   UNL     1       7.511   7.307  17.788  0.00  0.00    +0.000 A 
ATOM     14  F   UNL     1       8.321   8.299  17.396  0.00  0.00    +0.000 F 
ATOM     15  C   UNL     1       7.874   6.508  18.862  0.00  0.00    +0.000 A 
ATOM     16  C   UNL     1       7.024   5.474  19.273  0.00  0.00    +0.000 A 
ENDBRANCH   8  10
BRANCH   1  17
ATOM     17  N   UNL     1       2.602   5.994  17.797  0.00  0.00    +0.000 N 
ATOM     18  H   UNL     1       3.413   6.080  17.189  0.00  0.00    +0.000 HD
BRANCH  17  26
ATOM     19  O   UNL     1       0.610   9.718  23.541  0.00  0.00    +0.000 OA
ATOM     20  C   UNL     1       0.858   9.678  22.337  0.00  0.00    +0.000 C 
ATOM     21  C   UNL     1       0.908  10.918  21.445  0.00  0.00    +0.000 C 
ATOM     22  O   UNL     1       0.796  10.783  20.035  0.00  0.00    +0.000 OA
ATOM     23  C   UNL     1       1.242   9.585  19.548  0.00  0.00    +0.000 A 
ATOM     24  C   UNL     1       1.440   9.502  18.172  0.00  0.00    +0.000 A 
ATOM     25  C   UNL     1       1.880   8.307  17.593  0.00  0.00    +0.000 A 
ATOM     26  C   UNL     1       2.143   7.186  18.386  0.00  0.00    +0.000 A 
ATOM     27  C   UNL     1       1.885   7.267  19.766  0.00  0.00    +0.000 A 
ATOM     28  C   UNL     1       1.448   8.459  20.342  0.00  0.00    +0.000 A 
ATOM     29  N   UNL     1       1.193   8.507  21.713  0.00  0.00    +0.000 N 
ATOM     30  H   UNL     1       1.251   7.676  22.288  0.00  0.00    +0.000 HD
ENDBRANCH  17  26
ENDBRANCH   1  17
TORSDOF 3
ENDMDL
MODEL 7
REMARK VINA RESULT:      -8.0      2.715      4.294
REMARK  Name = 
REMARK  3 active torsions:
REMARK  status: ('A' for Active; 'I' for Inactive)
REMARK    1  A    between atoms: C_8  and  N_9
REMARK    2  A    between atoms: N_9  and  C_10
REMARK    3  A    between atoms: C_17  and  C_18
REMARK                            x       y       z     vdW  Elec       q    Type
REMARK                         _______ _______ _______ _____ _____    ______ ____
ROOT
ATOM      1  C   UNL     1       3.777   6.554  18.021  0.00  0.00    +0.000 A 
ATOM      2  N   UNL     1       4.350   7.598  17.374  0.00  0.00    +0.000 NA
ATOM      3  C   UNL     1       5.116   7.379  16.307  0.00  0.00    +0.000 A 
ATOM      4  N   UNL     1       5.430   6.202  15.780  0.00  0.00    +0.000 NA
ATOM      5  C   UNL     1       4.882   5.174  16.450  0.00  0.00    +0.000 A 
ATOM      6  S   UNL     1       5.207   3.591  15.926  0.00  0.00    +0.000 S 
ATOM      7  C   UNL     1       4.279   2.928  17.187  0.00  0.00    +0.000 A 
ATOM      8  C   UNL     1       3.701   3.883  18.014  0.00  0.00    +0.000 A 
ATOM      9  C   UNL     1       4.054   5.235  17.564  0.00  0.00    +0.000 A 
ENDROOT
BRANCH   8  10
ATOM     10  C   UNL     1       2.917   3.441  19.180  0.00  0.00    +0.000 A 
ATOM     11  C   UNL     1       1.525   3.602  19.223  0.00  0.00    +0.000 A 
ATOM     12  C   UNL     1       0.775   3.166  20.319  0.00  0.00    +0.000 A 
ATOM     13  C   UNL     1       1.425   2.640  21.423  0.00  0.00    +0.000 A 
ATOM     14  F   UNL     1       0.713   2.273  22.496  0.00  0.00    +0.000 F 
ATOM     15  C   UNL     1       2.806   2.512  21.437  0.00  0.00    +0.000 A 
ATOM     16  C   UNL     1       3.547   2.893  20.314  0.00  0.00    +0.000 A 
ENDBRANCH   8  10
BRANCH   1  17
ATOM     17  N   UNL     1       2.934   6.848  19.102  0.00  0.00    +0.000 N 
ATOM     18  H   UNL     1       2.656   6.011  19.610  0.00  0.00    +0.000 HD
BRANCH  17  26
ATOM     19  O   UNL     1      -0.895  11.236  23.215  0.00  0.00    +0.000 OA
ATOM     20  C   UNL     1      -0.441  10.945  22.109  0.00  0.00    +0.000 C 
ATOM     21  C   UNL     1      -0.553  11.855  20.886  0.00  0.00    +0.000 C 
ATOM     22  O   UNL     1      -0.383  11.317  19.583  0.00  0.00    +0.000 OA
ATOM     23  C   UNL     1       0.428  10.216  19.531  0.00  0.00    +0.000 A 
ATOM     24  C   UNL     1       0.875   9.826  18.271  0.00  0.00    +0.000 A 
ATOM     25  C   UNL     1       1.696   8.702  18.131  0.00  0.00    +0.000 A 
ATOM     26  C   UNL     1       2.094   7.966  19.250  0.00  0.00    +0.000 A 
ATOM     27  C   UNL     1       1.590   8.338  20.510  0.00  0.00    +0.000 A 
ATOM     28  C   UNL     1       0.773   9.459  20.648  0.00  0.00    +0.000 A 
ATOM     29  N   UNL     1       0.281   9.800  21.909  0.00  0.00    +0.000 N 
ATOM     30  H   UNL     1       0.448   9.212  22.715  0.00  0.00    +0.000 HD
ENDBRANCH  17  26
ENDBRANCH   1  17
TORSDOF 3
ENDMDL
MODEL 8
REMARK VINA RESULT:      -7.8      1.129      1.922
REMARK  Name = 
REMARK  3 active torsions:
REMARK  status: ('A' for Active; 'I' for Inactive)
REMARK    1  A    between atoms: C_8  and  N_9
REMARK    2  A    between atoms: N_9  and  C_10
REMARK    3  A    between atoms: C_17  and  C_18
REMARK                            x       y       z     vdW  Elec       q    Type
REMARK                         _______ _______ _______ _____ _____    ______ ____
ROOT
ATOM      1  C   UNL     1       2.300   5.439  19.568  0.00  0.00    +0.000 A 
ATOM      2  N   UNL     1       1.034   5.117  19.927  0.00  0.00    +0.000 NA
ATOM      3  C   UNL     1       0.755   3.888  20.354  0.00  0.00    +0.000 A 
ATOM      4  N   UNL     1       1.602   2.870  20.456  0.00  0.00    +0.000 NA
ATOM      5  C   UNL     1       2.847   3.192  20.067  0.00  0.00    +0.000 A 
ATOM      6  S   UNL     1       4.052   1.995  20.106  0.00  0.00    +0.000 S 
ATOM      7  C   UNL     1       5.213   3.072  19.489  0.00  0.00    +0.000 A 
ATOM      8  C   UNL     1       4.720   4.350  19.254  0.00  0.00    +0.000 A 
ATOM      9  C   UNL     1       3.299   4.425  19.614  0.00  0.00    +0.000 A 
ENDROOT
BRANCH   8  10
ATOM     10  C   UNL     1       5.610   5.364  18.666  0.00  0.00    +0.000 A 
ATOM     11  C   UNL     1       6.896   5.589  19.180  0.00  0.00    +0.000 A 
ATOM     12  C   UNL     1       7.751   6.537  18.612  0.00  0.00    +0.000 A 
ATOM     13  C   UNL     1       7.295   7.332  17.575  0.00  0.00    +0.000 A 
ATOM     14  F   UNL     1       8.094   8.279  17.066  0.00  0.00    +0.000 F 
ATOM     15  C   UNL     1       6.011   7.174  17.073  0.00  0.00    +0.000 A 
ATOM     16  C   UNL     1       5.179   6.182  17.603  0.00  0.00    +0.000 A 
ENDBRANCH   8  10
BRANCH   1  17
ATOM     17  N   UNL     1       2.546   6.764  19.181  0.00  0.00    +0.000 N 
ATOM     18  H   UNL     1       3.487   6.888  18.815  0.00  0.00    +0.000 HD
BRANCH  17  26
ATOM     19  O   UNL     1      -0.190  13.253  18.070  0.00  0.00    +0.000 OA
ATOM     20  C   UNL     1       0.017  12.304  18.826  0.00  0.00    +0.000 C 
ATOM     21  C   UNL     1      -0.568  12.206  20.235  0.00  0.00    +0.000 C 
ATOM     22  O   UNL     1       0.013  11.322  21.184  0.00  0.00    +0.000 OA
ATOM     23  C   UNL     1       0.630  10.232  20.632  0.00  0.00    +0.000 A 
ATOM     24  C   UNL     1       0.950   9.189  21.498  0.00  0.00    +0.000 A 
ATOM     25  C   UNL     1       1.596   8.045  21.016  0.00  0.00    +0.000 A 
ATOM     26  C   UNL     1       1.913   7.925  19.660  0.00  0.00    +0.000 A 
ATOM     27  C   UNL     1       1.634   9.009  18.808  0.00  0.00    +0.000 A 
ATOM     28  C   UNL     1       0.990  10.147  19.290  0.00  0.00    +0.000 A 
ATOM     29  N   UNL     1       0.733  11.210  18.422  0.00  0.00    +0.000 N 
ATOM     30  H   UNL     1       1.067  11.202  17.468  0.00  0.00    +0.000 HD
ENDBRANCH  17  26
ENDBRANCH   1  17
TORSDOF 3
ENDMDL
MODEL 9
REMARK VINA RESULT:      -7.5      4.304      7.038
REMARK  Name = 
REMARK  3 active torsions:
REMARK  status: ('A' for Active; 'I' for Inactive)
REMARK    1  A    between atoms: C_8  and  N_9
REMARK    2  A    between atoms: N_9  and  C_10
REMARK    3  A    between atoms: C_17  and  C_18
REMARK                            x       y       z     vdW  Elec       q    Type
REMARK                         _______ _______ _______ _____ _____    ______ ____
ROOT
ATOM      1  C   UNL     1       4.595   3.846  19.487  0.00  0.00    +0.000 A 
ATOM      2  N   UNL     1       5.331   2.751  19.794  0.00  0.00    +0.000 NA
ATOM      3  C   UNL     1       4.823   1.810  20.587  0.00  0.00    +0.000 A 
ATOM      4  N   UNL     1       3.630   1.818  21.170  0.00  0.00    +0.000 NA
ATOM      5  C   UNL     1       2.924   2.924  20.884  0.00  0.00    +0.000 A 
ATOM      6  S   UNL     1       1.382   3.111  21.574  0.00  0.00    +0.000 S 
ATOM      7  C   UNL     1       1.179   4.628  20.833  0.00  0.00    +0.000 A 
ATOM      8  C   UNL     1       2.258   5.014  20.048  0.00  0.00    +0.000 A 
ATOM      9  C   UNL     1       3.303   3.984  20.068  0.00  0.00    +0.000 A 
ENDROOT
BRANCH   8  10
ATOM     10  C   UNL     1       2.232   6.334  19.396  0.00  0.00    +0.000 A 
ATOM     11  C   UNL     1       1.828   7.482  20.093  0.00  0.00    +0.000 A 
ATOM     12  C   UNL     1       1.821   8.739  19.484  0.00  0.00    +0.000 A 
ATOM     13  C   UNL     1       2.136   8.847  18.140  0.00  0.00    +0.000 A 
ATOM     14  F   UNL     1       2.076  10.043  17.540  0.00  0.00    +0.000 F 
ATOM     15  C   UNL     1       2.491   7.727  17.404  0.00  0.00    +0.000 A 
ATOM     16  C   UNL     1       2.557   6.478  18.033  0.00  0.00    +0.000 A 
ENDBRANCH   8  10
BRANCH   1  17
ATOM     17  N   UNL     1       5.158   4.777  18.602  0.00  0.00    +0.000 N 
ATOM     18  H   UNL     1       5.033   5.734  18.922  0.00  0.00    +0.000 HD
BRANCH  17  26
ATOM     19  O   UNL     1       9.072   6.015  12.772  0.00  0.00    +0.000 OA
ATOM     20  C   UNL     1       8.126   5.442  13.313  0.00  0.00    +0.000 C 
ATOM     21  C   UNL     1       7.286   4.368  12.625  0.00  0.00    +0.000 C 
ATOM     22  O   UNL     1       5.998   4.044  13.128  0.00  0.00    +0.000 OA
ATOM     23  C   UNL     1       5.849   4.257  14.471  0.00  0.00    +0.000 A 
ATOM     24  C   UNL     1       4.731   3.687  15.077  0.00  0.00    +0.000 A 
ATOM     25  C   UNL     1       4.499   3.871  16.444  0.00  0.00    +0.000 A 
ATOM     26  C   UNL     1       5.390   4.612  17.224  0.00  0.00    +0.000 A 
ATOM     27  C   UNL     1       6.484   5.228  16.590  0.00  0.00    +0.000 A 
ATOM     28  C   UNL     1       6.715   5.043  15.227  0.00  0.00    +0.000 A 
ATOM     29  N   UNL     1       7.804   5.673  14.623  0.00  0.00    +0.000 N 
ATOM     30  H   UNL     1       8.390   6.318  15.138  0.00  0.00    +0.000 HD
ENDBRANCH  17  26
ENDBRANCH   1  17
TORSDOF 3
ENDMDL
