MODEL 1
REMARK VINA RESULT:      -8.8      0.000      0.000
REMARK  Name = 
REMARK  3 active torsions:
REMARK  status: ('A' for Active; 'I' for Inactive)
REMARK    1  A    between atoms: C_2  and  C_13
REMARK    2  A    between atoms: N_3  and  C_4
REMARK    3  A    between atoms: C_8  and  N_9
REMARK                            x       y       z     vdW  Elec       q    Type
REMARK                         _______ _______ _______ _____ _____    ______ ____
ROOT
ATOM      1  O   UNL     1       7.111   4.427  17.200  0.00  0.00    +0.000 OA
ATOM      2  C   UNL     1       5.953   4.777  16.995  0.00  0.00    +0.000 C 
ATOM      3  N   UNL     1       5.386   4.971  15.754  0.00  0.00    +0.000 N 
ATOM      4  H   UNL     1       4.513   5.485  15.718  0.00  0.00    +0.000 HD
ENDROOT
BRANCH   2   5
ATOM      5  C   UNL     1       5.022   4.983  18.160  0.00  0.00    +0.000 A 
ATOM      6  C   UNL     1       4.890   3.950  19.007  0.00  0.00    +0.000 A 
ATOM      7  C   UNL     1       3.693   3.879  19.843  0.00  0.00    +0.000 A 
ATOM      8  C   UNL     1       3.311   2.656  20.403  0.00  0.00    +0.000 A 
ATOM      9  C   UNL     1       2.012   2.492  20.885  0.00  0.00    +0.000 A 
ATOM     10  C   UNL     1       1.112   3.560  20.863  0.00  0.00    +0.000 A 
ATOM     11  C   UNL     1       1.518   4.810  20.393  0.00  0.00    +0.000 A 
ATOM     12  C   UNL     1       2.805   4.962  19.874  0.00  0.00    +0.000 A 
ATOM     13  C   UNL     1       3.180   6.209  19.163  0.00  0.00    +0.000 A 
ATOM     14  O   UNL     1       2.554   7.252  19.301  0.00  0.00    +0.000 OA
ATOM     15  N   UNL     1       4.223   6.100  18.268  0.00  0.00    +0.000 N 
ATOM     16  H   UNL     1       4.309   6.875  17.628  0.00  0.00    +0.000 HD
ENDBRANCH   2   5
BRANCH   3  17
ATOM     17  C   UNL     1       6.008   4.675  14.521  0.00  0.00    +0.000 A 
ATOM     18  C   UNL     1       7.208   5.268  14.103  0.00  0.00    +0.000 A 
ATOM     19  C   UNL     1       7.774   4.963  12.862  0.00  0.00    +0.000 A 
ATOM     20  C   UNL     1       7.146   4.053  12.011  0.00  0.00    +0.000 A 
ATOM     21  C   UNL     1       5.959   3.447  12.430  0.00  0.00    +0.000 A 
ATOM     22  C   UNL     1       5.399   3.736  13.686  0.00  0.00    +0.000 A 
BRANCH  21  23
ATOM     23  N   UNL     1       5.279   2.500  11.542  0.00  0.00    +0.000 N 
ATOM     24  O   UNL     1       5.864   1.437  11.275  0.00  0.00    +0.000 OA
ATOM     25  O   UNL     1       4.168   2.813  11.104  0.00  0.00    +0.000 OA
ENDBRANCH  21  23
ENDBRANCH   3  17
TORSDOF 3
ENDMDL
MODEL 2
REMARK VINA RESULT:      -8.2      2.493      7.835
REMARK  Name = 
REMARK  3 active torsions:
REMARK  status: ('A' for Active; 'I' for Inactive)
REMARK    1  A    between atoms: C_2  and  C_13
REMARK    2  A    between atoms: N_3  and  C_4
REMARK    3  A    between atoms: C_8  and  N_9
REMARK                            x       y       z     vdW  Elec       q    Type
REMARK                         _______ _______ _______ _____ _____    ______ ____
ROOT
ATOM      1  O   UNL     1       5.431   5.898  16.912  0.00  0.00    +0.000 OA
ATOM      2  C   UNL     1       5.124   4.961  16.182  0.00  0.00    +0.000 C 
ATOM      3  N   UNL     1       4.233   3.959  16.502  0.00  0.00    +0.000 N 
ATOM      4  H   UNL     1       4.247   3.125  15.925  0.00  0.00    +0.000 HD
ENDROOT
BRANCH   2   5
ATOM      5  C   UNL     1       5.709   4.876  14.797  0.00  0.00    +0.000 A 
ATOM      6  C   UNL     1       5.032   4.132  13.909  0.00  0.00    +0.000 A 
ATOM      7  C   UNL     1       5.745   3.610  12.745  0.00  0.00    +0.000 A 
ATOM      8  C   UNL     1       5.223   2.518  12.045  0.00  0.00    +0.000 A 
ATOM      9  C   UNL     1       6.046   1.792  11.183  0.00  0.00    +0.000 A 
ATOM     10  C   UNL     1       7.369   2.187  10.973  0.00  0.00    +0.000 A 
ATOM     11  C   UNL     1       7.867   3.333  11.594  0.00  0.00    +0.000 A 
ATOM     12  C   UNL     1       7.056   4.035  12.488  0.00  0.00    +0.000 A 
ATOM     13  C   UNL     1       7.631   5.112  13.330  0.00  0.00    +0.000 A 
ATOM     14  O   UNL     1       8.687   5.665  13.051  0.00  0.00    +0.000 OA
ATOM     15  N   UNL     1       6.951   5.392  14.497  0.00  0.00    +0.000 N 
ATOM     16  H   UNL     1       7.470   5.943  15.164  0.00  0.00    +0.000 HD
ENDBRANCH   2   5
BRANCH   3  17
ATOM     17  C   UNL     1       3.436   3.922  17.667  0.00  0.00    +0.000 A 
ATOM     18  C   UNL     1       2.212   4.598  17.782  0.00  0.00    +0.000 A 
ATOM     19  C   UNL     1       1.468   4.554  18.964  0.00  0.00    +0.000 A 
ATOM     20  C   UNL     1       1.937   3.827  20.059  0.00  0.00    +0.000 A 
ATOM     21  C   UNL     1       3.146   3.139  19.944  0.00  0.00    +0.000 A 
ATOM     22  C   UNL     1       3.886   3.164  18.749  0.00  0.00    +0.000 A 
BRANCH  21  23
ATOM     23  N   UNL     1       3.661   2.383  21.089  0.00  0.00    +0.000 N 
ATOM     24  O   UNL     1       2.918   2.258  22.077  0.00  0.00    +0.000 OA
ATOM     25  O   UNL     1       4.802   1.921  21.012  0.00  0.00    +0.000 OA
ENDBRANCH  21  23
ENDBRANCH   3  17
TORSDOF 3
ENDMDL
MODEL 3
REMARK VINA RESULT:      -8.2      2.427      7.733
REMARK  Name = 
REMARK  3 active torsions:
REMARK  status: ('A' for Active; 'I' for Inactive)
REMARK    1  A    between atoms: C_2  and  C_13
REMARK    2  A    between atoms: N_3  and  C_4
REMARK    3  A    between atoms: C_8  and  N_9
REMARK                            x       y       z     vdW  Elec       q    Type
REMARK                         _______ _______ _______ _____ _____    ______ ____
ROOT
ATOM      1  O   UNL     1       6.149   5.874  17.503  0.00  0.00    +0.000 OA
ATOM      2  C   UNL     1       5.441   5.287  16.691  0.00  0.00    +0.000 C 
ATOM      3  N   UNL     1       4.215   4.720  16.964  0.00  0.00    +0.000 N 
ATOM      4  H   UNL     1       3.845   4.065  16.284  0.00  0.00    +0.000 HD
ENDROOT
BRANCH   2   5
ATOM      5  C   UNL     1       5.883   5.188  15.255  0.00  0.00    +0.000 A 
ATOM      6  C   UNL     1       5.053   4.544  14.419  0.00  0.00    +0.000 A 
ATOM      7  C   UNL     1       5.598   3.991  13.181  0.00  0.00    +0.000 A 
ATOM      8  C   UNL     1       4.904   2.979  12.510  0.00  0.00    +0.000 A 
ATOM      9  C   UNL     1       5.564   2.203  11.557  0.00  0.00    +0.000 A 
ATOM     10  C   UNL     1       6.896   2.470  11.230  0.00  0.00    +0.000 A 
ATOM     11  C   UNL     1       7.564   3.540  11.827  0.00  0.00    +0.000 A 
ATOM     12  C   UNL     1       6.916   4.290  12.810  0.00  0.00    +0.000 A 
ATOM     13  C   UNL     1       7.675   5.277  13.617  0.00  0.00    +0.000 A 
ATOM     14  O   UNL     1       8.752   5.730  13.250  0.00  0.00    +0.000 OA
ATOM     15  N   UNL     1       7.138   5.586  14.848  0.00  0.00    +0.000 N 
ATOM     16  H   UNL     1       7.771   6.061  15.475  0.00  0.00    +0.000 HD
ENDBRANCH   2   5
BRANCH   3  17
ATOM     17  C   UNL     1       3.520   4.836  18.188  0.00  0.00    +0.000 A 
ATOM     18  C   UNL     1       2.809   5.985  18.563  0.00  0.00    +0.000 A 
ATOM     19  C   UNL     1       2.157   6.065  19.796  0.00  0.00    +0.000 A 
ATOM     20  C   UNL     1       2.205   4.990  20.684  0.00  0.00    +0.000 A 
ATOM     21  C   UNL     1       2.899   3.836  20.309  0.00  0.00    +0.000 A 
ATOM     22  C   UNL     1       3.537   3.746  19.060  0.00  0.00    +0.000 A 
BRANCH  21  23
ATOM     23  N   UNL     1       2.972   2.704  21.236  0.00  0.00    +0.000 N 
ATOM     24  O   UNL     1       3.999   2.005  21.212  0.00  0.00    +0.000 OA
ATOM     25  O   UNL     1       2.010   2.504  21.982  0.00  0.00    +0.000 OA
ENDBRANCH  21  23
ENDBRANCH   3  17
TORSDOF 3
ENDMDL
MODEL 4
REMARK VINA RESULT:      -8.0      6.719      8.872
REMARK  Name = 
REMARK  3 active torsions:
REMARK  status: ('A' for Active; 'I' for Inactive)
REMARK    1  A    between atoms: C_2  and  C_13
REMARK    2  A    between atoms: N_3  and  C_4
REMARK    3  A    between atoms: C_8  and  N_9
REMARK                            x       y       z     vdW  Elec       q    Type
REMARK                         _______ _______ _______ _____ _____    ______ ____
ROOT
ATOM      1  O   UNL     1       7.880  10.175  17.584  0.00  0.00    +0.000 OA
ATOM      2  C   UNL     1       8.479   9.367  18.287  0.00  0.00    +0.000 C 
ATOM      3  N   UNL     1       9.465   9.678  19.199  0.00  0.00    +0.000 N 
ATOM      4  H   UNL     1      10.043   8.915  19.535  0.00  0.00    +0.000 HD
ENDROOT
BRANCH   2   5
ATOM      5  C   UNL     1       8.113   7.908  18.217  0.00  0.00    +0.000 A 
ATOM      6  C   UNL     1       7.455   7.511  17.116  0.00  0.00    +0.000 A 
ATOM      7  C   UNL     1       6.661   6.285  17.180  0.00  0.00    +0.000 A 
ATOM      8  C   UNL     1       5.650   6.066  16.239  0.00  0.00    +0.000 A 
ATOM      9  C   UNL     1       4.666   5.109  16.492  0.00  0.00    +0.000 A 
ATOM     10  C   UNL     1       4.721   4.332  17.652  0.00  0.00    +0.000 A 
ATOM     11  C   UNL     1       5.781   4.481  18.547  0.00  0.00    +0.000 A 
ATOM     12  C   UNL     1       6.742   5.466  18.313  0.00  0.00    +0.000 A 
ATOM     13  C   UNL     1       7.742   5.796  19.359  0.00  0.00    +0.000 A 
ATOM     14  O   UNL     1       8.003   5.029  20.277  0.00  0.00    +0.000 OA
ATOM     15  N   UNL     1       8.294   7.057  19.285  0.00  0.00    +0.000 N 
ATOM     16  H   UNL     1       8.779   7.352  20.120  0.00  0.00    +0.000 HD
ENDBRANCH   2   5
BRANCH   3  17
ATOM     17  C   UNL     1       9.853  10.986  19.561  0.00  0.00    +0.000 A 
ATOM     18  C   UNL     1       9.602  11.540  20.825  0.00  0.00    +0.000 A 
ATOM     19  C   UNL     1       9.981  12.849  21.132  0.00  0.00    +0.000 A 
ATOM     20  C   UNL     1      10.623  13.634  20.174  0.00  0.00    +0.000 A 
ATOM     21  C   UNL     1      10.890  13.082  18.919  0.00  0.00    +0.000 A 
ATOM     22  C   UNL     1      10.529  11.759  18.615  0.00  0.00    +0.000 A 
BRANCH  21  23
ATOM     23  N   UNL     1      11.550  13.898  17.896  0.00  0.00    +0.000 N 
ATOM     24  O   UNL     1      11.617  13.436  16.745  0.00  0.00    +0.000 OA
ATOM     25  O   UNL     1      12.006  14.994  18.235  0.00  0.00    +0.000 OA
ENDBRANCH  21  23
ENDBRANCH   3  17
TORSDOF 3
ENDMDL
MODEL 5
REMARK VINA RESULT:      -8.0      3.807      8.889
REMARK  Name = 
REMARK  3 active torsions:
REMARK  status: ('A' for Active; 'I' for Inactive)
REMARK    1  A    between atoms: C_2  and  C_13
REMARK    2  A    between atoms: N_3  and  C_4
REMARK    3  A    between atoms: C_8  and  N_9
REMARK                            x       y       z     vdW  Elec       q    Type
REMARK                         _______ _______ _______ _____ _____    ______ ____
ROOT
ATOM      1  O   UNL     1       1.563   6.505  20.280  0.00  0.00    +0.000 OA
ATOM      2  C   UNL     1       2.272   7.058  19.445  0.00  0.00    +0.000 C 
ATOM      3  N   UNL     1       2.068   8.323  18.936  0.00  0.00    +0.000 N 
ATOM      4  H   UNL     1       2.571   8.569  18.091  0.00  0.00    +0.000 HD
ENDROOT
BRANCH   2   5
ATOM      5  C   UNL     1       3.503   6.357  18.934  0.00  0.00    +0.000 A 
ATOM      6  C   UNL     1       4.049   6.853  17.813  0.00  0.00    +0.000 A 
ATOM      7  C   UNL     1       4.905   5.983  17.007  0.00  0.00    +0.000 A 
ATOM      8  C   UNL     1       5.139   6.295  15.664  0.00  0.00    +0.000 A 
ATOM      9  C   UNL     1       5.635   5.314  14.804  0.00  0.00    +0.000 A 
ATOM     10  C   UNL     1       5.952   4.044  15.292  0.00  0.00    +0.000 A 
ATOM     11  C   UNL     1       5.811   3.758  16.650  0.00  0.00    +0.000 A 
ATOM     12  C   UNL     1       5.276   4.726  17.502  0.00  0.00    +0.000 A 
ATOM     13  C   UNL     1       4.904   4.372  18.894  0.00  0.00    +0.000 A 
ATOM     14  O   UNL     1       5.352   3.382  19.457  0.00  0.00    +0.000 OA
ATOM     15  N   UNL     1       3.952   5.176  19.484  0.00  0.00    +0.000 N 
ATOM     16  H   UNL     1       3.539   4.792  20.321  0.00  0.00    +0.000 HD
ENDBRANCH   2   5
BRANCH   3  17
ATOM     17  C   UNL     1       1.086   9.232  19.388  0.00  0.00    +0.000 A 
ATOM     18  C   UNL     1       0.246   9.948  18.523  0.00  0.00    +0.000 A 
ATOM     19  C   UNL     1      -0.695  10.857  19.015  0.00  0.00    +0.000 A 
ATOM     20  C   UNL     1      -0.813  11.067  20.388  0.00  0.00    +0.000 A 
ATOM     21  C   UNL     1       0.010  10.344  21.255  0.00  0.00    +0.000 A 
ATOM     22  C   UNL     1       0.942   9.414  20.765  0.00  0.00    +0.000 A 
BRANCH  21  23
ATOM     23  N   UNL     1      -0.091  10.565  22.700  0.00  0.00    +0.000 N 
ATOM     24  O   UNL     1       0.374   9.691  23.451  0.00  0.00    +0.000 OA
ATOM     25  O   UNL     1      -0.636  11.601  23.091  0.00  0.00    +0.000 OA
ENDBRANCH  21  23
ENDBRANCH   3  17
TORSDOF 3
ENDMDL
MODEL 6
REMARK VINA RESULT:      -8.0      5.897      8.048
REMARK  Name = 
REMARK  3 active torsions:
REMARK  status: ('A' for Active; 'I' for Inactive)
REMARK    1  A    between atoms: C_2  and  C_13
REMARK    2  A    between atoms: N_3  and  C_4
REMARK    3  A    between atoms: C_8  and  N_9
REMARK                            x       y       z     vdW  Elec       q    Type
REMARK                         _______ _______ _______ _____ _____    ______ ____
ROOT
ATOM      1  O   UNL     1       8.757   7.569  19.058  0.00  0.00    +0.000 OA
ATOM      2  C   UNL     1       8.058   8.108  18.205  0.00  0.00    +0.000 C 
ATOM      3  N   UNL     1       8.045   9.456  17.920  0.00  0.00    +0.000 N 
ATOM      4  H   UNL     1       7.265   9.808  17.376  0.00  0.00    +0.000 HD
ENDROOT
BRANCH   2   5
ATOM      5  C   UNL     1       7.154   7.266  17.344  0.00  0.00    +0.000 A 
ATOM      6  C   UNL     1       5.841   7.336  17.612  0.00  0.00    +0.000 A 
ATOM      7  C   UNL     1       4.980   6.235  17.184  0.00  0.00    +0.000 A 
ATOM      8  C   UNL     1       3.732   6.056  17.790  0.00  0.00    +0.000 A 
ATOM      9  C   UNL     1       3.071   4.833  17.661  0.00  0.00    +0.000 A 
ATOM     10  C   UNL     1       3.623   3.812  16.883  0.00  0.00    +0.000 A 
ATOM     11  C   UNL     1       4.820   4.020  16.198  0.00  0.00    +0.000 A 
ATOM     12  C   UNL     1       5.501   5.228  16.360  0.00  0.00    +0.000 A 
ATOM     13  C   UNL     1       6.878   5.386  15.831  0.00  0.00    +0.000 A 
ATOM     14  O   UNL     1       7.330   4.652  14.961  0.00  0.00    +0.000 OA
ATOM     15  N   UNL     1       7.651   6.350  16.442  0.00  0.00    +0.000 N 
ATOM     16  H   UNL     1       8.638   6.285  16.244  0.00  0.00    +0.000 HD
ENDBRANCH   2   5
BRANCH   3  17
ATOM     17  C   UNL     1       8.925  10.412  18.473  0.00  0.00    +0.000 A 
ATOM     18  C   UNL     1       9.355  10.380  19.808  0.00  0.00    +0.000 A 
ATOM     19  C   UNL     1      10.207  11.363  20.319  0.00  0.00    +0.000 A 
ATOM     20  C   UNL     1      10.648  12.402  19.500  0.00  0.00    +0.000 A 
ATOM     21  C   UNL     1      10.237  12.429  18.165  0.00  0.00    +0.000 A 
ATOM     22  C   UNL     1       9.397  11.431  17.643  0.00  0.00    +0.000 A 
BRANCH  21  23
ATOM     23  N   UNL     1      10.678  13.522  17.295  0.00  0.00    +0.000 N 
ATOM     24  O   UNL     1      10.249  14.662  17.538  0.00  0.00    +0.000 OA
ATOM     25  O   UNL     1      11.446  13.250  16.368  0.00  0.00    +0.000 OA
ENDBRANCH  21  23
ENDBRANCH   3  17
TORSDOF 3
ENDMDL
MODEL 7
REMARK VINA RESULT:      -8.0      3.888      6.327
REMARK  Name = 
REMARK  3 active torsions:
REMARK  status: ('A' for Active; 'I' for Inactive)
REMARK    1  A    between atoms: C_2  and  C_13
REMARK    2  A    between atoms: N_3  and  C_4
REMARK    3  A    between atoms: C_8  and  N_9
REMARK                            x       y       z     vdW  Elec       q    Type
REMARK                         _______ _______ _______ _____ _____    ______ ____
ROOT
ATOM      1  O   UNL     1       2.372   5.836  20.548  0.00  0.00    +0.000 OA
ATOM      2  C   UNL     1       2.371   6.842  19.846  0.00  0.00    +0.000 C 
ATOM      3  N   UNL     1       3.025   6.974  18.640  0.00  0.00    +0.000 N 
ATOM      4  H   UNL     1       3.148   7.914  18.279  0.00  0.00    +0.000 HD
ENDROOT
BRANCH   2   5
ATOM      5  C   UNL     1       1.571   8.044  20.272  0.00  0.00    +0.000 A 
ATOM      6  C   UNL     1       1.180   8.876  19.295  0.00  0.00    +0.000 A 
ATOM      7  C   UNL     1       0.847  10.257  19.642  0.00  0.00    +0.000 A 
ATOM      8  C   UNL     1       0.852  11.241  18.649  0.00  0.00    +0.000 A 
ATOM      9  C   UNL     1       0.897  12.588  19.012  0.00  0.00    +0.000 A 
ATOM     10  C   UNL     1       0.879  12.956  20.360  0.00  0.00    +0.000 A 
ATOM     11  C   UNL     1       0.776  11.981  21.352  0.00  0.00    +0.000 A 
ATOM     12  C   UNL     1       0.772  10.632  20.990  0.00  0.00    +0.000 A 
ATOM     13  C   UNL     1       0.895   9.580  22.029  0.00  0.00    +0.000 A 
ATOM     14  O   UNL     1       0.652   9.797  23.209  0.00  0.00    +0.000 OA
ATOM     15  N   UNL     1       1.388   8.366  21.599  0.00  0.00    +0.000 N 
ATOM     16  H   UNL     1       1.690   7.750  22.339  0.00  0.00    +0.000 HD
ENDBRANCH   2   5
BRANCH   3  17
ATOM     17  C   UNL     1       3.692   5.932  17.958  0.00  0.00    +0.000 A 
ATOM     18  C   UNL     1       3.066   4.733  17.587  0.00  0.00    +0.000 A 
ATOM     19  C   UNL     1       3.772   3.718  16.936  0.00  0.00    +0.000 A 
ATOM     20  C   UNL     1       5.126   3.884  16.643  0.00  0.00    +0.000 A 
ATOM     21  C   UNL     1       5.750   5.083  16.996  0.00  0.00    +0.000 A 
ATOM     22  C   UNL     1       5.036   6.114  17.631  0.00  0.00    +0.000 A 
BRANCH  21  23
ATOM     23  N   UNL     1       7.175   5.269  16.709  0.00  0.00    +0.000 N 
ATOM     24  O   UNL     1       7.956   4.370  17.064  0.00  0.00    +0.000 OA
ATOM     25  O   UNL     1       7.520   6.306  16.138  0.00  0.00    +0.000 OA
ENDBRANCH  21  23
ENDBRANCH   3  17
TORSDOF 3
ENDMDL
MODEL 8
REMARK VINA RESULT:      -7.9      4.039      9.058
REMARK  Name = 
REMARK  3 active torsions:
REMARK  status: ('A' for Active; 'I' for Inactive)
REMARK    1  A    between atoms: C_2  and  C_13
REMARK    2  A    between atoms: N_3  and  C_4
REMARK    3  A    between atoms: C_8  and  N_9
REMARK                            x       y       z     vdW  Elec       q    Type
REMARK                         _______ _______ _______ _____ _____    ______ ____
ROOT
ATOM      1  O   UNL     1       2.268   8.709  17.235  0.00  0.00    +0.000 OA
ATOM      2  C   UNL     1       2.436   7.938  18.174  0.00  0.00    +0.000 C 
ATOM      3  N   UNL     1       1.923   8.101  19.443  0.00  0.00    +0.000 N 
ATOM      4  H   UNL     1       2.324   7.535  20.182  0.00  0.00    +0.000 HD
ENDROOT
BRANCH   2   5
ATOM      5  C   UNL     1       3.224   6.672  17.963  0.00  0.00    +0.000 A 
ATOM      6  C   UNL     1       4.524   6.822  17.665  0.00  0.00    +0.000 A 
ATOM      7  C   UNL     1       5.218   5.728  16.988  0.00  0.00    +0.000 A 
ATOM      8  C   UNL     1       6.405   5.985  16.295  0.00  0.00    +0.000 A 
ATOM      9  C   UNL     1       6.874   5.059  15.362  0.00  0.00    +0.000 A 
ATOM     10  C   UNL     1       6.194   3.855  15.161  0.00  0.00    +0.000 A 
ATOM     11  C   UNL     1       5.064   3.552  15.920  0.00  0.00    +0.000 A 
ATOM     12  C   UNL     1       4.572   4.495  16.824  0.00  0.00    +0.000 A 
ATOM     13  C   UNL     1       3.251   4.294  17.469  0.00  0.00    +0.000 A 
ATOM     14  O   UNL     1       2.717   3.194  17.531  0.00  0.00    +0.000 OA
ATOM     15  N   UNL     1       2.619   5.435  17.914  0.00  0.00    +0.000 N 
ATOM     16  H   UNL     1       1.639   5.317  18.126  0.00  0.00    +0.000 HD
ENDBRANCH   2   5
BRANCH   3  17
ATOM     17  C   UNL     1       1.018   9.114  19.829  0.00  0.00    +0.000 A 
ATOM     18  C   UNL     1       0.395   9.978  18.916  0.00  0.00    +0.000 A 
ATOM     19  C   UNL     1      -0.475  10.983  19.346  0.00  0.00    +0.000 A 
ATOM     20  C   UNL     1      -0.740  11.144  20.706  0.00  0.00    +0.000 A 
ATOM     21  C   UNL     1      -0.135  10.276  21.619  0.00  0.00    +0.000 A 
ATOM     22  C   UNL     1       0.724   9.251  21.187  0.00  0.00    +0.000 A 
BRANCH  21  23
ATOM     23  N   UNL     1      -0.390  10.442  23.052  0.00  0.00    +0.000 N 
ATOM     24  O   UNL     1      -1.206  11.314  23.395  0.00  0.00    +0.000 OA
ATOM     25  O   UNL     1       0.221   9.712  23.837  0.00  0.00    +0.000 OA
ENDBRANCH  21  23
ENDBRANCH   3  17
TORSDOF 3
ENDMDL
MODEL 9
REMARK VINA RESULT:      -7.9      3.977      6.198
REMARK  Name = 
REMARK  3 active torsions:
REMARK  status: ('A' for Active; 'I' for Inactive)
REMARK    1  A    between atoms: C_2  and  C_13
REMARK    2  A    between atoms: N_3  and  C_4
REMARK    3  A    between atoms: C_8  and  N_9
REMARK                            x       y       z     vdW  Elec       q    Type
REMARK                         _______ _______ _______ _____ _____    ______ ____
ROOT
ATOM      1  O   UNL     1       1.729   6.095  20.259  0.00  0.00    +0.000 OA
ATOM      2  C   UNL     1       2.208   7.082  19.710  0.00  0.00    +0.000 C 
ATOM      3  N   UNL     1       3.176   7.059  18.729  0.00  0.00    +0.000 N 
ATOM      4  H   UNL     1       3.656   7.930  18.531  0.00  0.00    +0.000 HD
ENDROOT
BRANCH   2   5
ATOM      5  C   UNL     1       1.700   8.453  20.073  0.00  0.00    +0.000 A 
ATOM      6  C   UNL     1       1.460   8.674  21.375  0.00  0.00    +0.000 A 
ATOM      7  C   UNL     1       0.542   9.750  21.744  0.00  0.00    +0.000 A 
ATOM      8  C   UNL     1      -0.056   9.745  23.008  0.00  0.00    +0.000 A 
ATOM      9  C   UNL     1      -1.183  10.534  23.242  0.00  0.00    +0.000 A 
ATOM     10  C   UNL     1      -1.680  11.369  22.237  0.00  0.00    +0.000 A 
ATOM     11  C   UNL     1      -1.029  11.449  21.006  0.00  0.00    +0.000 A 
ATOM     12  C   UNL     1       0.074  10.629  20.759  0.00  0.00    +0.000 A 
ATOM     13  C   UNL     1       0.638  10.528  19.391  0.00  0.00    +0.000 A 
ATOM     14  O   UNL     1       0.423  11.375  18.532  0.00  0.00    +0.000 OA
ATOM     15  N   UNL     1       1.343   9.376  19.115  0.00  0.00    +0.000 N 
ATOM     16  H   UNL     1       1.511   9.211  18.133  0.00  0.00    +0.000 HD
ENDBRANCH   2   5
BRANCH   3  17
ATOM     17  C   UNL     1       3.676   5.893  18.109  0.00  0.00    +0.000 A 
ATOM     18  C   UNL     1       2.861   4.824  17.710  0.00  0.00    +0.000 A 
ATOM     19  C   UNL     1       3.403   3.679  17.122  0.00  0.00    +0.000 A 
ATOM     20  C   UNL     1       4.780   3.580  16.921  0.00  0.00    +0.000 A 
ATOM     21  C   UNL     1       5.595   4.649  17.302  0.00  0.00    +0.000 A 
ATOM     22  C   UNL     1       5.050   5.811  17.873  0.00  0.00    +0.000 A 
BRANCH  21  23
ATOM     23  N   UNL     1       7.045   4.556  17.112  0.00  0.00    +0.000 N 
ATOM     24  O   UNL     1       7.482   4.642  15.952  0.00  0.00    +0.000 OA
ATOM     25  O   UNL     1       7.750   4.390  18.111  0.00  0.00    +0.000 OA
ENDBRANCH  21  23
ENDBRANCH   3  17
TORSDOF 3
ENDMDL
