MODEL 1
REMARK VINA RESULT:      -9.0      0.000      0.000
REMARK  Name = 
REMARK  5 active torsions:
REMARK  status: ('A' for Active; 'I' for Inactive)
REMARK    1  A    between atoms: C_2  and  C_19
REMARK    2  A    between atoms: N_3  and  C_4
REMARK    3  A    between atoms: C_4  and  C_5
REMARK    4  A    between atoms: N_7  and  C_8
REMARK    5  A    between atoms: C_8  and  C_9
REMARK                            x       y       z     vdW  Elec       q    Type
REMARK                         _______ _______ _______ _____ _____    ______ ____
ROOT
ATOM      1  O   UNL     1       1.132   5.467  20.810  0.00  0.00    +0.000 OA
ATOM      2  C   UNL     1       1.946   6.110  20.158  0.00  0.00    +0.000 C 
ATOM      3  N   UNL     1       2.115   7.474  20.266  0.00  0.00    +0.000 N 
ATOM      4  H   UNL     1       2.897   7.917  19.811  0.00  0.00    +0.000 HD
ENDROOT
BRANCH   2   5
ATOM      5  C   UNL     1       2.949   5.450  19.258  0.00  0.00    +0.000 A 
ATOM      6  C   UNL     1       3.687   6.239  18.461  0.00  0.00    +0.000 A 
ATOM      7  C   UNL     1       4.459   5.630  17.375  0.00  0.00    +0.000 A 
ATOM      8  C   UNL     1       5.039   6.426  16.381  0.00  0.00    +0.000 A 
ATOM      9  C   UNL     1       5.584   5.830  15.241  0.00  0.00    +0.000 A 
ATOM     10  C   UNL     1       5.587   4.441  15.105  0.00  0.00    +0.000 A 
ATOM     11  C   UNL     1       5.068   3.636  16.121  0.00  0.00    +0.000 A 
ATOM     12  C   UNL     1       4.497   4.234  17.248  0.00  0.00    +0.000 A 
ATOM     13  C   UNL     1       3.831   3.404  18.283  0.00  0.00    +0.000 A 
ATOM     14  O   UNL     1       3.944   2.184  18.309  0.00  0.00    +0.000 OA
ATOM     15  N   UNL     1       3.042   4.079  19.187  0.00  0.00    +0.000 N 
ATOM     16  H   UNL     1       2.569   3.506  19.875  0.00  0.00    +0.000 HD
ENDBRANCH   2   5
BRANCH   3  17
ATOM     17  C   UNL     1       1.501   8.227  21.349  0.00  0.00    +0.000 C 
BRANCH  17  18
ATOM     18  C   UNL     1       0.729   9.477  20.889  0.00  0.00    +0.000 C 
ATOM     19  C   UNL     1       0.942   9.722  19.379  0.00  0.00    +0.000 C 
ATOM     20  N   UNL     1      -0.039  10.592  18.706  0.00  0.00    +0.000 NA
ATOM     21  C   UNL     1       0.184  12.025  18.927  0.00  0.00    +0.000 C 
ATOM     22  C   UNL     1       0.854  12.493  20.226  0.00  0.00    +0.000 C 
ATOM     23  C   UNL     1       0.395  11.776  21.486  0.00  0.00    +0.000 C 
ATOM     24  O   UNL     1       1.143  10.586  21.706  0.00  0.00    +0.000 OA
BRANCH  20  25
ATOM     25  C   UNL     1      -1.454  10.231  18.900  0.00  0.00    +0.000 C 
BRANCH  25  26
ATOM     26  C   UNL     1      -2.370  10.345  17.696  0.00  0.00    +0.000 A 
ATOM     27  C   UNL     1      -3.532  11.131  17.789  0.00  0.00    +0.000 A 
ATOM     28  C   UNL     1      -4.317  11.384  16.664  0.00  0.00    +0.000 A 
ATOM     29  C   UNL     1      -3.955  10.855  15.428  0.00  0.00    +0.000 A 
ATOM     30  C   UNL     1      -2.813  10.063  15.321  0.00  0.00    +0.000 A 
ATOM     31  C   UNL     1      -2.021   9.815  16.446  0.00  0.00    +0.000 A 
ENDBRANCH  25  26
ENDBRANCH  20  25
ENDBRANCH  17  18
ENDBRANCH   3  17
TORSDOF 5
ENDMDL
MODEL 2
REMARK VINA RESULT:      -8.6      2.534      9.004
REMARK  Name = 
REMARK  5 active torsions:
REMARK  status: ('A' for Active; 'I' for Inactive)
REMARK    1  A    between atoms: C_2  and  C_19
REMARK    2  A    between atoms: N_3  and  C_4
REMARK    3  A    between atoms: C_4  and  C_5
REMARK    4  A    between atoms: N_7  and  C_8
REMARK    5  A    between atoms: C_8  and  C_9
REMARK                            x       y       z     vdW  Elec       q    Type
REMARK                         _______ _______ _______ _____ _____    ______ ____
ROOT
ATOM      1  O   UNL     1       1.812   9.572  18.341  0.00  0.00    +0.000 OA
ATOM      2  C   UNL     1       1.364   9.030  19.343  0.00  0.00    +0.000 C 
ATOM      3  N   UNL     1       1.723   7.766  19.761  0.00  0.00    +0.000 N 
ATOM      4  H   UNL     1       1.431   7.439  20.668  0.00  0.00    +0.000 HD
ENDROOT
BRANCH   2   5
ATOM      5  C   UNL     1       0.464   9.747  20.307  0.00  0.00    +0.000 A 
ATOM      6  C   UNL     1      -0.376  10.669  19.809  0.00  0.00    +0.000 A 
ATOM      7  C   UNL     1      -1.054  11.585  20.729  0.00  0.00    +0.000 A 
ATOM      8  C   UNL     1      -1.737  12.704  20.244  0.00  0.00    +0.000 A 
ATOM      9  C   UNL     1      -2.192  13.682  21.132  0.00  0.00    +0.000 A 
ATOM     10  C   UNL     1      -2.001  13.529  22.507  0.00  0.00    +0.000 A 
ATOM     11  C   UNL     1      -1.376  12.385  23.004  0.00  0.00    +0.000 A 
ATOM     12  C   UNL     1      -0.896  11.421  22.113  0.00  0.00    +0.000 A 
ATOM     13  C   UNL     1      -0.122  10.256  22.611  0.00  0.00    +0.000 A 
ATOM     14  O   UNL     1      -0.063   9.977  23.803  0.00  0.00    +0.000 OA
ATOM     15  N   UNL     1       0.564   9.532  21.663  0.00  0.00    +0.000 N 
ATOM     16  H   UNL     1       1.111   8.754  22.010  0.00  0.00    +0.000 HD
ENDBRANCH   2   5
BRANCH   3  17
ATOM     17  C   UNL     1       2.856   7.069  19.170  0.00  0.00    +0.000 C 
BRANCH  17  18
ATOM     18  C   UNL     1       2.770   5.535  19.261  0.00  0.00    +0.000 C 
ATOM     19  C   UNL     1       2.246   4.940  17.935  0.00  0.00    +0.000 C 
ATOM     20  N   UNL     1       2.505   3.508  17.705  0.00  0.00    +0.000 NA
ATOM     21  C   UNL     1       1.589   2.613  18.420  0.00  0.00    +0.000 C 
ATOM     22  C   UNL     1       0.965   3.073  19.746  0.00  0.00    +0.000 C 
ATOM     23  C   UNL     1       1.910   3.807  20.685  0.00  0.00    +0.000 C 
ATOM     24  O   UNL     1       1.950   5.198  20.394  0.00  0.00    +0.000 OA
BRANCH  20  25
ATOM     25  C   UNL     1       3.906   3.078  17.860  0.00  0.00    +0.000 C 
BRANCH  25  26
ATOM     26  C   UNL     1       4.963   3.880  17.125  0.00  0.00    +0.000 A 
ATOM     27  C   UNL     1       6.035   4.431  17.849  0.00  0.00    +0.000 A 
ATOM     28  C   UNL     1       7.104   5.042  17.192  0.00  0.00    +0.000 A 
ATOM     29  C   UNL     1       7.118   5.114  15.802  0.00  0.00    +0.000 A 
ATOM     30  C   UNL     1       6.056   4.586  15.070  0.00  0.00    +0.000 A 
ATOM     31  C   UNL     1       4.989   3.965  15.726  0.00  0.00    +0.000 A 
ENDBRANCH  25  26
ENDBRANCH  20  25
ENDBRANCH  17  18
ENDBRANCH   3  17
TORSDOF 5
ENDMDL
MODEL 3
REMARK VINA RESULT:      -8.6      2.258      8.900
REMARK  Name = 
REMARK  5 active torsions:
REMARK  status: ('A' for Active; 'I' for Inactive)
REMARK    1  A    between atoms: C_2  and  C_19
REMARK    2  A    between atoms: N_3  and  C_4
REMARK    3  A    between atoms: C_4  and  C_5
REMARK    4  A    between atoms: N_7  and  C_8
REMARK    5  A    between atoms: C_8  and  C_9
REMARK                            x       y       z     vdW  Elec       q    Type
REMARK                         _______ _______ _______ _____ _____    ______ ____
ROOT
ATOM      1  O   UNL     1       2.047   9.016  17.285  0.00  0.00    +0.000 OA
ATOM      2  C   UNL     1       1.623   8.996  18.434  0.00  0.00    +0.000 C 
ATOM      3  N   UNL     1       2.028   8.086  19.388  0.00  0.00    +0.000 N 
ATOM      4  H   UNL     1       1.752   8.214  20.348  0.00  0.00    +0.000 HD
ENDROOT
BRANCH   2   5
ATOM      5  C   UNL     1       0.706  10.057  18.968  0.00  0.00    +0.000 A 
ATOM      6  C   UNL     1       0.735  10.302  20.287  0.00  0.00    +0.000 A 
ATOM      7  C   UNL     1      -0.331  11.110  20.884  0.00  0.00    +0.000 A 
ATOM      8  C   UNL     1      -0.476  11.183  22.273  0.00  0.00    +0.000 A 
ATOM      9  C   UNL     1      -1.615  11.774  22.826  0.00  0.00    +0.000 A 
ATOM     10  C   UNL     1      -2.594  12.327  21.997  0.00  0.00    +0.000 A 
ATOM     11  C   UNL     1      -2.427  12.314  20.612  0.00  0.00    +0.000 A 
ATOM     12  C   UNL     1      -1.301  11.698  20.060  0.00  0.00    +0.000 A 
ATOM     13  C   UNL     1      -1.163  11.565  18.587  0.00  0.00    +0.000 A 
ATOM     14  O   UNL     1      -1.893  12.169  17.809  0.00  0.00    +0.000 OA
ATOM     15  N   UNL     1      -0.196  10.692  18.144  0.00  0.00    +0.000 N 
ATOM     16  H   UNL     1      -0.122  10.585  17.140  0.00  0.00    +0.000 HD
ENDBRANCH   2   5
BRANCH   3  17
ATOM     17  C   UNL     1       3.179   7.224  19.169  0.00  0.00    +0.000 C 
BRANCH  17  18
ATOM     18  C   UNL     1       2.883   5.722  19.331  0.00  0.00    +0.000 C 
ATOM     19  C   UNL     1       2.252   5.150  18.042  0.00  0.00    +0.000 C 
ATOM     20  N   UNL     1       2.304   3.687  17.874  0.00  0.00    +0.000 NA
ATOM     21  C   UNL     1       1.288   2.961  18.643  0.00  0.00    +0.000 C 
ATOM     22  C   UNL     1       0.764   3.559  19.956  0.00  0.00    +0.000 C 
ATOM     23  C   UNL     1       1.823   4.194  20.846  0.00  0.00    +0.000 C 
ATOM     24  O   UNL     1       2.050   5.552  20.491  0.00  0.00    +0.000 OA
BRANCH  20  25
ATOM     25  C   UNL     1       3.634   3.073  18.025  0.00  0.00    +0.000 C 
BRANCH  25  26
ATOM     26  C   UNL     1       4.793   3.742  17.311  0.00  0.00    +0.000 A 
ATOM     27  C   UNL     1       5.875   4.231  18.065  0.00  0.00    +0.000 A 
ATOM     28  C   UNL     1       7.024   4.713  17.439  0.00  0.00    +0.000 A 
ATOM     29  C   UNL     1       7.112   4.717  16.049  0.00  0.00    +0.000 A 
ATOM     30  C   UNL     1       6.043   4.248  15.287  0.00  0.00    +0.000 A 
ATOM     31  C   UNL     1       4.894   3.757  15.913  0.00  0.00    +0.000 A 
ENDBRANCH  25  26
ENDBRANCH  20  25
ENDBRANCH  17  18
ENDBRANCH   3  17
TORSDOF 5
ENDMDL
MODEL 4
REMARK VINA RESULT:      -8.6      1.944      8.900
REMARK  Name = 
REMARK  5 active torsions:
REMARK  status: ('A' for Active; 'I' for Inactive)
REMARK    1  A    between atoms: C_2  and  C_19
REMARK    2  A    between atoms: N_3  and  C_4
REMARK    3  A    between atoms: C_4  and  C_5
REMARK    4  A    between atoms: N_7  and  C_8
REMARK    5  A    between atoms: C_8  and  C_9
REMARK                            x       y       z     vdW  Elec       q    Type
REMARK                         _______ _______ _______ _____ _____    ______ ____
ROOT
ATOM      1  O   UNL     1       2.210  10.452  17.883  0.00  0.00    +0.000 OA
ATOM      2  C   UNL     1       1.300   9.660  18.100  0.00  0.00    +0.000 C 
ATOM      3  N   UNL     1       1.480   8.300  18.241  0.00  0.00    +0.000 N 
ATOM      4  H   UNL     1       0.717   7.727  18.562  0.00  0.00    +0.000 HD
ENDROOT
BRANCH   2   5
ATOM      5  C   UNL     1      -0.105  10.111  18.372  0.00  0.00    +0.000 A 
ATOM      6  C   UNL     1      -1.056   9.752  17.496  0.00  0.00    +0.000 A 
ATOM      7  C   UNL     1      -2.367  10.402  17.563  0.00  0.00    +0.000 A 
ATOM      8  C   UNL     1      -3.296  10.241  16.530  0.00  0.00    +0.000 A 
ATOM      9  C   UNL     1      -4.448  11.030  16.498  0.00  0.00    +0.000 A 
ATOM     10  C   UNL     1      -4.697  11.955  17.514  0.00  0.00    +0.000 A 
ATOM     11  C   UNL     1      -3.807  12.078  18.582  0.00  0.00    +0.000 A 
ATOM     12  C   UNL     1      -2.641  11.308  18.598  0.00  0.00    +0.000 A 
ATOM     13  C   UNL     1      -1.621  11.509  19.660  0.00  0.00    +0.000 A 
ATOM     14  O   UNL     1      -1.851  12.176  20.662  0.00  0.00    +0.000 OA
ATOM     15  N   UNL     1      -0.389  10.940  19.434  0.00  0.00    +0.000 N 
ATOM     16  H   UNL     1       0.310  11.101  20.148  0.00  0.00    +0.000 HD
ENDBRANCH   2   5
BRANCH   3  17
ATOM     17  C   UNL     1       2.810   7.725  18.384  0.00  0.00    +0.000 C 
BRANCH  17  18
ATOM     18  C   UNL     1       2.821   6.302  18.970  0.00  0.00    +0.000 C 
ATOM     19  C   UNL     1       2.331   5.279  17.921  0.00  0.00    +0.000 C 
ATOM     20  N   UNL     1       2.680   3.867  18.162  0.00  0.00    +0.000 NA
ATOM     21  C   UNL     1       1.824   3.201  19.150  0.00  0.00    +0.000 C 
ATOM     22  C   UNL     1       1.178   4.029  20.270  0.00  0.00    +0.000 C 
ATOM     23  C   UNL     1       2.078   5.083  20.897  0.00  0.00    +0.000 C 
ATOM     24  O   UNL     1       2.029   6.305  20.170  0.00  0.00    +0.000 OA
BRANCH  20  25
ATOM     25  C   UNL     1       4.105   3.594  18.414  0.00  0.00    +0.000 C 
BRANCH  25  26
ATOM     26  C   UNL     1       5.098   4.083  17.377  0.00  0.00    +0.000 A 
ATOM     27  C   UNL     1       6.275   4.725  17.801  0.00  0.00    +0.000 A 
ATOM     28  C   UNL     1       7.281   5.051  16.892  0.00  0.00    +0.000 A 
ATOM     29  C   UNL     1       7.129   4.742  15.543  0.00  0.00    +0.000 A 
ATOM     30  C   UNL     1       5.963   4.118  15.103  0.00  0.00    +0.000 A 
ATOM     31  C   UNL     1       4.957   3.783  16.015  0.00  0.00    +0.000 A 
ENDBRANCH  25  26
ENDBRANCH  20  25
ENDBRANCH  17  18
ENDBRANCH   3  17
TORSDOF 5
ENDMDL
MODEL 5
REMARK VINA RESULT:      -8.4      2.913      9.186
REMARK  Name = 
REMARK  5 active torsions:
REMARK  status: ('A' for Active; 'I' for Inactive)
REMARK    1  A    between atoms: C_2  and  C_19
REMARK    2  A    between atoms: N_3  and  C_4
REMARK    3  A    between atoms: C_4  and  C_5
REMARK    4  A    between atoms: N_7  and  C_8
REMARK    5  A    between atoms: C_8  and  C_9
REMARK                            x       y       z     vdW  Elec       q    Type
REMARK                         _______ _______ _______ _____ _____    ______ ____
ROOT
ATOM      1  O   UNL     1       0.795   9.593  17.821  0.00  0.00    +0.000 OA
ATOM      2  C   UNL     1       1.124   9.480  18.996  0.00  0.00    +0.000 C 
ATOM      3  N   UNL     1       1.862   8.425  19.491  0.00  0.00    +0.000 N 
ATOM      4  H   UNL     1       2.222   8.466  20.430  0.00  0.00    +0.000 HD
ENDROOT
BRANCH   2   5
ATOM      5  C   UNL     1       0.868  10.560  20.006  0.00  0.00    +0.000 A 
ATOM      6  C   UNL     1       0.112  10.251  21.072  0.00  0.00    +0.000 A 
ATOM      7  C   UNL     1      -0.398  11.332  21.919  0.00  0.00    +0.000 A 
ATOM      8  C   UNL     1      -1.379  11.078  22.883  0.00  0.00    +0.000 A 
ATOM      9  C   UNL     1      -2.011  12.142  23.532  0.00  0.00    +0.000 A 
ATOM     10  C   UNL     1      -1.640  13.459  23.251  0.00  0.00    +0.000 A 
ATOM     11  C   UNL     1      -0.618  13.718  22.337  0.00  0.00    +0.000 A 
ATOM     12  C   UNL     1      -0.007  12.655  21.667  0.00  0.00    +0.000 A 
ATOM     13  C   UNL     1       0.997  12.913  20.603  0.00  0.00    +0.000 A 
ATOM     14  O   UNL     1       1.484  14.024  20.426  0.00  0.00    +0.000 OA
ATOM     15  N   UNL     1       1.317  11.844  19.798  0.00  0.00    +0.000 N 
ATOM     16  H   UNL     1       1.983  12.031  19.058  0.00  0.00    +0.000 HD
ENDBRANCH   2   5
BRANCH   3  17
ATOM     17  C   UNL     1       2.519   7.480  18.600  0.00  0.00    +0.000 C 
BRANCH  17  18
ATOM     18  C   UNL     1       2.612   6.049  19.158  0.00  0.00    +0.000 C 
ATOM     19  C   UNL     1       2.212   5.018  18.080  0.00  0.00    +0.000 C 
ATOM     20  N   UNL     1       2.647   3.627  18.300  0.00  0.00    +0.000 NA
ATOM     21  C   UNL     1       1.817   2.886  19.256  0.00  0.00    +0.000 C 
ATOM     22  C   UNL     1       1.096   3.647  20.378  0.00  0.00    +0.000 C 
ATOM     23  C   UNL     1       1.912   4.744  21.045  0.00  0.00    +0.000 C 
ATOM     24  O   UNL     1       1.797   5.974  20.341  0.00  0.00    +0.000 OA
BRANCH  20  25
ATOM     25  C   UNL     1       4.082   3.442  18.577  0.00  0.00    +0.000 C 
BRANCH  25  26
ATOM     26  C   UNL     1       5.061   3.979  17.550  0.00  0.00    +0.000 A 
ATOM     27  C   UNL     1       6.249   4.591  17.988  0.00  0.00    +0.000 A 
ATOM     28  C   UNL     1       7.242   4.958  17.080  0.00  0.00    +0.000 A 
ATOM     29  C   UNL     1       7.064   4.722  15.719  0.00  0.00    +0.000 A 
ATOM     30  C   UNL     1       5.887   4.129  15.267  0.00  0.00    +0.000 A 
ATOM     31  C   UNL     1       4.894   3.753  16.177  0.00  0.00    +0.000 A 
ENDBRANCH  25  26
ENDBRANCH  20  25
ENDBRANCH  17  18
ENDBRANCH   3  17
TORSDOF 5
ENDMDL
MODEL 6
REMARK VINA RESULT:      -8.4      2.451      3.720
REMARK  Name = 
REMARK  5 active torsions:
REMARK  status: ('A' for Active; 'I' for Inactive)
REMARK    1  A    between atoms: C_2  and  C_19
REMARK    2  A    between atoms: N_3  and  C_4
REMARK    3  A    between atoms: C_4  and  C_5
REMARK    4  A    between atoms: N_7  and  C_8
REMARK    5  A    between atoms: C_8  and  C_9
REMARK                            x       y       z     vdW  Elec       q    Type
REMARK                         _______ _______ _______ _____ _____    ______ ____
ROOT
ATOM      1  O   UNL     1       1.788   9.576  22.850  0.00  0.00    +0.000 OA
ATOM      2  C   UNL     1       0.968   9.191  22.025  0.00  0.00    +0.000 C 
ATOM      3  N   UNL     1      -0.383   9.458  22.102  0.00  0.00    +0.000 N 
ATOM      4  H   UNL     1      -0.979   9.240  21.320  0.00  0.00    +0.000 HD
ENDROOT
BRANCH   2   5
ATOM      5  C   UNL     1       1.372   8.495  20.760  0.00  0.00    +0.000 A 
ATOM      6  C   UNL     1       1.711   7.198  20.841  0.00  0.00    +0.000 A 
ATOM      7  C   UNL     1       2.380   6.564  19.703  0.00  0.00    +0.000 A 
ATOM      8  C   UNL     1       2.964   5.301  19.834  0.00  0.00    +0.000 A 
ATOM      9  C   UNL     1       3.781   4.801  18.817  0.00  0.00    +0.000 A 
ATOM     10  C   UNL     1       3.987   5.542  17.651  0.00  0.00    +0.000 A 
ATOM     11  C   UNL     1       3.356   6.776  17.484  0.00  0.00    +0.000 A 
ATOM     12  C   UNL     1       2.562   7.287  18.515  0.00  0.00    +0.000 A 
ATOM     13  C   UNL     1       1.981   8.650  18.410  0.00  0.00    +0.000 A 
ATOM     14  O   UNL     1       1.983   9.278  17.358  0.00  0.00    +0.000 OA
ATOM     15  N   UNL     1       1.479   9.186  19.574  0.00  0.00    +0.000 N 
ATOM     16  H   UNL     1       1.106  10.125  19.504  0.00  0.00    +0.000 HD
ENDBRANCH   2   5
BRANCH   3  17
ATOM     17  C   UNL     1      -0.908  10.431  23.048  0.00  0.00    +0.000 C 
BRANCH  17  18
ATOM     18  C   UNL     1      -1.680  11.592  22.395  0.00  0.00    +0.000 C 
ATOM     19  C   UNL     1      -0.941  12.095  21.135  0.00  0.00    +0.000 C 
ATOM     20  N   UNL     1      -1.733  12.884  20.175  0.00  0.00    +0.000 NA
ATOM     21  C   UNL     1      -1.926  14.284  20.569  0.00  0.00    +0.000 C 
ATOM     22  C   UNL     1      -1.944  14.653  22.059  0.00  0.00    +0.000 C 
ATOM     23  C   UNL     1      -2.703  13.687  22.956  0.00  0.00    +0.000 C 
ATOM     24  O   UNL     1      -1.870  12.617  23.386  0.00  0.00    +0.000 OA
BRANCH  20  25
ATOM     25  C   UNL     1      -2.996  12.271  19.731  0.00  0.00    +0.000 C 
BRANCH  25  26
ATOM     26  C   UNL     1      -2.951  11.421  18.476  0.00  0.00    +0.000 A 
ATOM     27  C   UNL     1      -3.908  11.633  17.468  0.00  0.00    +0.000 A 
ATOM     28  C   UNL     1      -3.810  10.982  16.238  0.00  0.00    +0.000 A 
ATOM     29  C   UNL     1      -2.755  10.107  15.995  0.00  0.00    +0.000 A 
ATOM     30  C   UNL     1      -1.805   9.875  16.989  0.00  0.00    +0.000 A 
ATOM     31  C   UNL     1      -1.897  10.533  18.218  0.00  0.00    +0.000 A 
ENDBRANCH  25  26
ENDBRANCH  20  25
ENDBRANCH  17  18
ENDBRANCH   3  17
TORSDOF 5
ENDMDL
MODEL 7
REMARK VINA RESULT:      -8.3      2.528      9.023
REMARK  Name = 
REMARK  5 active torsions:
REMARK  status: ('A' for Active; 'I' for Inactive)
REMARK    1  A    between atoms: C_2  and  C_19
REMARK    2  A    between atoms: N_3  and  C_4
REMARK    3  A    between atoms: C_4  and  C_5
REMARK    4  A    between atoms: N_7  and  C_8
REMARK    5  A    between atoms: C_8  and  C_9
REMARK                            x       y       z     vdW  Elec       q    Type
REMARK                         _______ _______ _______ _____ _____    ______ ____
ROOT
ATOM      1  O   UNL     1       1.084   9.632  17.866  0.00  0.00    +0.000 OA
ATOM      2  C   UNL     1       0.968   9.336  19.049  0.00  0.00    +0.000 C 
ATOM      3  N   UNL     1       1.589   8.254  19.637  0.00  0.00    +0.000 N 
ATOM      4  H   UNL     1       1.571   8.152  20.638  0.00  0.00    +0.000 HD
ENDROOT
BRANCH   2   5
ATOM      5  C   UNL     1       0.234  10.209  20.024  0.00  0.00    +0.000 A 
ATOM      6  C   UNL     1      -0.365  11.312  19.546  0.00  0.00    +0.000 A 
ATOM      7  C   UNL     1      -0.837  12.330  20.488  0.00  0.00    +0.000 A 
ATOM      8  C   UNL     1      -1.240  13.589  20.032  0.00  0.00    +0.000 A 
ATOM      9  C   UNL     1      -1.480  14.617  20.946  0.00  0.00    +0.000 A 
ATOM     10  C   UNL     1      -1.358  14.384  22.318  0.00  0.00    +0.000 A 
ATOM     11  C   UNL     1      -1.018  13.113  22.784  0.00  0.00    +0.000 A 
ATOM     12  C   UNL     1      -0.750  12.093  21.867  0.00  0.00    +0.000 A 
ATOM     13  C   UNL     1      -0.270  10.768  22.336  0.00  0.00    +0.000 A 
ATOM     14  O   UNL     1      -0.301  10.447  23.519  0.00  0.00    +0.000 OA
ATOM     15  N   UNL     1       0.254   9.937  21.373  0.00  0.00    +0.000 N 
ATOM     16  H   UNL     1       0.603   9.044  21.701  0.00  0.00    +0.000 HD
ENDBRANCH   2   5
BRANCH   3  17
ATOM     17  C   UNL     1       2.633   7.514  18.943  0.00  0.00    +0.000 C 
BRANCH  17  18
ATOM     18  C   UNL     1       2.652   6.008  19.256  0.00  0.00    +0.000 C 
ATOM     19  C   UNL     1       2.298   5.186  17.996  0.00  0.00    +0.000 C 
ATOM     20  N   UNL     1       2.682   3.763  18.005  0.00  0.00    +0.000 NA
ATOM     21  C   UNL     1       1.771   2.904  18.770  0.00  0.00    +0.000 C 
ATOM     22  C   UNL     1       0.997   3.493  19.957  0.00  0.00    +0.000 C 
ATOM     23  C   UNL     1       1.795   4.433  20.849  0.00  0.00    +0.000 C 
ATOM     24  O   UNL     1       1.759   5.767  20.357  0.00  0.00    +0.000 OA
BRANCH  20  25
ATOM     25  C   UNL     1       4.090   3.483  18.334  0.00  0.00    +0.000 C 
BRANCH  25  26
ATOM     26  C   UNL     1       5.145   4.039  17.397  0.00  0.00    +0.000 A 
ATOM     27  C   UNL     1       5.009   3.840  16.012  0.00  0.00    +0.000 A 
ATOM     28  C   UNL     1       5.871   4.464  15.110  0.00  0.00    +0.000 A 
ATOM     29  C   UNL     1       6.885   5.296  15.577  0.00  0.00    +0.000 A 
ATOM     30  C   UNL     1       7.043   5.493  16.948  0.00  0.00    +0.000 A 
ATOM     31  C   UNL     1       6.174   4.876  17.852  0.00  0.00    +0.000 A 
ENDBRANCH  25  26
ENDBRANCH  20  25
ENDBRANCH  17  18
ENDBRANCH   3  17
TORSDOF 5
ENDMDL
MODEL 8
REMARK VINA RESULT:      -8.3      2.365      3.520
REMARK  Name = 
REMARK  5 active torsions:
REMARK  status: ('A' for Active; 'I' for Inactive)
REMARK    1  A    between atoms: C_2  and  C_19
REMARK    2  A    between atoms: N_3  and  C_4
REMARK    3  A    between atoms: C_4  and  C_5
REMARK    4  A    between atoms: N_7  and  C_8
REMARK    5  A    between atoms: C_8  and  C_9
REMARK                            x       y       z     vdW  Elec       q    Type
REMARK                         _______ _______ _______ _____ _____    ______ ____
ROOT
ATOM      1  O   UNL     1       1.970   9.367  22.805  0.00  0.00    +0.000 OA
ATOM      2  C   UNL     1       1.125   8.915  22.041  0.00  0.00    +0.000 C 
ATOM      3  N   UNL     1      -0.230   9.135  22.175  0.00  0.00    +0.000 N 
ATOM      4  H   UNL     1      -0.854   8.860  21.434  0.00  0.00    +0.000 HD
ENDROOT
BRANCH   2   5
ATOM      5  C   UNL     1       1.493   8.176  20.788  0.00  0.00    +0.000 A 
ATOM      6  C   UNL     1       1.765   6.866  20.893  0.00  0.00    +0.000 A 
ATOM      7  C   UNL     1       2.401   6.178  19.767  0.00  0.00    +0.000 A 
ATOM      8  C   UNL     1       2.919   4.889  19.920  0.00  0.00    +0.000 A 
ATOM      9  C   UNL     1       3.710   4.330  18.913  0.00  0.00    +0.000 A 
ATOM     10  C   UNL     1       3.954   5.039  17.735  0.00  0.00    +0.000 A 
ATOM     11  C   UNL     1       3.388   6.300  17.546  0.00  0.00    +0.000 A 
ATOM     12  C   UNL     1       2.621   6.870  18.567  0.00  0.00    +0.000 A 
ATOM     13  C   UNL     1       2.110   8.259  18.438  0.00  0.00    +0.000 A 
ATOM     14  O   UNL     1       2.145   8.867  17.375  0.00  0.00    +0.000 OA
ATOM     15  N   UNL     1       1.636   8.840  19.591  0.00  0.00    +0.000 N 
ATOM     16  H   UNL     1       1.312   9.796  19.504  0.00  0.00    +0.000 HD
ENDBRANCH   2   5
BRANCH   3  17
ATOM     17  C   UNL     1      -0.745  10.130  23.103  0.00  0.00    +0.000 C 
BRANCH  17  18
ATOM     18  C   UNL     1      -1.220  11.431  22.431  0.00  0.00    +0.000 C 
ATOM     19  C   UNL     1      -0.470  11.662  21.100  0.00  0.00    +0.000 C 
ATOM     20  N   UNL     1      -1.089  12.599  20.146  0.00  0.00    +0.000 NA
ATOM     21  C   UNL     1      -0.866  14.013  20.469  0.00  0.00    +0.000 C 
ATOM     22  C   UNL     1      -0.670  14.432  21.932  0.00  0.00    +0.000 C 
ATOM     23  C   UNL     1      -1.592  13.748  22.930  0.00  0.00    +0.000 C 
ATOM     24  O   UNL     1      -1.051  12.508  23.369  0.00  0.00    +0.000 OA
BRANCH  20  25
ATOM     25  C   UNL     1      -2.501  12.339  19.819  0.00  0.00    +0.000 C 
BRANCH  25  26
ATOM     26  C   UNL     1      -2.792  11.659  18.494  0.00  0.00    +0.000 A 
ATOM     27  C   UNL     1      -1.820  10.817  17.926  0.00  0.00    +0.000 A 
ATOM     28  C   UNL     1      -2.105  10.056  16.792  0.00  0.00    +0.000 A 
ATOM     29  C   UNL     1      -3.366  10.125  16.206  0.00  0.00    +0.000 A 
ATOM     30  C   UNL     1      -4.337  10.965  16.748  0.00  0.00    +0.000 A 
ATOM     31  C   UNL     1      -4.055  11.722  17.889  0.00  0.00    +0.000 A 
ENDBRANCH  25  26
ENDBRANCH  20  25
ENDBRANCH  17  18
ENDBRANCH   3  17
TORSDOF 5
ENDMDL
MODEL 9
REMARK VINA RESULT:      -8.2      1.975      8.944
REMARK  Name = 
REMARK  5 active torsions:
REMARK  status: ('A' for Active; 'I' for Inactive)
REMARK    1  A    between atoms: C_2  and  C_19
REMARK    2  A    between atoms: N_3  and  C_4
REMARK    3  A    between atoms: C_4  and  C_5
REMARK    4  A    between atoms: N_7  and  C_8
REMARK    5  A    between atoms: C_8  and  C_9
REMARK                            x       y       z     vdW  Elec       q    Type
REMARK                         _______ _______ _______ _____ _____    ______ ____
ROOT
ATOM      1  O   UNL     1       0.784  11.355  20.528  0.00  0.00    +0.000 OA
ATOM      2  C   UNL     1       0.248  10.577  19.749  0.00  0.00    +0.000 C 
ATOM      3  N   UNL     1       0.596   9.249  19.625  0.00  0.00    +0.000 N 
ATOM      4  H   UNL     1       0.021   8.632  19.075  0.00  0.00    +0.000 HD
ENDROOT
BRANCH   2   5
ATOM      5  C   UNL     1      -0.949  10.963  18.930  0.00  0.00    +0.000 A 
ATOM      6  C   UNL     1      -1.890  11.718  19.518  0.00  0.00    +0.000 A 
ATOM      7  C   UNL     1      -3.191  11.873  18.862  0.00  0.00    +0.000 A 
ATOM      8  C   UNL     1      -4.271  12.439  19.546  0.00  0.00    +0.000 A 
ATOM      9  C   UNL     1      -5.552  12.385  18.994  0.00  0.00    +0.000 A 
ATOM     10  C   UNL     1      -5.755  11.802  17.741  0.00  0.00    +0.000 A 
ATOM     11  C   UNL     1      -4.673  11.291  17.023  0.00  0.00    +0.000 A 
ATOM     12  C   UNL     1      -3.396  11.320  17.590  0.00  0.00    +0.000 A 
ATOM     13  C   UNL     1      -2.251  10.674  16.897  0.00  0.00    +0.000 A 
ATOM     14  O   UNL     1      -2.325  10.297  15.734  0.00  0.00    +0.000 OA
ATOM     15  N   UNL     1      -1.116  10.483  17.651  0.00  0.00    +0.000 N 
ATOM     16  H   UNL     1      -0.347  10.020  17.182  0.00  0.00    +0.000 HD
ENDBRANCH   2   5
BRANCH   3  17
ATOM     17  C   UNL     1       1.471   8.604  20.594  0.00  0.00    +0.000 C 
BRANCH  17  18
ATOM     18  C   UNL     1       2.137   7.315  20.081  0.00  0.00    +0.000 C 
ATOM     19  C   UNL     1       1.990   7.200  18.548  0.00  0.00    +0.000 C 
ATOM     20  N   UNL     1       2.915   6.279  17.862  0.00  0.00    +0.000 NA
ATOM     21  C   UNL     1       2.534   4.866  17.962  0.00  0.00    +0.000 C 
ATOM     22  C   UNL     1       1.743   4.382  19.186  0.00  0.00    +0.000 C 
ATOM     23  C   UNL     1       2.197   4.957  20.519  0.00  0.00    +0.000 C 
ATOM     24  O   UNL     1       1.563   6.201  20.789  0.00  0.00    +0.000 OA
BRANCH  20  25
ATOM     25  C   UNL     1       4.345   6.473  18.156  0.00  0.00    +0.000 C 
BRANCH  25  26
ATOM     26  C   UNL     1       5.341   5.895  17.169  0.00  0.00    +0.000 A 
ATOM     27  C   UNL     1       6.415   5.124  17.647  0.00  0.00    +0.000 A 
ATOM     28  C   UNL     1       7.261   4.450  16.767  0.00  0.00    +0.000 A 
ATOM     29  C   UNL     1       7.049   4.536  15.393  0.00  0.00    +0.000 A 
ATOM     30  C   UNL     1       5.997   5.306  14.902  0.00  0.00    +0.000 A 
ATOM     31  C   UNL     1       5.143   5.975  15.783  0.00  0.00    +0.000 A 
ENDBRANCH  25  26
ENDBRANCH  20  25
ENDBRANCH  17  18
ENDBRANCH   3  17
TORSDOF 5
ENDMDL
