MODEL 1
REMARK VINA RESULT:      -8.5      0.000      0.000
REMARK  Name = 
REMARK  2 active torsions:
REMARK  status: ('A' for Active; 'I' for Inactive)
REMARK    1  A    between atoms: C_2  and  C_3
REMARK    2  A    between atoms: C_3  and  N_4
REMARK                            x       y       z     vdW  Elec       q    Type
REMARK                         _______ _______ _______ _____ _____    ______ ____
ROOT
ATOM      1  O   UNL     1       2.201   9.984  17.466  0.00  0.00    +0.000 OA
ATOM      2  C   UNL     1       2.179   8.941  18.133  0.00  0.00    +0.000 C 
ATOM      3  N   UNL     1       3.014   7.923  17.771  0.00  0.00    +0.000 N 
ATOM      4  C   UNL     1       3.109   6.650  18.331  0.00  0.00    +0.000 A 
ATOM      5  C   UNL     1       4.249   5.910  18.062  0.00  0.00    +0.000 A 
ATOM      6  C   UNL     1       4.412   4.683  18.698  0.00  0.00    +0.000 A 
ATOM      7  C   UNL     1       3.410   4.205  19.548  0.00  0.00    +0.000 A 
ATOM      8  C   UNL     1       3.526   2.980  20.227  0.00  0.00    +0.000 A 
ATOM      9  C   UNL     1       2.491   2.526  21.042  0.00  0.00    +0.000 A 
ATOM     10  C   UNL     1       1.340   3.296  21.184  0.00  0.00    +0.000 A 
ATOM     11  C   UNL     1       1.238   4.523  20.526  0.00  0.00    +0.000 A 
ATOM     12  C   UNL     1       2.258   4.998  19.714  0.00  0.00    +0.000 A 
ATOM     13  N   UNL     1       2.124   6.195  19.126  0.00  0.00    +0.000 NA
ATOM     14  H   UNL     1       3.632   8.159  17.007  0.00  0.00    +0.000 HD
ENDROOT
BRANCH   2  15
ATOM     15  C   UNL     1       1.285   8.824  19.364  0.00  0.00    +0.000 C 
BRANCH  15  16
ATOM     16  N   UNL     1       0.538   9.997  19.777  0.00  0.00    +0.000 N 
ATOM     17  C   UNL     1       0.712  10.551  21.011  0.00  0.00    +0.000 C 
ATOM     18  O   UNL     1       1.365  10.078  21.930  0.00  0.00    +0.000 OA
ATOM     19  C   UNL     1       0.035  11.901  21.040  0.00  0.00    +0.000 C 
ATOM     20  C   UNL     1      -0.687  12.186  22.354  0.00  0.00    +0.000 C 
ATOM     21  C   UNL     1      -2.169  12.339  22.267  0.00  0.00    +0.000 C 
ATOM     22  C   UNL     1      -2.854  12.381  21.122  0.00  0.00    +0.000 C 
ATOM     23  C   UNL     1      -2.237  12.281  19.766  0.00  0.00    +0.000 C 
ATOM     24  C   UNL     1      -0.750  11.943  19.730  0.00  0.00    +0.000 C 
ATOM     25  C   UNL     1      -0.463  10.605  19.081  0.00  0.00    +0.000 C 
ATOM     26  O   UNL     1      -1.020  10.201  18.072  0.00  0.00    +0.000 OA
ENDBRANCH  15  16
ENDBRANCH   2  15
TORSDOF 2
ENDMDL
MODEL 2
REMARK VINA RESULT:      -8.2      3.673      7.684
REMARK  Name = 
REMARK  2 active torsions:
REMARK  status: ('A' for Active; 'I' for Inactive)
REMARK    1  A    between atoms: C_2  and  C_3
REMARK    2  A    between atoms: C_3  and  N_4
REMARK                            x       y       z     vdW  Elec       q    Type
REMARK                         _______ _______ _______ _____ _____    ______ ____
ROOT
ATOM      1  O   UNL     1       3.570   1.942  17.760  0.00  0.00    +0.000 OA
ATOM      2  C   UNL     1       3.371   3.159  17.868  0.00  0.00    +0.000 C 
ATOM      3  N   UNL     1       2.728   3.614  18.984  0.00  0.00    +0.000 N 
ATOM      4  C   UNL     1       2.345   4.920  19.281  0.00  0.00    +0.000 A 
ATOM      5  C   UNL     1       2.038   5.219  20.599  0.00  0.00    +0.000 A 
ATOM      6  C   UNL     1       1.758   6.540  20.935  0.00  0.00    +0.000 A 
ATOM      7  C   UNL     1       1.744   7.521  19.938  0.00  0.00    +0.000 A 
ATOM      8  C   UNL     1       1.481   8.872  20.221  0.00  0.00    +0.000 A 
ATOM      9  C   UNL     1       1.447   9.812  19.192  0.00  0.00    +0.000 A 
ATOM     10  C   UNL     1       1.678   9.406  17.882  0.00  0.00    +0.000 A 
ATOM     11  C   UNL     1       1.961   8.066  17.608  0.00  0.00    +0.000 A 
ATOM     12  C   UNL     1       2.007   7.114  18.616  0.00  0.00    +0.000 A 
ATOM     13  N   UNL     1       2.311   5.845  18.306  0.00  0.00    +0.000 NA
ATOM     14  H   UNL     1       2.531   2.889  19.660  0.00  0.00    +0.000 HD
ENDROOT
BRANCH   2  15
ATOM     15  C   UNL     1       3.888   4.129  16.810  0.00  0.00    +0.000 C 
BRANCH  15  16
ATOM     16  N   UNL     1       5.182   4.748  17.027  0.00  0.00    +0.000 N 
ATOM     17  C   UNL     1       5.956   4.415  18.100  0.00  0.00    +0.000 C 
ATOM     18  O   UNL     1       5.623   3.711  19.042  0.00  0.00    +0.000 OA
ATOM     19  C   UNL     1       7.338   4.991  17.902  0.00  0.00    +0.000 C 
ATOM     20  C   UNL     1       7.946   5.559  19.181  0.00  0.00    +0.000 C 
ATOM     21  C   UNL     1       8.208   7.028  19.186  0.00  0.00    +0.000 C 
ATOM     22  C   UNL     1       8.079   7.817  18.116  0.00  0.00    +0.000 C 
ATOM     23  C   UNL     1       7.654   7.345  16.766  0.00  0.00    +0.000 C 
ATOM     24  C   UNL     1       7.184   5.896  16.680  0.00  0.00    +0.000 C 
ATOM     25  C   UNL     1       5.723   5.767  16.304  0.00  0.00    +0.000 C 
ATOM     26  O   UNL     1       5.175   6.447  15.451  0.00  0.00    +0.000 OA
ENDBRANCH  15  16
ENDBRANCH   2  15
TORSDOF 2
ENDMDL
MODEL 3
REMARK VINA RESULT:      -8.1      1.199      1.518
REMARK  Name = 
REMARK  2 active torsions:
REMARK  status: ('A' for Active; 'I' for Inactive)
REMARK    1  A    between atoms: C_2  and  C_3
REMARK    2  A    between atoms: C_3  and  N_4
REMARK                            x       y       z     vdW  Elec       q    Type
REMARK                         _______ _______ _______ _____ _____    ______ ____
ROOT
ATOM      1  O   UNL     1       2.581   9.698  17.133  0.00  0.00    +0.000 OA
ATOM      2  C   UNL     1       2.423   8.636  17.749  0.00  0.00    +0.000 C 
ATOM      3  N   UNL     1       3.436   7.721  17.733  0.00  0.00    +0.000 N 
ATOM      4  C   UNL     1       3.451   6.446  18.296  0.00  0.00    +0.000 A 
ATOM      5  C   UNL     1       4.681   5.835  18.478  0.00  0.00    +0.000 A 
ATOM      6  C   UNL     1       4.725   4.610  19.137  0.00  0.00    +0.000 A 
ATOM      7  C   UNL     1       3.535   4.004  19.553  0.00  0.00    +0.000 A 
ATOM      8  C   UNL     1       3.520   2.774  20.234  0.00  0.00    +0.000 A 
ATOM      9  C   UNL     1       2.310   2.191  20.604  0.00  0.00    +0.000 A 
ATOM     10  C   UNL     1       1.114   2.834  20.300  0.00  0.00    +0.000 A 
ATOM     11  C   UNL     1       1.135   4.066  19.643  0.00  0.00    +0.000 A 
ATOM     12  C   UNL     1       2.327   4.670  19.270  0.00  0.00    +0.000 A 
ATOM     13  N   UNL     1       2.295   5.867  18.667  0.00  0.00    +0.000 NA
ATOM     14  H   UNL     1       4.266   8.045  17.255  0.00  0.00    +0.000 HD
ENDROOT
BRANCH   2  15
ATOM     15  C   UNL     1       1.152   8.387  18.556  0.00  0.00    +0.000 C 
BRANCH  15  16
ATOM     16  N   UNL     1       0.910   9.219  19.719  0.00  0.00    +0.000 N 
ATOM     17  C   UNL     1       0.901   8.693  20.978  0.00  0.00    +0.000 C 
ATOM     18  O   UNL     1       0.941   7.506  21.267  0.00  0.00    +0.000 OA
ATOM     19  C   UNL     1       0.919   9.824  21.980  0.00  0.00    +0.000 C 
ATOM     20  C   UNL     1       0.015   9.579  23.184  0.00  0.00    +0.000 C 
ATOM     21  C   UNL     1      -1.130  10.521  23.346  0.00  0.00    +0.000 C 
ATOM     22  C   UNL     1      -1.315  11.614  22.602  0.00  0.00    +0.000 C 
ATOM     23  C   UNL     1      -0.404  12.050  21.503  0.00  0.00    +0.000 C 
ATOM     24  C   UNL     1       0.703  11.072  21.124  0.00  0.00    +0.000 C 
ATOM     25  C   UNL     1       0.565  10.537  19.714  0.00  0.00    +0.000 C 
ATOM     26  O   UNL     1       0.246  11.218  18.752  0.00  0.00    +0.000 OA
ENDBRANCH  15  16
ENDBRANCH   2  15
TORSDOF 2
ENDMDL
MODEL 4
REMARK VINA RESULT:      -7.9      6.010      8.420
REMARK  Name = 
REMARK  2 active torsions:
REMARK  status: ('A' for Active; 'I' for Inactive)
REMARK    1  A    between atoms: C_2  and  C_3
REMARK    2  A    between atoms: C_3  and  N_4
REMARK                            x       y       z     vdW  Elec       q    Type
REMARK                         _______ _______ _______ _____ _____    ______ ____
ROOT
ATOM      1  O   UNL     1       4.573   6.201  17.576  0.00  0.00    +0.000 OA
ATOM      2  C   UNL     1       4.865   5.457  16.631  0.00  0.00    +0.000 C 
ATOM      3  N   UNL     1       5.829   5.870  15.755  0.00  0.00    +0.000 N 
ATOM      4  C   UNL     1       6.266   5.232  14.596  0.00  0.00    +0.000 A 
ATOM      5  C   UNL     1       7.481   5.628  14.061  0.00  0.00    +0.000 A 
ATOM      6  C   UNL     1       7.986   4.930  12.968  0.00  0.00    +0.000 A 
ATOM      7  C   UNL     1       7.242   3.887  12.407  0.00  0.00    +0.000 A 
ATOM      8  C   UNL     1       7.708   3.139  11.312  0.00  0.00    +0.000 A 
ATOM      9  C   UNL     1       6.921   2.127  10.766  0.00  0.00    +0.000 A 
ATOM     10  C   UNL     1       5.671   1.857  11.313  0.00  0.00    +0.000 A 
ATOM     11  C   UNL     1       5.221   2.587  12.416  0.00  0.00    +0.000 A 
ATOM     12  C   UNL     1       5.990   3.595  12.981  0.00  0.00    +0.000 A 
ATOM     13  N   UNL     1       5.526   4.248  14.056  0.00  0.00    +0.000 NA
ATOM     14  H   UNL     1       6.265   6.744  16.017  0.00  0.00    +0.000 HD
ENDROOT
BRANCH   2  15
ATOM     15  C   UNL     1       4.207   4.088  16.486  0.00  0.00    +0.000 C 
BRANCH  15  16
ATOM     16  N   UNL     1       3.600   3.498  17.664  0.00  0.00    +0.000 N 
ATOM     17  C   UNL     1       2.246   3.376  17.779  0.00  0.00    +0.000 C 
ATOM     18  O   UNL     1       1.410   3.853  17.025  0.00  0.00    +0.000 OA
ATOM     19  C   UNL     1       1.934   2.476  18.951  0.00  0.00    +0.000 C 
ATOM     20  C   UNL     1       0.741   2.950  19.775  0.00  0.00    +0.000 C 
ATOM     21  C   UNL     1       1.032   3.344  21.185  0.00  0.00    +0.000 C 
ATOM     22  C   UNL     1       2.214   3.173  21.783  0.00  0.00    +0.000 C 
ATOM     23  C   UNL     1       3.410   2.565  21.130  0.00  0.00    +0.000 C 
ATOM     24  C   UNL     1       3.288   2.287  19.635  0.00  0.00    +0.000 C 
ATOM     25  C   UNL     1       4.245   3.111  18.799  0.00  0.00    +0.000 C 
ATOM     26  O   UNL     1       5.409   3.324  19.103  0.00  0.00    +0.000 OA
ENDBRANCH  15  16
ENDBRANCH   2  15
TORSDOF 2
ENDMDL
MODEL 5
REMARK VINA RESULT:      -7.9      2.089      7.220
REMARK  Name = 
REMARK  2 active torsions:
REMARK  status: ('A' for Active; 'I' for Inactive)
REMARK    1  A    between atoms: C_2  and  C_3
REMARK    2  A    between atoms: C_3  and  N_4
REMARK                            x       y       z     vdW  Elec       q    Type
REMARK                         _______ _______ _______ _____ _____    ______ ____
ROOT
ATOM      1  O   UNL     1       3.470   8.007  16.633  0.00  0.00    +0.000 OA
ATOM      2  C   UNL     1       2.829   8.198  17.675  0.00  0.00    +0.000 C 
ATOM      3  N   UNL     1       1.949   9.242  17.712  0.00  0.00    +0.000 N 
ATOM      4  C   UNL     1       1.180   9.678  18.789  0.00  0.00    +0.000 A 
ATOM      5  C   UNL     1       0.103  10.507  18.520  0.00  0.00    +0.000 A 
ATOM      6  C   UNL     1      -0.741  10.865  19.567  0.00  0.00    +0.000 A 
ATOM      7  C   UNL     1      -0.459  10.426  20.865  0.00  0.00    +0.000 A 
ATOM      8  C   UNL     1      -1.283  10.745  21.957  0.00  0.00    +0.000 A 
ATOM      9  C   UNL     1      -0.950  10.312  23.239  0.00  0.00    +0.000 A 
ATOM     10  C   UNL     1       0.203   9.556  23.432  0.00  0.00    +0.000 A 
ATOM     11  C   UNL     1       1.007   9.222  22.340  0.00  0.00    +0.000 A 
ATOM     12  C   UNL     1       0.691   9.637  21.054  0.00  0.00    +0.000 A 
ATOM     13  N   UNL     1       1.479   9.266  20.034  0.00  0.00    +0.000 NA
ATOM     14  H   UNL     1       1.862   9.728  16.831  0.00  0.00    +0.000 HD
ENDROOT
BRANCH   2  15
ATOM     15  C   UNL     1       2.977   7.252  18.863  0.00  0.00    +0.000 C 
BRANCH  15  16
ATOM     16  N   UNL     1       2.591   5.866  18.681  0.00  0.00    +0.000 N 
ATOM     17  C   UNL     1       1.743   5.245  19.551  0.00  0.00    +0.000 C 
ATOM     18  O   UNL     1       1.340   5.695  20.613  0.00  0.00    +0.000 OA
ATOM     19  C   UNL     1       1.304   3.930  18.951  0.00  0.00    +0.000 C 
ATOM     20  C   UNL     1       1.229   2.797  19.969  0.00  0.00    +0.000 C 
ATOM     21  C   UNL     1       2.172   1.661  19.756  0.00  0.00    +0.000 C 
ATOM     22  C   UNL     1       2.950   1.522  18.679  0.00  0.00    +0.000 C 
ATOM     23  C   UNL     1       2.987   2.481  17.537  0.00  0.00    +0.000 C 
ATOM     24  C   UNL     1       2.199   3.774  17.722  0.00  0.00    +0.000 C 
ATOM     25  C   UNL     1       3.079   5.007  17.743  0.00  0.00    +0.000 C 
ATOM     26  O   UNL     1       4.026   5.184  16.992  0.00  0.00    +0.000 OA
ENDBRANCH  15  16
ENDBRANCH   2  15
TORSDOF 2
ENDMDL
MODEL 6
REMARK VINA RESULT:      -7.8      5.447      9.223
REMARK  Name = 
REMARK  2 active torsions:
REMARK  status: ('A' for Active; 'I' for Inactive)
REMARK    1  A    between atoms: C_2  and  C_3
REMARK    2  A    between atoms: C_3  and  N_4
REMARK                            x       y       z     vdW  Elec       q    Type
REMARK                         _______ _______ _______ _____ _____    ______ ____
ROOT
ATOM      1  O   UNL     1       7.850   7.277  16.649  0.00  0.00    +0.000 OA
ATOM      2  C   UNL     1       6.948   6.453  16.846  0.00  0.00    +0.000 C 
ATOM      3  N   UNL     1       5.785   6.888  17.415  0.00  0.00    +0.000 N 
ATOM      4  C   UNL     1       4.674   6.132  17.783  0.00  0.00    +0.000 A 
ATOM      5  C   UNL     1       3.481   6.802  18.002  0.00  0.00    +0.000 A 
ATOM      6  C   UNL     1       2.336   6.056  18.264  0.00  0.00    +0.000 A 
ATOM      7  C   UNL     1       2.422   4.662  18.350  0.00  0.00    +0.000 A 
ATOM      8  C   UNL     1       1.297   3.857  18.599  0.00  0.00    +0.000 A 
ATOM      9  C   UNL     1       1.432   2.475  18.707  0.00  0.00    +0.000 A 
ATOM     10  C   UNL     1       2.688   1.893  18.562  0.00  0.00    +0.000 A 
ATOM     11  C   UNL     1       3.800   2.694  18.292  0.00  0.00    +0.000 A 
ATOM     12  C   UNL     1       3.688   4.072  18.175  0.00  0.00    +0.000 A 
ATOM     13  N   UNL     1       4.780   4.796  17.886  0.00  0.00    +0.000 NA
ATOM     14  H   UNL     1       5.757   7.888  17.562  0.00  0.00    +0.000 HD
ENDROOT
BRANCH   2  15
ATOM     15  C   UNL     1       7.111   5.001  16.406  0.00  0.00    +0.000 C 
BRANCH  15  16
ATOM     16  N   UNL     1       6.831   4.675  15.021  0.00  0.00    +0.000 N 
ATOM     17  C   UNL     1       5.904   3.730  14.688  0.00  0.00    +0.000 C 
ATOM     18  O   UNL     1       5.333   2.974  15.460  0.00  0.00    +0.000 OA
ATOM     19  C   UNL     1       5.626   3.820  13.206  0.00  0.00    +0.000 C 
ATOM     20  C   UNL     1       5.470   2.458  12.537  0.00  0.00    +0.000 C 
ATOM     21  C   UNL     1       6.495   2.112  11.509  0.00  0.00    +0.000 C 
ATOM     22  C   UNL     1       7.422   2.960  11.057  0.00  0.00    +0.000 C 
ATOM     23  C   UNL     1       7.566   4.373  11.515  0.00  0.00    +0.000 C 
ATOM     24  C   UNL     1       6.691   4.788  12.693  0.00  0.00    +0.000 C 
ATOM     25  C   UNL     1       7.491   5.149  13.927  0.00  0.00    +0.000 C 
ATOM     26  O   UNL     1       8.522   5.803  13.907  0.00  0.00    +0.000 OA
ENDBRANCH  15  16
ENDBRANCH   2  15
TORSDOF 2
ENDMDL
MODEL 7
REMARK VINA RESULT:      -7.8      2.277      7.709
REMARK  Name = 
REMARK  2 active torsions:
REMARK  status: ('A' for Active; 'I' for Inactive)
REMARK    1  A    between atoms: C_2  and  C_3
REMARK    2  A    between atoms: C_3  and  N_4
REMARK                            x       y       z     vdW  Elec       q    Type
REMARK                         _______ _______ _______ _____ _____    ______ ____
ROOT
ATOM      1  O   UNL     1       3.308   7.894  16.677  0.00  0.00    +0.000 OA
ATOM      2  C   UNL     1       2.616   8.144  17.673  0.00  0.00    +0.000 C 
ATOM      3  N   UNL     1       2.097   9.401  17.802  0.00  0.00    +0.000 N 
ATOM      4  C   UNL     1       1.353   9.917  18.862  0.00  0.00    +0.000 A 
ATOM      5  C   UNL     1       0.626  11.075  18.636  0.00  0.00    +0.000 A 
ATOM      6  C   UNL     1      -0.207  11.546  19.646  0.00  0.00    +0.000 A 
ATOM      7  C   UNL     1      -0.255  10.876  20.874  0.00  0.00    +0.000 A 
ATOM      8  C   UNL     1      -1.087  11.299  21.924  0.00  0.00    +0.000 A 
ATOM      9  C   UNL     1      -1.082  10.620  23.141  0.00  0.00    +0.000 A 
ATOM     10  C   UNL     1      -0.251   9.517  23.311  0.00  0.00    +0.000 A 
ATOM     11  C   UNL     1       0.558   9.087  22.256  0.00  0.00    +0.000 A 
ATOM     12  C   UNL     1       0.565   9.743  21.033  0.00  0.00    +0.000 A 
ATOM     13  N   UNL     1       1.338   9.275  20.043  0.00  0.00    +0.000 NA
ATOM     14  H   UNL     1       2.284   9.999  17.010  0.00  0.00    +0.000 HD
ENDROOT
BRANCH   2  15
ATOM     15  C   UNL     1       2.305   7.056  18.696  0.00  0.00    +0.000 C 
BRANCH  15  16
ATOM     16  N   UNL     1       2.868   5.737  18.480  0.00  0.00    +0.000 N 
ATOM     17  C   UNL     1       2.184   4.777  17.794  0.00  0.00    +0.000 C 
ATOM     18  O   UNL     1       1.020   4.842  17.425  0.00  0.00    +0.000 OA
ATOM     19  C   UNL     1       3.124   3.637  17.481  0.00  0.00    +0.000 C 
ATOM     20  C   UNL     1       2.480   2.262  17.638  0.00  0.00    +0.000 C 
ATOM     21  C   UNL     1       3.055   1.386  18.700  0.00  0.00    +0.000 C 
ATOM     22  C   UNL     1       4.157   1.676  19.397  0.00  0.00    +0.000 C 
ATOM     23  C   UNL     1       4.969   2.914  19.215  0.00  0.00    +0.000 C 
ATOM     24  C   UNL     1       4.381   3.970  18.284  0.00  0.00    +0.000 C 
ATOM     25  C   UNL     1       4.036   5.262  18.995  0.00  0.00    +0.000 C 
ATOM     26  O   UNL     1       4.741   5.783  19.845  0.00  0.00    +0.000 OA
ENDBRANCH  15  16
ENDBRANCH   2  15
TORSDOF 2
ENDMDL
MODEL 8
REMARK VINA RESULT:      -7.8      2.330      4.487
REMARK  Name = 
REMARK  2 active torsions:
REMARK  status: ('A' for Active; 'I' for Inactive)
REMARK    1  A    between atoms: C_2  and  C_3
REMARK    2  A    between atoms: C_3  and  N_4
REMARK                            x       y       z     vdW  Elec       q    Type
REMARK                         _______ _______ _______ _____ _____    ______ ____
ROOT
ATOM      1  O   UNL     1       0.742   4.978  20.806  0.00  0.00    +0.000 OA
ATOM      2  C   UNL     1       1.742   5.171  20.102  0.00  0.00    +0.000 C 
ATOM      3  N   UNL     1       2.046   4.248  19.142  0.00  0.00    +0.000 N 
ATOM      4  C   UNL     1       3.148   4.228  18.289  0.00  0.00    +0.000 A 
ATOM      5  C   UNL     1       3.080   3.421  17.165  0.00  0.00    +0.000 A 
ATOM      6  C   UNL     1       4.123   3.469  16.246  0.00  0.00    +0.000 A 
ATOM      7  C   UNL     1       5.231   4.285  16.497  0.00  0.00    +0.000 A 
ATOM      8  C   UNL     1       6.307   4.384  15.598  0.00  0.00    +0.000 A 
ATOM      9  C   UNL     1       7.405   5.187  15.902  0.00  0.00    +0.000 A 
ATOM     10  C   UNL     1       7.429   5.895  17.099  0.00  0.00    +0.000 A 
ATOM     11  C   UNL     1       6.348   5.812  17.979  0.00  0.00    +0.000 A 
ATOM     12  C   UNL     1       5.241   5.024  17.696  0.00  0.00    +0.000 A 
ATOM     13  N   UNL     1       4.216   5.000  18.559  0.00  0.00    +0.000 NA
ATOM     14  H   UNL     1       1.361   3.509  19.060  0.00  0.00    +0.000 HD
ENDROOT
BRANCH   2  15
ATOM     15  C   UNL     1       2.576   6.438  20.266  0.00  0.00    +0.000 C 
BRANCH  15  16
ATOM     16  N   UNL     1       1.958   7.706  19.928  0.00  0.00    +0.000 N 
ATOM     17  C   UNL     1       2.132   8.277  18.701  0.00  0.00    +0.000 C 
ATOM     18  O   UNL     1       2.902   7.898  17.831  0.00  0.00    +0.000 OA
ATOM     19  C   UNL     1       1.151   9.415  18.548  0.00  0.00    +0.000 C 
ATOM     20  C   UNL     1       1.746  10.636  17.852  0.00  0.00    +0.000 C 
ATOM     21  C   UNL     1       1.832  11.880  18.671  0.00  0.00    +0.000 C 
ATOM     22  C   UNL     1       1.302  12.015  19.890  0.00  0.00    +0.000 C 
ATOM     23  C   UNL     1       0.549  10.944  20.606  0.00  0.00    +0.000 C 
ATOM     24  C   UNL     1       0.551   9.568  19.945  0.00  0.00    +0.000 C 
ATOM     25  C   UNL     1       1.257   8.515  20.772  0.00  0.00    +0.000 C 
ATOM     26  O   UNL     1       1.147   8.409  21.984  0.00  0.00    +0.000 OA
ENDBRANCH  15  16
ENDBRANCH   2  15
TORSDOF 2
ENDMDL
MODEL 9
REMARK VINA RESULT:      -7.7      2.339      4.257
REMARK  Name = 
REMARK  2 active torsions:
REMARK  status: ('A' for Active; 'I' for Inactive)
REMARK    1  A    between atoms: C_2  and  C_3
REMARK    2  A    between atoms: C_3  and  N_4
REMARK                            x       y       z     vdW  Elec       q    Type
REMARK                         _______ _______ _______ _____ _____    ______ ____
ROOT
ATOM      1  O   UNL     1       0.318   4.330  20.549  0.00  0.00    +0.000 OA
ATOM      2  C   UNL     1       1.444   4.621  20.127  0.00  0.00    +0.000 C 
ATOM      3  N   UNL     1       1.973   3.868  19.118  0.00  0.00    +0.000 N 
ATOM      4  C   UNL     1       3.236   3.973  18.539  0.00  0.00    +0.000 A 
ATOM      5  C   UNL     1       3.435   3.367  17.309  0.00  0.00    +0.000 A 
ATOM      6  C   UNL     1       4.655   3.552  16.665  0.00  0.00    +0.000 A 
ATOM      7  C   UNL     1       5.662   4.296  17.289  0.00  0.00    +0.000 A 
ATOM      8  C   UNL     1       6.908   4.526  16.681  0.00  0.00    +0.000 A 
ATOM      9  C   UNL     1       7.894   5.248  17.350  0.00  0.00    +0.000 A 
ATOM     10  C   UNL     1       7.638   5.745  18.624  0.00  0.00    +0.000 A 
ATOM     11  C   UNL     1       6.391   5.534  19.216  0.00  0.00    +0.000 A 
ATOM     12  C   UNL     1       5.391   4.823  18.566  0.00  0.00    +0.000 A 
ATOM     13  N   UNL     1       4.201   4.671  19.164  0.00  0.00    +0.000 NA
ATOM     14  H   UNL     1       1.338   3.165  18.764  0.00  0.00    +0.000 HD
ENDROOT
BRANCH   2  15
ATOM     15  C   UNL     1       2.194   5.830  20.680  0.00  0.00    +0.000 C 
BRANCH  15  16
ATOM     16  N   UNL     1       1.803   7.146  20.211  0.00  0.00    +0.000 N 
ATOM     17  C   UNL     1       1.071   7.990  20.994  0.00  0.00    +0.000 C 
ATOM     18  O   UNL     1       0.550   7.714  22.064  0.00  0.00    +0.000 OA
ATOM     19  C   UNL     1       1.074   9.364  20.366  0.00  0.00    +0.000 C 
ATOM     20  C   UNL     1      -0.275  10.071  20.453  0.00  0.00    +0.000 C 
ATOM     21  C   UNL     1      -0.951  10.357  19.154  0.00  0.00    +0.000 C 
ATOM     22  C   UNL     1      -0.390  10.163  17.957  0.00  0.00    +0.000 C 
ATOM     23  C   UNL     1       0.989   9.634  17.748  0.00  0.00    +0.000 C 
ATOM     24  C   UNL     1       1.712   9.136  18.996  0.00  0.00    +0.000 C 
ATOM     25  C   UNL     1       1.999   7.650  18.961  0.00  0.00    +0.000 C 
ATOM     26  O   UNL     1       2.391   7.052  17.971  0.00  0.00    +0.000 OA
ENDBRANCH  15  16
ENDBRANCH   2  15
TORSDOF 2
ENDMDL
