MODEL 1
REMARK VINA RESULT:      -9.2      0.000      0.000
REMARK  Name = 
REMARK  4 active torsions:
REMARK  status: ('A' for Active; 'I' for Inactive)
REMARK    1  A    between atoms: C_1  and  C_2
REMARK    2  A    between atoms: C_4  and  C_5
REMARK    3  A    between atoms: C_9  and  N_10
REMARK    4  A    between atoms: N_13  and  C_14
REMARK                            x       y       z     vdW  Elec       q    Type
REMARK                         _______ _______ _______ _____ _____    ______ ____
ROOT
ATOM      1  N   UNL     1       1.333   9.189  19.686  0.00  0.00    +0.000 N 
ATOM      2  C   UNL     1       2.033   8.218  18.887  0.00  0.00    +0.000 C 
ATOM      3  O   UNL     1       2.124   8.228  17.690  0.00  0.00    +0.000 OA
ATOM      4  N   UNL     1       2.554   7.184  19.673  0.00  0.00    +0.000 N 
ATOM      5  H   UNL     1       1.476   9.190  20.690  0.00  0.00    +0.000 HD
ATOM      6  H   UNL     1       2.676   7.476  20.624  0.00  0.00    +0.000 HD
ENDROOT
BRANCH   4   7
ATOM      7  C   UNL     1       3.543   6.077  19.311  0.00  0.00    +0.000 C 
ATOM      8  C   UNL     1       4.631   6.329  18.165  0.00  0.00    +0.000 C 
ATOM      9  C   UNL     1       4.772   5.397  16.981  0.00  0.00    +0.000 C 
ATOM     10  C   UNL     1       3.840   4.216  17.106  0.00  0.00    +0.000 C 
ATOM     11  C   UNL     1       2.806   3.963  18.117  0.00  0.00    +0.000 A 
ATOM     12  C   UNL     1       1.941   2.865  17.840  0.00  0.00    +0.000 A 
ATOM     13  C   UNL     1       0.991   2.536  18.798  0.00  0.00    +0.000 A 
ATOM     14  F   UNL     1       0.107   1.557  18.559  0.00  0.00    +0.000 F 
ATOM     15  C   UNL     1       0.944   3.246  19.992  0.00  0.00    +0.000 A 
ATOM     16  C   UNL     1       1.819   4.329  20.200  0.00  0.00    +0.000 A 
ATOM     17  C   UNL     1       2.714   4.767  19.228  0.00  0.00    +0.000 A 
ENDBRANCH   4   7
BRANCH   1  22
ATOM     18  C   UNL     1      -1.545  11.336  18.161  0.00  0.00    +0.000 A 
ATOM     19  C   UNL     1      -0.950  12.593  18.269  0.00  0.00    +0.000 A 
ATOM     20  C   UNL     1       0.344  12.741  18.791  0.00  0.00    +0.000 A 
ATOM     21  C   UNL     1       1.055  11.621  19.223  0.00  0.00    +0.000 A 
ATOM     22  C   UNL     1       0.533  10.328  19.177  0.00  0.00    +0.000 A 
ATOM     23  C   UNL     1      -0.780  10.191  18.592  0.00  0.00    +0.000 A 
BRANCH  18  27
ATOM     24  C   UNL     1      -6.504  11.730  17.916  0.00  0.00    +0.000 C 
ATOM     25  C   UNL     1      -5.080  11.548  17.583  0.00  0.00    +0.000 A 
ATOM     26  N   UNL     1      -4.019  11.688  18.458  0.00  0.00    +0.000 NA
ATOM     27  C   UNL     1      -2.937  11.364  17.630  0.00  0.00    +0.000 A 
ATOM     28  N   UNL     1      -3.301  11.063  16.347  0.00  0.00    +0.000 NA
ATOM     29  O   UNL     1      -4.693  11.199  16.352  0.00  0.00    +0.000 OA
ENDBRANCH  18  27
ENDBRANCH   1  22
TORSDOF 3
ENDMDL
MODEL 2
REMARK VINA RESULT:      -9.1      1.082      1.377
REMARK  Name = 
REMARK  4 active torsions:
REMARK  status: ('A' for Active; 'I' for Inactive)
REMARK    1  A    between atoms: C_1  and  C_2
REMARK    2  A    between atoms: C_4  and  C_5
REMARK    3  A    between atoms: C_9  and  N_10
REMARK    4  A    between atoms: N_13  and  C_14
REMARK                            x       y       z     vdW  Elec       q    Type
REMARK                         _______ _______ _______ _____ _____    ______ ____
ROOT
ATOM      1  N   UNL     1       1.494   8.985  19.796  0.00  0.00    +0.000 N 
ATOM      2  C   UNL     1       2.107   7.956  18.999  0.00  0.00    +0.000 C 
ATOM      3  O   UNL     1       2.050   7.866  17.804  0.00  0.00    +0.000 OA
ATOM      4  N   UNL     1       2.741   6.997  19.797  0.00  0.00    +0.000 N 
ATOM      5  H   UNL     1       1.759   9.072  20.771  0.00  0.00    +0.000 HD
ATOM      6  H   UNL     1       2.975   7.369  20.698  0.00  0.00    +0.000 HD
ENDROOT
BRANCH   4   7
ATOM      7  C   UNL     1       3.700   5.873  19.407  0.00  0.00    +0.000 C 
ATOM      8  C   UNL     1       4.796   6.123  18.270  0.00  0.00    +0.000 C 
ATOM      9  C   UNL     1       4.913   5.219  17.061  0.00  0.00    +0.000 C 
ATOM     10  C   UNL     1       3.948   4.062  17.154  0.00  0.00    +0.000 C 
ATOM     11  C   UNL     1       2.905   3.812  18.158  0.00  0.00    +0.000 A 
ATOM     12  C   UNL     1       2.009   2.747  17.850  0.00  0.00    +0.000 A 
ATOM     13  C   UNL     1       1.049   2.420  18.798  0.00  0.00    +0.000 A 
ATOM     14  F   UNL     1       0.138   1.473  18.534  0.00  0.00    +0.000 F 
ATOM     15  C   UNL     1       1.020   3.099  20.011  0.00  0.00    +0.000 A 
ATOM     16  C   UNL     1       1.924   4.151  20.248  0.00  0.00    +0.000 A 
ATOM     17  C   UNL     1       2.834   4.589  19.289  0.00  0.00    +0.000 A 
ENDBRANCH   4   7
BRANCH   1  22
ATOM     18  C   UNL     1      -1.289  10.952  17.898  0.00  0.00    +0.000 A 
ATOM     19  C   UNL     1      -1.060  12.217  18.439  0.00  0.00    +0.000 A 
ATOM     20  C   UNL     1      -0.027  12.434  19.364  0.00  0.00    +0.000 A 
ATOM     21  C   UNL     1       0.784  11.374  19.766  0.00  0.00    +0.000 A 
ATOM     22  C   UNL     1       0.615  10.070  19.298  0.00  0.00    +0.000 A 
ATOM     23  C   UNL     1      -0.421   9.876  18.310  0.00  0.00    +0.000 A 
BRANCH  18  27
ATOM     24  C   UNL     1      -4.082  10.031  13.878  0.00  0.00    +0.000 C 
ATOM     25  C   UNL     1      -3.611  10.463  15.206  0.00  0.00    +0.000 A 
ATOM     26  N   UNL     1      -2.352  10.238  15.731  0.00  0.00    +0.000 NA
ATOM     27  C   UNL     1      -2.452  10.889  16.967  0.00  0.00    +0.000 A 
ATOM     28  N   UNL     1      -3.676  11.454  17.191  0.00  0.00    +0.000 NA
ATOM     29  O   UNL     1      -4.402  11.152  16.034  0.00  0.00    +0.000 OA
ENDBRANCH  18  27
ENDBRANCH   1  22
TORSDOF 3
ENDMDL
MODEL 3
REMARK VINA RESULT:      -8.7      3.154      9.074
REMARK  Name = 
REMARK  4 active torsions:
REMARK  status: ('A' for Active; 'I' for Inactive)
REMARK    1  A    between atoms: C_1  and  C_2
REMARK    2  A    between atoms: C_4  and  C_5
REMARK    3  A    between atoms: C_9  and  N_10
REMARK    4  A    between atoms: N_13  and  C_14
REMARK                            x       y       z     vdW  Elec       q    Type
REMARK                         _______ _______ _______ _____ _____    ______ ____
ROOT
ATOM      1  N   UNL     1       1.887   7.893  19.214  0.00  0.00    +0.000 N 
ATOM      2  C   UNL     1       1.777   9.136  18.497  0.00  0.00    +0.000 C 
ATOM      3  O   UNL     1       2.263   9.375  17.426  0.00  0.00    +0.000 OA
ATOM      4  N   UNL     1       1.078  10.096  19.237  0.00  0.00    +0.000 N 
ATOM      5  H   UNL     1       1.286   7.736  20.015  0.00  0.00    +0.000 HD
ATOM      6  H   UNL     1       0.484   9.667  19.921  0.00  0.00    +0.000 HD
ENDROOT
BRANCH   4   7
ATOM      7  C   UNL     1       0.524  11.454  18.810  0.00  0.00    +0.000 C 
ATOM      8  C   UNL     1       0.841  12.753  19.689  0.00  0.00    +0.000 C 
ATOM      9  C   UNL     1      -0.261  13.647  20.217  0.00  0.00    +0.000 C 
ATOM     10  C   UNL     1      -1.613  13.191  19.725  0.00  0.00    +0.000 C 
ATOM     11  C   UNL     1      -1.952  11.991  18.948  0.00  0.00    +0.000 A 
ATOM     12  C   UNL     1      -3.347  11.722  18.825  0.00  0.00    +0.000 A 
ATOM     13  C   UNL     1      -3.727  10.641  18.041  0.00  0.00    +0.000 A 
ATOM     14  F   UNL     1      -5.019  10.301  17.946  0.00  0.00    +0.000 F 
ATOM     15  C   UNL     1      -2.757   9.897  17.378  0.00  0.00    +0.000 A 
ATOM     16  C   UNL     1      -1.395  10.207  17.551  0.00  0.00    +0.000 A 
ATOM     17  C   UNL     1      -0.957  11.210  18.411  0.00  0.00    +0.000 A 
ENDBRANCH   4   7
BRANCH   1  22
ATOM     18  C   UNL     1       4.394   5.556  17.351  0.00  0.00    +0.000 A 
ATOM     19  C   UNL     1       4.217   4.403  18.117  0.00  0.00    +0.000 A 
ATOM     20  C   UNL     1       3.302   4.372  19.180  0.00  0.00    +0.000 A 
ATOM     21  C   UNL     1       2.558   5.509  19.494  0.00  0.00    +0.000 A 
ATOM     22  C   UNL     1       2.685   6.714  18.801  0.00  0.00    +0.000 A 
ATOM     23  C   UNL     1       3.595   6.711  17.680  0.00  0.00    +0.000 A 
BRANCH  18  27
ATOM     24  C   UNL     1       6.819   4.087  13.256  0.00  0.00    +0.000 C 
ATOM     25  C   UNL     1       6.437   4.761  14.510  0.00  0.00    +0.000 A 
ATOM     26  N   UNL     1       5.234   4.611  15.175  0.00  0.00    +0.000 NA
ATOM     27  C   UNL     1       5.437   5.430  16.293  0.00  0.00    +0.000 A 
ATOM     28  N   UNL     1       6.657   6.045  16.306  0.00  0.00    +0.000 NA
ATOM     29  O   UNL     1       7.274   5.594  15.135  0.00  0.00    +0.000 OA
ENDBRANCH  18  27
ENDBRANCH   1  22
TORSDOF 3
ENDMDL
MODEL 4
REMARK VINA RESULT:      -8.6      0.895      1.126
REMARK  Name = 
REMARK  4 active torsions:
REMARK  status: ('A' for Active; 'I' for Inactive)
REMARK    1  A    between atoms: C_1  and  C_2
REMARK    2  A    between atoms: C_4  and  C_5
REMARK    3  A    between atoms: C_9  and  N_10
REMARK    4  A    between atoms: N_13  and  C_14
REMARK                            x       y       z     vdW  Elec       q    Type
REMARK                         _______ _______ _______ _____ _____    ______ ____
ROOT
ATOM      1  N   UNL     1       1.317   9.154  19.842  0.00  0.00    +0.000 N 
ATOM      2  C   UNL     1       2.046   8.242  18.999  0.00  0.00    +0.000 C 
ATOM      3  O   UNL     1       2.192   8.347  17.813  0.00  0.00    +0.000 OA
ATOM      4  N   UNL     1       2.523   7.143  19.723  0.00  0.00    +0.000 N 
ATOM      5  H   UNL     1       1.414   9.073  20.848  0.00  0.00    +0.000 HD
ATOM      6  H   UNL     1       2.604   7.357  20.699  0.00  0.00    +0.000 HD
ENDROOT
BRANCH   4   7
ATOM      7  C   UNL     1       3.521   6.059  19.318  0.00  0.00    +0.000 C 
ATOM      8  C   UNL     1       4.580   6.349  18.155  0.00  0.00    +0.000 C 
ATOM      9  C   UNL     1       4.709   5.442  16.950  0.00  0.00    +0.000 C 
ATOM     10  C   UNL     1       3.798   4.245  17.071  0.00  0.00    +0.000 C 
ATOM     11  C   UNL     1       2.789   3.957  18.099  0.00  0.00    +0.000 A 
ATOM     12  C   UNL     1       1.934   2.852  17.819  0.00  0.00    +0.000 A 
ATOM     13  C   UNL     1       1.010   2.491  18.790  0.00  0.00    +0.000 A 
ATOM     14  F   UNL     1       0.136   1.503  18.551  0.00  0.00    +0.000 F 
ATOM     15  C   UNL     1       0.978   3.177  19.999  0.00  0.00    +0.000 A 
ATOM     16  C   UNL     1       1.841   4.268  20.209  0.00  0.00    +0.000 A 
ATOM     17  C   UNL     1       2.709   4.738  19.228  0.00  0.00    +0.000 A 
ENDBRANCH   4   7
BRANCH   1  22
ATOM     18  C   UNL     1      -1.594  11.611  19.006  0.00  0.00    +0.000 A 
ATOM     19  C   UNL     1      -0.837  12.687  18.544  0.00  0.00    +0.000 A 
ATOM     20  C   UNL     1       0.563  12.614  18.479  0.00  0.00    +0.000 A 
ATOM     21  C   UNL     1       1.221  11.455  18.891  0.00  0.00    +0.000 A 
ATOM     22  C   UNL     1       0.550  10.338  19.390  0.00  0.00    +0.000 A 
ATOM     23  C   UNL     1      -0.893  10.415  19.403  0.00  0.00    +0.000 A 
BRANCH  18  27
ATOM     24  C   UNL     1      -6.408  11.781  17.738  0.00  0.00    +0.000 C 
ATOM     25  C   UNL     1      -5.127  11.917  18.453  0.00  0.00    +0.000 A 
ATOM     26  N   UNL     1      -3.907  11.424  18.030  0.00  0.00    +0.000 NA
ATOM     27  C   UNL     1      -3.061  11.874  19.052  0.00  0.00    +0.000 A 
ATOM     28  N   UNL     1      -3.710  12.573  20.030  0.00  0.00    +0.000 NA
ATOM     29  O   UNL     1      -5.045  12.575  19.614  0.00  0.00    +0.000 OA
ENDBRANCH  18  27
ENDBRANCH   1  22
TORSDOF 3
ENDMDL
MODEL 5
REMARK VINA RESULT:      -8.5      2.459      3.442
REMARK  Name = 
REMARK  4 active torsions:
REMARK  status: ('A' for Active; 'I' for Inactive)
REMARK    1  A    between atoms: C_1  and  C_2
REMARK    2  A    between atoms: C_4  and  C_5
REMARK    3  A    between atoms: C_9  and  N_10
REMARK    4  A    between atoms: N_13  and  C_14
REMARK                            x       y       z     vdW  Elec       q    Type
REMARK                         _______ _______ _______ _____ _____    ______ ____
ROOT
ATOM      1  N   UNL     1       1.311   9.193  19.774  0.00  0.00    +0.000 N 
ATOM      2  C   UNL     1       2.025   8.251  18.952  0.00  0.00    +0.000 C 
ATOM      3  O   UNL     1       2.144   8.308  17.760  0.00  0.00    +0.000 OA
ATOM      4  N   UNL     1       2.522   7.183  19.708  0.00  0.00    +0.000 N 
ATOM      5  H   UNL     1       1.430   9.153  20.780  0.00  0.00    +0.000 HD
ATOM      6  H   UNL     1       2.624   7.437  20.673  0.00  0.00    +0.000 HD
ENDROOT
BRANCH   4   7
ATOM      7  C   UNL     1       3.515   6.087  19.326  0.00  0.00    +0.000 C 
ATOM      8  C   UNL     1       4.585   6.355  18.168  0.00  0.00    +0.000 C 
ATOM      9  C   UNL     1       4.718   5.432  16.974  0.00  0.00    +0.000 C 
ATOM     10  C   UNL     1       3.796   4.243  17.103  0.00  0.00    +0.000 C 
ATOM     11  C   UNL     1       2.777   3.976  18.127  0.00  0.00    +0.000 A 
ATOM     12  C   UNL     1       1.916   2.873  17.853  0.00  0.00    +0.000 A 
ATOM     13  C   UNL     1       0.982   2.530  18.821  0.00  0.00    +0.000 A 
ATOM     14  F   UNL     1       0.102   1.547  18.588  0.00  0.00    +0.000 F 
ATOM     15  C   UNL     1       0.945   3.232  20.021  0.00  0.00    +0.000 A 
ATOM     16  C   UNL     1       1.815   4.319  20.225  0.00  0.00    +0.000 A 
ATOM     17  C   UNL     1       2.694   4.771  19.245  0.00  0.00    +0.000 A 
ENDBRANCH   4   7
BRANCH   1  22
ATOM     18  C   UNL     1       0.210  12.819  18.847  0.00  0.00    +0.000 A 
ATOM     19  C   UNL     1      -1.033  12.525  18.286  0.00  0.00    +0.000 A 
ATOM     20  C   UNL     1      -1.511  11.206  18.232  0.00  0.00    +0.000 A 
ATOM     21  C   UNL     1      -0.736  10.162  18.735  0.00  0.00    +0.000 A 
ATOM     22  C   UNL     1       0.529  10.356  19.292  0.00  0.00    +0.000 A 
ATOM     23  C   UNL     1       0.982  11.724  19.383  0.00  0.00    +0.000 A 
BRANCH  18  27
ATOM     24  C   UNL     1      -0.125  17.775  18.489  0.00  0.00    +0.000 C 
ATOM     25  C   UNL     1       0.377  16.396  18.626  0.00  0.00    +0.000 A 
ATOM     26  N   UNL     1      -0.400  15.257  18.714  0.00  0.00    +0.000 NA
ATOM     27  C   UNL     1       0.582  14.261  18.782  0.00  0.00    +0.000 A 
ATOM     28  N   UNL     1       1.858  14.749  18.753  0.00  0.00    +0.000 NA
ATOM     29  O   UNL     1       1.687  16.134  18.659  0.00  0.00    +0.000 OA
ENDBRANCH  18  27
ENDBRANCH   1  22
TORSDOF 3
ENDMDL
MODEL 6
REMARK VINA RESULT:      -8.5      1.130      1.196
REMARK  Name = 
REMARK  4 active torsions:
REMARK  status: ('A' for Active; 'I' for Inactive)
REMARK    1  A    between atoms: C_1  and  C_2
REMARK    2  A    between atoms: C_4  and  C_5
REMARK    3  A    between atoms: C_9  and  N_10
REMARK    4  A    between atoms: N_13  and  C_14
REMARK                            x       y       z     vdW  Elec       q    Type
REMARK                         _______ _______ _______ _____ _____    ______ ____
ROOT
ATOM      1  N   UNL     1       1.202   8.980  17.783  0.00  0.00    +0.000 N 
ATOM      2  C   UNL     1       2.126   8.155  18.517  0.00  0.00    +0.000 C 
ATOM      3  O   UNL     1       2.181   8.053  19.711  0.00  0.00    +0.000 OA
ATOM      4  N   UNL     1       3.032   7.514  17.664  0.00  0.00    +0.000 N 
ATOM      5  H   UNL     1       1.119   8.849  16.781  0.00  0.00    +0.000 HD
ATOM      6  H   UNL     1       2.666   7.439  16.734  0.00  0.00    +0.000 HD
ENDROOT
BRANCH   4   7
ATOM      7  C   UNL     1       4.023   6.388  17.952  0.00  0.00    +0.000 C 
ATOM      8  C   UNL     1       5.304   6.199  17.012  0.00  0.00    +0.000 C 
ATOM      9  C   UNL     1       5.612   4.878  16.340  0.00  0.00    +0.000 C 
ATOM     10  C   UNL     1       4.626   3.814  16.756  0.00  0.00    +0.000 C 
ATOM     11  C   UNL     1       3.421   3.951  17.585  0.00  0.00    +0.000 A 
ATOM     12  C   UNL     1       2.573   2.805  17.618  0.00  0.00    +0.000 A 
ATOM     13  C   UNL     1       1.458   2.853  18.444  0.00  0.00    +0.000 A 
ATOM     14  F   UNL     1       0.591   1.832  18.462  0.00  0.00    +0.000 F 
ATOM     15  C   UNL     1       1.232   3.978  19.230  0.00  0.00    +0.000 A 
ATOM     16  C   UNL     1       2.100   5.081  19.142  0.00  0.00    +0.000 A 
ATOM     17  C   UNL     1       3.169   5.127  18.251  0.00  0.00    +0.000 A 
ENDBRANCH   4   7
BRANCH   1  22
ATOM     18  C   UNL     1      -2.026  11.081  18.400  0.00  0.00    +0.000 A 
ATOM     19  C   UNL     1      -1.656  11.689  19.599  0.00  0.00    +0.000 A 
ATOM     20  C   UNL     1      -0.399  11.452  20.176  0.00  0.00    +0.000 A 
ATOM     21  C   UNL     1       0.501  10.586  19.555  0.00  0.00    +0.000 A 
ATOM     22  C   UNL     1       0.210   9.914  18.367  0.00  0.00    +0.000 A 
ATOM     23  C   UNL     1      -1.069  10.209  17.765  0.00  0.00    +0.000 A 
BRANCH  18  27
ATOM     24  C   UNL     1      -6.851  12.314  18.479  0.00  0.00    +0.000 C 
ATOM     25  C   UNL     1      -5.491  11.945  18.048  0.00  0.00    +0.000 A 
ATOM     26  N   UNL     1      -4.393  11.793  18.874  0.00  0.00    +0.000 NA
ATOM     27  C   UNL     1      -3.411  11.407  17.953  0.00  0.00    +0.000 A 
ATOM     28  N   UNL     1      -3.863  11.342  16.666  0.00  0.00    +0.000 NA
ATOM     29  O   UNL     1      -5.211  11.703  16.764  0.00  0.00    +0.000 OA
ENDBRANCH  18  27
ENDBRANCH   1  22
TORSDOF 3
ENDMDL
MODEL 7
REMARK VINA RESULT:      -8.5      6.836      8.952
REMARK  Name = 
REMARK  4 active torsions:
REMARK  status: ('A' for Active; 'I' for Inactive)
REMARK    1  A    between atoms: C_1  and  C_2
REMARK    2  A    between atoms: C_4  and  C_5
REMARK    3  A    between atoms: C_9  and  N_10
REMARK    4  A    between atoms: N_13  and  C_14
REMARK                            x       y       z     vdW  Elec       q    Type
REMARK                         _______ _______ _______ _____ _____    ______ ____
ROOT
ATOM      1  N   UNL     1       7.768   9.154  17.577  0.00  0.00    +0.000 N 
ATOM      2  C   UNL     1       7.922   7.746  17.835  0.00  0.00    +0.000 C 
ATOM      3  O   UNL     1       8.586   7.261  18.709  0.00  0.00    +0.000 OA
ATOM      4  N   UNL     1       7.247   6.973  16.884  0.00  0.00    +0.000 N 
ATOM      5  H   UNL     1       7.042   9.458  16.938  0.00  0.00    +0.000 HD
ATOM      6  H   UNL     1       6.510   7.493  16.448  0.00  0.00    +0.000 HD
ENDROOT
BRANCH   4   7
ATOM      7  C   UNL     1       6.937   5.477  16.876  0.00  0.00    +0.000 C 
ATOM      8  C   UNL     1       7.141   4.632  15.533  0.00  0.00    +0.000 C 
ATOM      9  C   UNL     1       6.027   3.797  14.939  0.00  0.00    +0.000 C 
ATOM     10  C   UNL     1       4.802   3.819  15.821  0.00  0.00    +0.000 C 
ATOM     11  C   UNL     1       4.560   4.605  17.038  0.00  0.00    +0.000 A 
ATOM     12  C   UNL     1       3.220   4.573  17.524  0.00  0.00    +0.000 A 
ATOM     13  C   UNL     1       2.951   5.239  18.713  0.00  0.00    +0.000 A 
ATOM     14  F   UNL     1       1.696   5.300  19.179  0.00  0.00    +0.000 F 
ATOM     15  C   UNL     1       3.984   5.866  19.400  0.00  0.00    +0.000 A 
ATOM     16  C   UNL     1       5.284   5.872  18.859  0.00  0.00    +0.000 A 
ATOM     17  C   UNL     1       5.584   5.313  17.620  0.00  0.00    +0.000 A 
ENDBRANCH   4   7
BRANCH   1  22
ATOM     18  C   UNL     1       9.203  12.654  18.533  0.00  0.00    +0.000 A 
ATOM     19  C   UNL     1       9.784  12.317  19.755  0.00  0.00    +0.000 A 
ATOM     20  C   UNL     1       9.739  11.001  20.242  0.00  0.00    +0.000 A 
ATOM     21  C   UNL     1       9.095  10.007  19.506  0.00  0.00    +0.000 A 
ATOM     22  C   UNL     1       8.465  10.254  18.286  0.00  0.00    +0.000 A 
ATOM     23  C   UNL     1       8.564  11.602  17.779  0.00  0.00    +0.000 A 
BRANCH  18  27
ATOM     24  C   UNL     1      11.067  17.081  17.215  0.00  0.00    +0.000 C 
ATOM     25  C   UNL     1      10.163  15.987  17.613  0.00  0.00    +0.000 A 
ATOM     26  N   UNL     1      10.518  14.661  17.773  0.00  0.00    +0.000 NA
ATOM     27  C   UNL     1       9.304  14.101  18.188  0.00  0.00    +0.000 A 
ATOM     28  N   UNL     1       8.282  15.005  18.263  0.00  0.00    +0.000 NA
ATOM     29  O   UNL     1       8.873  16.213  17.878  0.00  0.00    +0.000 OA
ENDBRANCH  18  27
ENDBRANCH   1  22
TORSDOF 3
ENDMDL
MODEL 8
REMARK VINA RESULT:      -8.4      2.705      3.606
REMARK  Name = 
REMARK  4 active torsions:
REMARK  status: ('A' for Active; 'I' for Inactive)
REMARK    1  A    between atoms: C_1  and  C_2
REMARK    2  A    between atoms: C_4  and  C_5
REMARK    3  A    between atoms: C_9  and  N_10
REMARK    4  A    between atoms: N_13  and  C_14
REMARK                            x       y       z     vdW  Elec       q    Type
REMARK                         _______ _______ _______ _____ _____    ______ ____
ROOT
ATOM      1  N   UNL     1       1.089   9.094  17.768  0.00  0.00    +0.000 N 
ATOM      2  C   UNL     1       2.081   8.301  18.447  0.00  0.00    +0.000 C 
ATOM      3  O   UNL     1       2.225   8.223  19.635  0.00  0.00    +0.000 OA
ATOM      4  N   UNL     1       2.935   7.663  17.541  0.00  0.00    +0.000 N 
ATOM      5  H   UNL     1       0.935   8.943  16.778  0.00  0.00    +0.000 HD
ATOM      6  H   UNL     1       2.504   7.563  16.641  0.00  0.00    +0.000 HD
ENDROOT
BRANCH   4   7
ATOM      7  C   UNL     1       3.969   6.562  17.774  0.00  0.00    +0.000 C 
ATOM      8  C   UNL     1       5.205   6.408  16.771  0.00  0.00    +0.000 C 
ATOM      9  C   UNL     1       5.513   5.097  16.079  0.00  0.00    +0.000 C 
ATOM     10  C   UNL     1       4.576   4.007  16.541  0.00  0.00    +0.000 C 
ATOM     11  C   UNL     1       3.411   4.111  17.430  0.00  0.00    +0.000 A 
ATOM     12  C   UNL     1       2.596   2.943  17.502  0.00  0.00    +0.000 A 
ATOM     13  C   UNL     1       1.523   2.961  18.383  0.00  0.00    +0.000 A 
ATOM     14  F   UNL     1       0.684   1.917  18.441  0.00  0.00    +0.000 F 
ATOM     15  C   UNL     1       1.308   4.077  19.183  0.00  0.00    +0.000 A 
ATOM     16  C   UNL     1       2.142   5.203  19.055  0.00  0.00    +0.000 A 
ATOM     17  C   UNL     1       3.163   5.278  18.112  0.00  0.00    +0.000 A 
ENDBRANCH   4   7
BRANCH   1  22
ATOM     18  C   UNL     1      -0.531  11.749  20.124  0.00  0.00    +0.000 A 
ATOM     19  C   UNL     1      -1.794  11.811  19.535  0.00  0.00    +0.000 A 
ATOM     20  C   UNL     1      -2.121  11.005  18.434  0.00  0.00    +0.000 A 
ATOM     21  C   UNL     1      -1.173  10.131  17.902  0.00  0.00    +0.000 A 
ATOM     22  C   UNL     1       0.123  10.019  18.408  0.00  0.00    +0.000 A 
ATOM     23  C   UNL     1       0.425  10.820  19.571  0.00  0.00    +0.000 A 
BRANCH  18  27
ATOM     24  C   UNL     1      -1.434  14.631  24.084  0.00  0.00    +0.000 C 
ATOM     25  C   UNL     1      -0.785  13.928  22.963  0.00  0.00    +0.000 A 
ATOM     26  N   UNL     1      -1.383  12.995  22.137  0.00  0.00    +0.000 NA
ATOM     27  C   UNL     1      -0.337  12.703  21.253  0.00  0.00    +0.000 A 
ATOM     28  N   UNL     1       0.814  13.388  21.522  0.00  0.00    +0.000 NA
ATOM     29  O   UNL     1       0.490  14.165  22.639  0.00  0.00    +0.000 OA
ENDBRANCH  18  27
ENDBRANCH   1  22
TORSDOF 3
ENDMDL
MODEL 9
REMARK VINA RESULT:      -8.4      6.835     10.015
REMARK  Name = 
REMARK  4 active torsions:
REMARK  status: ('A' for Active; 'I' for Inactive)
REMARK    1  A    between atoms: C_1  and  C_2
REMARK    2  A    between atoms: C_4  and  C_5
REMARK    3  A    between atoms: C_9  and  N_10
REMARK    4  A    between atoms: N_13  and  C_14
REMARK                            x       y       z     vdW  Elec       q    Type
REMARK                         _______ _______ _______ _____ _____    ______ ____
ROOT
ATOM      1  N   UNL     1       6.954   8.225  17.122  0.00  0.00    +0.000 N 
ATOM      2  C   UNL     1       8.011   8.775  17.930  0.00  0.00    +0.000 C 
ATOM      3  O   UNL     1       8.674   8.170  18.726  0.00  0.00    +0.000 OA
ATOM      4  N   UNL     1       8.142  10.154  17.734  0.00  0.00    +0.000 N 
ATOM      5  H   UNL     1       6.588   8.776  16.354  0.00  0.00    +0.000 HD
ATOM      6  H   UNL     1       7.767  10.434  16.847  0.00  0.00    +0.000 HD
ENDROOT
BRANCH   4   7
ATOM      7  C   UNL     1       9.247  11.110  18.184  0.00  0.00    +0.000 C 
ATOM      8  C   UNL     1      10.227  10.685  19.374  0.00  0.00    +0.000 C 
ATOM      9  C   UNL     1      10.424  11.558  20.596  0.00  0.00    +0.000 C 
ATOM     10  C   UNL     1       9.662  12.855  20.464  0.00  0.00    +0.000 C 
ATOM     11  C   UNL     1       8.727  13.270  19.410  0.00  0.00    +0.000 A 
ATOM     12  C   UNL     1       7.999  14.465  19.680  0.00  0.00    +0.000 A 
ATOM     13  C   UNL     1       7.155  14.943  18.687  0.00  0.00    +0.000 A 
ATOM     14  F   UNL     1       6.395  16.023  18.913  0.00  0.00    +0.000 F 
ATOM     15  C   UNL     1       7.081  14.278  17.468  0.00  0.00    +0.000 A 
ATOM     16  C   UNL     1       7.817  13.095  17.268  0.00  0.00    +0.000 A 
ATOM     17  C   UNL     1       8.592  12.515  18.269  0.00  0.00    +0.000 A 
ENDBRANCH   4   7
BRANCH   1  22
ATOM     18  C   UNL     1       4.706   5.111  17.807  0.00  0.00    +0.000 A 
ATOM     19  C   UNL     1       5.507   4.137  17.209  0.00  0.00    +0.000 A 
ATOM     20  C   UNL     1       6.741   4.469  16.629  0.00  0.00    +0.000 A 
ATOM     21  C   UNL     1       7.181   5.792  16.634  0.00  0.00    +0.000 A 
ATOM     22  C   UNL     1       6.439   6.836  17.185  0.00  0.00    +0.000 A 
ATOM     23  C   UNL     1       5.195   6.468  17.820  0.00  0.00    +0.000 A 
BRANCH  18  27
ATOM     24  C   UNL     1       1.253   3.260  20.882  0.00  0.00    +0.000 C 
ATOM     25  C   UNL     1       1.959   3.798  19.705  0.00  0.00    +0.000 A 
ATOM     26  N   UNL     1       3.263   4.255  19.683  0.00  0.00    +0.000 NA
ATOM     27  C   UNL     1       3.410   4.595  18.332  0.00  0.00    +0.000 A 
ATOM     28  N   UNL     1       2.284   4.380  17.589  0.00  0.00    +0.000 NA
ATOM     29  O   UNL     1       1.364   3.870  18.511  0.00  0.00    +0.000 OA
ENDBRANCH  18  27
ENDBRANCH   1  22
TORSDOF 3
ENDMDL
