MODEL 1
REMARK VINA RESULT:      -8.7      0.000      0.000
REMARK  Name = 
REMARK  5 active torsions:
REMARK  status: ('A' for Active; 'I' for Inactive)
REMARK    1  A    between atoms: C_2  and  C_20
REMARK    2  A    between atoms: N_3  and  C_4
REMARK    3  A    between atoms: C_7  and  S_8
REMARK    4  A    between atoms: S_8  and  N_11
REMARK    5  A    between atoms: C_23  and  N_24
REMARK                            x       y       z     vdW  Elec       q    Type
REMARK                         _______ _______ _______ _____ _____    ______ ____
ROOT
ATOM      1  C   UNL     1       1.678   7.449  20.397  0.00  0.00    +0.000 A 
ATOM      2  C   UNL     1       2.353   7.519  19.174  0.00  0.00    +0.000 A 
ATOM      3  C   UNL     1       2.778   6.373  18.524  0.00  0.00    +0.000 A 
ATOM      4  C   UNL     1       2.535   5.127  19.088  0.00  0.00    +0.000 A 
ATOM      5  C   UNL     1       1.868   5.038  20.318  0.00  0.00    +0.000 A 
ATOM      6  C   UNL     1       1.468   6.200  20.987  0.00  0.00    +0.000 A 
ENDROOT
BRANCH   1   9
ATOM      7  O   UNL     1       0.284   9.714  19.174  0.00  0.00    +0.000 OA
ATOM      8  C   UNL     1       0.544   9.642  20.368  0.00  0.00    +0.000 C 
ATOM      9  N   UNL     1       1.194   8.608  21.036  0.00  0.00    +0.000 N 
ATOM     10  H   UNL     1       1.164   8.599  22.044  0.00  0.00    +0.000 HD
BRANCH   8  11
ATOM     11  C   UNL     1       0.068  10.744  21.217  0.00  0.00    +0.000 A 
ATOM     12  C   UNL     1      -0.775  10.423  22.288  0.00  0.00    +0.000 A 
ATOM     13  C   UNL     1      -1.277  11.432  23.104  0.00  0.00    +0.000 A 
ATOM     14  C   UNL     1      -0.956  12.766  22.820  0.00  0.00    +0.000 A 
ATOM     15  C   UNL     1      -0.132  13.086  21.731  0.00  0.00    +0.000 A 
ATOM     16  C   UNL     1       0.392  12.070  20.936  0.00  0.00    +0.000 A 
BRANCH  14  17
ATOM     17  N   UNL     1      -1.492  13.805  23.612  0.00  0.00    +0.000 N 
ATOM     18  C   UNL     1      -2.776  13.976  24.053  0.00  0.00    +0.000 A 
ATOM     19  N   UNL     1      -2.866  15.131  24.675  0.00  0.00    +0.000 NA
ATOM     20  N   UNL     1      -1.600  15.655  24.667  0.00  0.00    +0.000 NA
ATOM     21  N   UNL     1      -0.751  14.843  24.050  0.00  0.00    +0.000 NA
ENDBRANCH  14  17
ENDBRANCH   8  11
ENDBRANCH   1   9
BRANCH   4  22
ATOM     22  S   UNL     1       2.955   3.635  18.197  0.00  0.00    +0.000 S 
ATOM     23  O   UNL     1       3.003   2.558  19.175  0.00  0.00    +0.000 OA
ATOM     24  O   UNL     1       2.082   3.556  17.053  0.00  0.00    +0.000 OA
BRANCH  22  25
ATOM     25  N   UNL     1       4.560   3.924  17.654  0.00  0.00    +0.000 NA
ATOM     26  C   UNL     1       4.704   4.392  16.255  0.00  0.00    +0.000 C 
ATOM     27  C   UNL     1       5.947   3.833  15.566  0.00  0.00    +0.000 C 
ATOM     28  C   UNL     1       7.230   4.592  15.884  0.00  0.00    +0.000 C 
ATOM     29  C   UNL     1       7.632   4.529  17.350  0.00  0.00    +0.000 C 
ATOM     30  C   UNL     1       6.653   5.266  18.253  0.00  0.00    +0.000 C 
ATOM     31  C   UNL     1       5.484   4.408  18.707  0.00  0.00    +0.000 C 
ENDBRANCH  22  25
ENDBRANCH   4  22
TORSDOF 5
ENDMDL
MODEL 2
REMARK VINA RESULT:      -8.6      0.943      1.317
REMARK  Name = 
REMARK  5 active torsions:
REMARK  status: ('A' for Active; 'I' for Inactive)
REMARK    1  A    between atoms: C_2  and  C_20
REMARK    2  A    between atoms: N_3  and  C_4
REMARK    3  A    between atoms: C_7  and  S_8
REMARK    4  A    between atoms: S_8  and  N_11
REMARK    5  A    between atoms: C_23  and  N_24
REMARK                            x       y       z     vdW  Elec       q    Type
REMARK                         _______ _______ _______ _____ _____    ______ ____
ROOT
ATOM      1  C   UNL     1       1.646   7.840  20.071  0.00  0.00    +0.000 A 
ATOM      2  C   UNL     1       2.215   7.743  18.797  0.00  0.00    +0.000 A 
ATOM      3  C   UNL     1       2.659   6.529  18.302  0.00  0.00    +0.000 A 
ATOM      4  C   UNL     1       2.542   5.381  19.076  0.00  0.00    +0.000 A 
ATOM      5  C   UNL     1       1.982   5.461  20.359  0.00  0.00    +0.000 A 
ATOM      6  C   UNL     1       1.564   6.696  20.868  0.00  0.00    +0.000 A 
ENDROOT
BRANCH   1   9
ATOM      7  O   UNL     1      -0.735   8.262  21.721  0.00  0.00    +0.000 OA
ATOM      8  C   UNL     1      -0.008   9.167  21.336  0.00  0.00    +0.000 C 
ATOM      9  N   UNL     1       1.142   9.063  20.558  0.00  0.00    +0.000 N 
ATOM     10  H   UNL     1       1.743   9.870  20.484  0.00  0.00    +0.000 HD
BRANCH   8  11
ATOM     11  C   UNL     1      -0.344  10.526  21.790  0.00  0.00    +0.000 A 
ATOM     12  C   UNL     1       0.265  11.600  21.131  0.00  0.00    +0.000 A 
ATOM     13  C   UNL     1       0.003  12.905  21.540  0.00  0.00    +0.000 A 
ATOM     14  C   UNL     1      -0.843  13.122  22.635  0.00  0.00    +0.000 A 
ATOM     15  C   UNL     1      -1.430  12.041  23.310  0.00  0.00    +0.000 A 
ATOM     16  C   UNL     1      -1.189  10.739  22.876  0.00  0.00    +0.000 A 
BRANCH  14  17
ATOM     17  N   UNL     1      -1.085  14.437  23.091  0.00  0.00    +0.000 N 
ATOM     18  C   UNL     1      -1.442  15.544  22.371  0.00  0.00    +0.000 A 
ATOM     19  N   UNL     1      -1.464  16.587  23.172  0.00  0.00    +0.000 NA
ATOM     20  N   UNL     1      -1.171  16.102  24.419  0.00  0.00    +0.000 NA
ATOM     21  N   UNL     1      -0.969  14.791  24.387  0.00  0.00    +0.000 NA
ENDBRANCH  14  17
ENDBRANCH   8  11
ENDBRANCH   1   9
BRANCH   4  22
ATOM     22  S   UNL     1       2.984   3.786  18.400  0.00  0.00    +0.000 S 
ATOM     23  O   UNL     1       3.047   2.856  19.517  0.00  0.00    +0.000 OA
ATOM     24  O   UNL     1       2.112   3.537  17.279  0.00  0.00    +0.000 OA
BRANCH  22  25
ATOM     25  N   UNL     1       4.584   4.021  17.818  0.00  0.00    +0.000 NA
ATOM     26  C   UNL     1       4.712   4.426  16.398  0.00  0.00    +0.000 C 
ATOM     27  C   UNL     1       5.933   3.813  15.713  0.00  0.00    +0.000 C 
ATOM     28  C   UNL     1       7.236   4.560  15.978  0.00  0.00    +0.000 C 
ATOM     29  C   UNL     1       7.662   4.552  17.438  0.00  0.00    +0.000 C 
ATOM     30  C   UNL     1       6.712   5.346  18.324  0.00  0.00    +0.000 C 
ATOM     31  C   UNL     1       5.535   4.531  18.834  0.00  0.00    +0.000 C 
ENDBRANCH  22  25
ENDBRANCH   4  22
TORSDOF 5
ENDMDL
MODEL 3
REMARK VINA RESULT:      -8.5      1.223      1.755
REMARK  Name = 
REMARK  5 active torsions:
REMARK  status: ('A' for Active; 'I' for Inactive)
REMARK    1  A    between atoms: C_2  and  C_20
REMARK    2  A    between atoms: N_3  and  C_4
REMARK    3  A    between atoms: C_7  and  S_8
REMARK    4  A    between atoms: S_8  and  N_11
REMARK    5  A    between atoms: C_23  and  N_24
REMARK                            x       y       z     vdW  Elec       q    Type
REMARK                         _______ _______ _______ _____ _____    ______ ____
ROOT
ATOM      1  C   UNL     1       1.760   6.544  20.470  0.00  0.00    +0.000 A 
ATOM      2  C   UNL     1       1.483   5.224  20.839  0.00  0.00    +0.000 A 
ATOM      3  C   UNL     1       2.204   4.166  20.312  0.00  0.00    +0.000 A 
ATOM      4  C   UNL     1       3.223   4.411  19.399  0.00  0.00    +0.000 A 
ATOM      5  C   UNL     1       3.509   5.727  19.011  0.00  0.00    +0.000 A 
ATOM      6  C   UNL     1       2.757   6.790  19.522  0.00  0.00    +0.000 A 
ENDROOT
BRANCH   1   9
ATOM      7  O   UNL     1       1.245   9.170  19.283  0.00  0.00    +0.000 OA
ATOM      8  C   UNL     1       0.874   8.848  20.404  0.00  0.00    +0.000 C 
ATOM      9  N   UNL     1       1.067   7.628  21.045  0.00  0.00    +0.000 N 
ATOM     10  H   UNL     1       0.539   7.442  21.885  0.00  0.00    +0.000 HD
BRANCH   8  11
ATOM     11  C   UNL     1       0.081   9.837  21.149  0.00  0.00    +0.000 A 
ATOM     12  C   UNL     1      -0.236   9.546  22.481  0.00  0.00    +0.000 A 
ATOM     13  C   UNL     1      -1.010  10.435  23.222  0.00  0.00    +0.000 A 
ATOM     14  C   UNL     1      -1.491  11.599  22.609  0.00  0.00    +0.000 A 
ATOM     15  C   UNL     1      -1.193  11.875  21.266  0.00  0.00    +0.000 A 
ATOM     16  C   UNL     1      -0.393  10.996  20.539  0.00  0.00    +0.000 A 
BRANCH  14  17
ATOM     17  N   UNL     1      -2.313  12.491  23.333  0.00  0.00    +0.000 N 
ATOM     18  C   UNL     1      -2.072  13.792  23.680  0.00  0.00    +0.000 A 
ATOM     19  N   UNL     1      -3.055  14.222  24.441  0.00  0.00    +0.000 NA
ATOM     20  N   UNL     1      -3.945  13.183  24.516  0.00  0.00    +0.000 NA
ATOM     21  N   UNL     1      -3.519  12.137  23.821  0.00  0.00    +0.000 NA
ENDBRANCH  14  17
ENDBRANCH   8  11
ENDBRANCH   1   9
BRANCH   4  22
ATOM     22  S   UNL     1       4.252   3.071  18.814  0.00  0.00    +0.000 S 
ATOM     23  O   UNL     1       5.130   2.700  19.914  0.00  0.00    +0.000 OA
ATOM     24  O   UNL     1       3.384   2.097  18.201  0.00  0.00    +0.000 OA
BRANCH  22  25
ATOM     25  N   UNL     1       5.217   3.802  17.594  0.00  0.00    +0.000 NA
ATOM     26  C   UNL     1       4.515   4.188  16.347  0.00  0.00    +0.000 C 
ATOM     27  C   UNL     1       5.372   3.992  15.097  0.00  0.00    +0.000 C 
ATOM     28  C   UNL     1       6.347   5.132  14.826  0.00  0.00    +0.000 C 
ATOM     29  C   UNL     1       7.406   5.304  15.905  0.00  0.00    +0.000 C 
ATOM     30  C   UNL     1       6.814   5.766  17.229  0.00  0.00    +0.000 C 
ATOM     31  C   UNL     1       6.337   4.623  18.111  0.00  0.00    +0.000 C 
ENDBRANCH  22  25
ENDBRANCH   4  22
TORSDOF 5
ENDMDL
MODEL 4
REMARK VINA RESULT:      -8.4      0.984      1.428
REMARK  Name = 
REMARK  5 active torsions:
REMARK  status: ('A' for Active; 'I' for Inactive)
REMARK    1  A    between atoms: C_2  and  C_20
REMARK    2  A    between atoms: N_3  and  C_4
REMARK    3  A    between atoms: C_7  and  S_8
REMARK    4  A    between atoms: S_8  and  N_11
REMARK    5  A    between atoms: C_23  and  N_24
REMARK                            x       y       z     vdW  Elec       q    Type
REMARK                         _______ _______ _______ _____ _____    ______ ____
ROOT
ATOM      1  C   UNL     1       1.633   7.576  19.861  0.00  0.00    +0.000 A 
ATOM      2  C   UNL     1       1.593   6.462  20.705  0.00  0.00    +0.000 A 
ATOM      3  C   UNL     1       1.982   5.211  20.258  0.00  0.00    +0.000 A 
ATOM      4  C   UNL     1       2.419   5.049  18.949  0.00  0.00    +0.000 A 
ATOM      5  C   UNL     1       2.457   6.153  18.086  0.00  0.00    +0.000 A 
ATOM      6  C   UNL     1       2.034   7.409  18.533  0.00  0.00    +0.000 A 
ENDROOT
BRANCH   1   9
ATOM      7  O   UNL     1      -0.672   8.333  21.499  0.00  0.00    +0.000 OA
ATOM      8  C   UNL     1       0.167   9.129  21.100  0.00  0.00    +0.000 C 
ATOM      9  N   UNL     1       1.292   8.863  20.326  0.00  0.00    +0.000 N 
ATOM     10  H   UNL     1       1.993   9.583  20.240  0.00  0.00    +0.000 HD
BRANCH   8  11
ATOM     11  C   UNL     1       0.011  10.527  21.531  0.00  0.00    +0.000 A 
ATOM     12  C   UNL     1      -0.841  10.784  22.612  0.00  0.00    +0.000 A 
ATOM     13  C   UNL     1      -1.046  12.092  23.039  0.00  0.00    +0.000 A 
ATOM     14  C   UNL     1      -0.420  13.142  22.356  0.00  0.00    +0.000 A 
ATOM     15  C   UNL     1       0.412  12.884  21.257  0.00  0.00    +0.000 A 
ATOM     16  C   UNL     1       0.638  11.570  20.852  0.00  0.00    +0.000 A 
BRANCH  14  17
ATOM     17  N   UNL     1      -0.651  14.479  22.749  0.00  0.00    +0.000 N 
ATOM     18  C   UNL     1      -0.699  15.607  21.975  0.00  0.00    +0.000 A 
ATOM     19  N   UNL     1      -0.837  16.656  22.756  0.00  0.00    +0.000 NA
ATOM     20  N   UNL     1      -0.933  16.160  24.029  0.00  0.00    +0.000 NA
ATOM     21  N   UNL     1      -0.852  14.836  24.034  0.00  0.00    +0.000 NA
ENDBRANCH  14  17
ENDBRANCH   8  11
ENDBRANCH   1   9
BRANCH   4  22
ATOM     22  S   UNL     1       3.052   3.470  18.398  0.00  0.00    +0.000 S 
ATOM     23  O   UNL     1       3.186   2.632  19.580  0.00  0.00    +0.000 OA
ATOM     24  O   UNL     1       2.243   3.049  17.281  0.00  0.00    +0.000 OA
BRANCH  22  25
ATOM     25  N   UNL     1       4.632   3.840  17.832  0.00  0.00    +0.000 NA
ATOM     26  C   UNL     1       4.739   4.264  16.416  0.00  0.00    +0.000 C 
ATOM     27  C   UNL     1       6.012   3.760  15.738  0.00  0.00    +0.000 C 
ATOM     28  C   UNL     1       7.246   4.609  16.020  0.00  0.00    +0.000 C 
ATOM     29  C   UNL     1       7.658   4.626  17.484  0.00  0.00    +0.000 C 
ATOM     30  C   UNL     1       6.639   5.333  18.366  0.00  0.00    +0.000 C 
ATOM     31  C   UNL     1       5.529   4.419  18.860  0.00  0.00    +0.000 C 
ENDBRANCH  22  25
ENDBRANCH   4  22
TORSDOF 5
ENDMDL
MODEL 5
REMARK VINA RESULT:      -8.3      1.129      2.123
REMARK  Name = 
REMARK  5 active torsions:
REMARK  status: ('A' for Active; 'I' for Inactive)
REMARK    1  A    between atoms: C_2  and  C_20
REMARK    2  A    between atoms: N_3  and  C_4
REMARK    3  A    between atoms: C_7  and  S_8
REMARK    4  A    between atoms: S_8  and  N_11
REMARK    5  A    between atoms: C_23  and  N_24
REMARK                            x       y       z     vdW  Elec       q    Type
REMARK                         _______ _______ _______ _____ _____    ______ ____
ROOT
ATOM      1  C   UNL     1       1.724   6.728  20.476  0.00  0.00    +0.000 A 
ATOM      2  C   UNL     1       1.534   5.404  20.886  0.00  0.00    +0.000 A 
ATOM      3  C   UNL     1       2.276   4.372  20.339  0.00  0.00    +0.000 A 
ATOM      4  C   UNL     1       3.228   4.645  19.364  0.00  0.00    +0.000 A 
ATOM      5  C   UNL     1       3.425   5.964  18.934  0.00  0.00    +0.000 A 
ATOM      6  C   UNL     1       2.651   7.001  19.467  0.00  0.00    +0.000 A 
ENDROOT
BRANCH   1   9
ATOM      7  O   UNL     1       1.042   9.312  19.281  0.00  0.00    +0.000 OA
ATOM      8  C   UNL     1       0.737   8.991  20.422  0.00  0.00    +0.000 C 
ATOM      9  N   UNL     1       1.011   7.789  21.069  0.00  0.00    +0.000 N 
ATOM     10  H   UNL     1       0.531   7.594  21.935  0.00  0.00    +0.000 HD
BRANCH   8  11
ATOM     11  C   UNL     1      -0.063   9.956  21.191  0.00  0.00    +0.000 A 
ATOM     12  C   UNL     1      -0.455  11.136  20.546  0.00  0.00    +0.000 A 
ATOM     13  C   UNL     1      -1.188  12.095  21.239  0.00  0.00    +0.000 A 
ATOM     14  C   UNL     1      -1.496  11.880  22.588  0.00  0.00    +0.000 A 
ATOM     15  C   UNL     1      -1.079  10.709  23.238  0.00  0.00    +0.000 A 
ATOM     16  C   UNL     1      -0.371   9.738  22.532  0.00  0.00    +0.000 A 
BRANCH  14  17
ATOM     17  N   UNL     1      -2.201  12.863  23.317  0.00  0.00    +0.000 N 
ATOM     18  C   UNL     1      -1.773  14.091  23.741  0.00  0.00    +0.000 A 
ATOM     19  N   UNL     1      -2.714  14.643  24.476  0.00  0.00    +0.000 NA
ATOM     20  N   UNL     1      -3.763  13.762  24.455  0.00  0.00    +0.000 NA
ATOM     21  N   UNL     1      -3.474  12.690  23.729  0.00  0.00    +0.000 NA
ENDBRANCH  14  17
ENDBRANCH   8  11
ENDBRANCH   1   9
BRANCH   4  22
ATOM     22  S   UNL     1       4.287   3.343  18.747  0.00  0.00    +0.000 S 
ATOM     23  O   UNL     1       5.216   3.011  19.816  0.00  0.00    +0.000 OA
ATOM     24  O   UNL     1       3.436   2.334  18.167  0.00  0.00    +0.000 OA
BRANCH  22  25
ATOM     25  N   UNL     1       5.180   4.107  17.492  0.00  0.00    +0.000 NA
ATOM     26  C   UNL     1       6.563   4.519  17.830  0.00  0.00    +0.000 C 
ATOM     27  C   UNL     1       6.974   5.829  17.159  0.00  0.00    +0.000 C 
ATOM     28  C   UNL     1       7.440   5.671  15.716  0.00  0.00    +0.000 C 
ATOM     29  C   UNL     1       6.359   5.164  14.774  0.00  0.00    +0.000 C 
ATOM     30  C   UNL     1       5.946   3.732  15.081  0.00  0.00    +0.000 C 
ATOM     31  C   UNL     1       4.849   3.629  16.129  0.00  0.00    +0.000 C 
ENDBRANCH  22  25
ENDBRANCH   4  22
TORSDOF 5
ENDMDL
MODEL 6
REMARK VINA RESULT:      -8.3      1.585      2.130
REMARK  Name = 
REMARK  5 active torsions:
REMARK  status: ('A' for Active; 'I' for Inactive)
REMARK    1  A    between atoms: C_2  and  C_20
REMARK    2  A    between atoms: N_3  and  C_4
REMARK    3  A    between atoms: C_7  and  S_8
REMARK    4  A    between atoms: S_8  and  N_11
REMARK    5  A    between atoms: C_23  and  N_24
REMARK                            x       y       z     vdW  Elec       q    Type
REMARK                         _______ _______ _______ _____ _____    ______ ____
ROOT
ATOM      1  C   UNL     1       1.615   7.183  20.296  0.00  0.00    +0.000 A 
ATOM      2  C   UNL     1       2.543   7.331  19.259  0.00  0.00    +0.000 A 
ATOM      3  C   UNL     1       3.375   6.289  18.889  0.00  0.00    +0.000 A 
ATOM      4  C   UNL     1       3.296   5.071  19.552  0.00  0.00    +0.000 A 
ATOM      5  C   UNL     1       2.378   4.907  20.599  0.00  0.00    +0.000 A 
ATOM      6  C   UNL     1       1.560   5.972  20.991  0.00  0.00    +0.000 A 
ENDROOT
BRANCH   1   9
ATOM      7  O   UNL     1       1.953   9.206  22.385  0.00  0.00    +0.000 OA
ATOM      8  C   UNL     1       0.971   9.139  21.658  0.00  0.00    +0.000 C 
ATOM      9  N   UNL     1       0.727   8.222  20.640  0.00  0.00    +0.000 N 
ATOM     10  H   UNL     1      -0.031   8.409  20.001  0.00  0.00    +0.000 HD
BRANCH   8  11
ATOM     11  C   UNL     1      -0.054  10.180  21.831  0.00  0.00    +0.000 A 
ATOM     12  C   UNL     1      -0.660  10.293  23.088  0.00  0.00    +0.000 A 
ATOM     13  C   UNL     1      -1.657  11.242  23.296  0.00  0.00    +0.000 A 
ATOM     14  C   UNL     1      -2.065  12.052  22.229  0.00  0.00    +0.000 A 
ATOM     15  C   UNL     1      -1.473  11.919  20.964  0.00  0.00    +0.000 A 
ATOM     16  C   UNL     1      -0.455  10.987  20.769  0.00  0.00    +0.000 A 
BRANCH  14  17
ATOM     17  N   UNL     1      -3.104  12.991  22.411  0.00  0.00    +0.000 N 
ATOM     18  C   UNL     1      -3.016  14.333  22.664  0.00  0.00    +0.000 A 
ATOM     19  N   UNL     1      -4.224  14.811  22.867  0.00  0.00    +0.000 NA
ATOM     20  N   UNL     1      -5.076  13.755  22.679  0.00  0.00    +0.000 NA
ATOM     21  N   UNL     1      -4.408  12.650  22.371  0.00  0.00    +0.000 NA
ENDBRANCH  14  17
ENDBRANCH   8  11
ENDBRANCH   1   9
BRANCH   4  22
ATOM     22  S   UNL     1       4.266   3.676  18.997  0.00  0.00    +0.000 S 
ATOM     23  O   UNL     1       5.216   3.373  20.057  0.00  0.00    +0.000 OA
ATOM     24  O   UNL     1       3.346   2.674  18.519  0.00  0.00    +0.000 OA
BRANCH  22  25
ATOM     25  N   UNL     1       5.150   4.301  17.661  0.00  0.00    +0.000 NA
ATOM     26  C   UNL     1       6.571   4.639  17.916  0.00  0.00    +0.000 C 
ATOM     27  C   UNL     1       7.034   5.876  17.149  0.00  0.00    +0.000 C 
ATOM     28  C   UNL     1       7.425   5.600  15.701  0.00  0.00    +0.000 C 
ATOM     29  C   UNL     1       6.273   5.111  14.837  0.00  0.00    +0.000 C 
ATOM     30  C   UNL     1       5.782   3.731  15.250  0.00  0.00    +0.000 C 
ATOM     31  C   UNL     1       4.729   3.766  16.345  0.00  0.00    +0.000 C 
ENDBRANCH  22  25
ENDBRANCH   4  22
TORSDOF 5
ENDMDL
MODEL 7
REMARK VINA RESULT:      -8.3      0.898      1.676
REMARK  Name = 
REMARK  5 active torsions:
REMARK  status: ('A' for Active; 'I' for Inactive)
REMARK    1  A    between atoms: C_2  and  C_20
REMARK    2  A    between atoms: N_3  and  C_4
REMARK    3  A    between atoms: C_7  and  S_8
REMARK    4  A    between atoms: S_8  and  N_11
REMARK    5  A    between atoms: C_23  and  N_24
REMARK                            x       y       z     vdW  Elec       q    Type
REMARK                         _______ _______ _______ _____ _____    ______ ____
ROOT
ATOM      1  C   UNL     1       1.631   7.643  20.049  0.00  0.00    +0.000 A 
ATOM      2  C   UNL     1       1.379   6.467  20.764  0.00  0.00    +0.000 A 
ATOM      3  C   UNL     1       1.742   5.231  20.258  0.00  0.00    +0.000 A 
ATOM      4  C   UNL     1       2.368   5.146  19.021  0.00  0.00    +0.000 A 
ATOM      5  C   UNL     1       2.620   6.313  18.286  0.00  0.00    +0.000 A 
ATOM      6  C   UNL     1       2.223   7.558  18.787  0.00  0.00    +0.000 A 
ENDROOT
BRANCH   1   9
ATOM      7  O   UNL     1       0.148   9.810  18.754  0.00  0.00    +0.000 OA
ATOM      8  C   UNL     1       0.605   9.884  19.887  0.00  0.00    +0.000 C 
ATOM      9  N   UNL     1       1.314   8.909  20.583  0.00  0.00    +0.000 N 
ATOM     10  H   UNL     1       1.457   9.038  21.574  0.00  0.00    +0.000 HD
BRANCH   8  11
ATOM     11  C   UNL     1       0.330  11.121  20.634  0.00  0.00    +0.000 A 
ATOM     12  C   UNL     1       1.155  12.225  20.390  0.00  0.00    +0.000 A 
ATOM     13  C   UNL     1       0.956  13.410  21.092  0.00  0.00    +0.000 A 
ATOM     14  C   UNL     1      -0.052  13.470  22.063  0.00  0.00    +0.000 A 
ATOM     15  C   UNL     1      -0.860  12.353  22.324  0.00  0.00    +0.000 A 
ATOM     16  C   UNL     1      -0.675  11.179  21.596  0.00  0.00    +0.000 A 
BRANCH  14  17
ATOM     17  N   UNL     1      -0.239  14.651  22.815  0.00  0.00    +0.000 N 
ATOM     18  C   UNL     1       0.014  15.947  22.456  0.00  0.00    +0.000 A 
ATOM     19  N   UNL     1      -0.206  16.728  23.491  0.00  0.00    +0.000 NA
ATOM     20  N   UNL     1      -0.658  15.904  24.487  0.00  0.00    +0.000 NA
ATOM     21  N   UNL     1      -0.711  14.643  24.077  0.00  0.00    +0.000 NA
ENDBRANCH  14  17
ENDBRANCH   8  11
ENDBRANCH   1   9
BRANCH   4  22
ATOM     22  S   UNL     1       2.965   3.572  18.417  0.00  0.00    +0.000 S 
ATOM     23  O   UNL     1       3.065   2.688  19.568  0.00  0.00    +0.000 OA
ATOM     24  O   UNL     1       2.157   3.214  17.278  0.00  0.00    +0.000 OA
BRANCH  22  25
ATOM     25  N   UNL     1       4.560   3.921  17.880  0.00  0.00    +0.000 NA
ATOM     26  C   UNL     1       4.693   4.381  16.477  0.00  0.00    +0.000 C 
ATOM     27  C   UNL     1       5.963   3.866  15.801  0.00  0.00    +0.000 C 
ATOM     28  C   UNL     1       7.212   4.679  16.119  0.00  0.00    +0.000 C 
ATOM     29  C   UNL     1       7.607   4.647  17.588  0.00  0.00    +0.000 C 
ATOM     30  C   UNL     1       6.593   5.353  18.477  0.00  0.00    +0.000 C 
ATOM     31  C   UNL     1       5.457   4.452  18.934  0.00  0.00    +0.000 C 
ENDBRANCH  22  25
ENDBRANCH   4  22
TORSDOF 5
ENDMDL
MODEL 8
REMARK VINA RESULT:      -8.3      0.875      1.714
REMARK  Name = 
REMARK  5 active torsions:
REMARK  status: ('A' for Active; 'I' for Inactive)
REMARK    1  A    between atoms: C_2  and  C_20
REMARK    2  A    between atoms: N_3  and  C_4
REMARK    3  A    between atoms: C_7  and  S_8
REMARK    4  A    between atoms: S_8  and  N_11
REMARK    5  A    between atoms: C_23  and  N_24
REMARK                            x       y       z     vdW  Elec       q    Type
REMARK                         _______ _______ _______ _____ _____    ______ ____
ROOT
ATOM      1  C   UNL     1       1.534   8.212  20.331  0.00  0.00    +0.000 A 
ATOM      2  C   UNL     1       2.136   8.180  19.069  0.00  0.00    +0.000 A 
ATOM      3  C   UNL     1       2.527   6.983  18.493  0.00  0.00    +0.000 A 
ATOM      4  C   UNL     1       2.321   5.788  19.171  0.00  0.00    +0.000 A 
ATOM      5  C   UNL     1       1.727   5.802  20.441  0.00  0.00    +0.000 A 
ATOM      6  C   UNL     1       1.362   7.016  21.033  0.00  0.00    +0.000 A 
ENDROOT
BRANCH   1   9
ATOM      7  O   UNL     1      -0.702   9.880  19.445  0.00  0.00    +0.000 OA
ATOM      8  C   UNL     1       0.008  10.152  20.403  0.00  0.00    +0.000 C 
ATOM      9  N   UNL     1       1.084   9.421  20.899  0.00  0.00    +0.000 N 
ATOM     10  H   UNL     1       1.449   9.667  21.807  0.00  0.00    +0.000 HD
BRANCH   8  11
ATOM     11  C   UNL     1      -0.340  11.362  21.164  0.00  0.00    +0.000 A 
ATOM     12  C   UNL     1       0.113  12.592  20.673  0.00  0.00    +0.000 A 
ATOM     13  C   UNL     1      -0.164  13.764  21.372  0.00  0.00    +0.000 A 
ATOM     14  C   UNL     1      -0.867  13.690  22.581  0.00  0.00    +0.000 A 
ATOM     15  C   UNL     1      -1.297  12.453  23.083  0.00  0.00    +0.000 A 
ATOM     16  C   UNL     1      -1.043  11.286  22.364  0.00  0.00    +0.000 A 
BRANCH  14  17
ATOM     17  N   UNL     1      -1.119  14.864  23.324  0.00  0.00    +0.000 N 
ATOM     18  C   UNL     1      -1.572  16.079  22.885  0.00  0.00    +0.000 A 
ATOM     19  N   UNL     1      -1.568  16.927  23.890  0.00  0.00    +0.000 NA
ATOM     20  N   UNL     1      -1.159  16.205  24.981  0.00  0.00    +0.000 NA
ATOM     21  N   UNL     1      -0.913  14.943  24.654  0.00  0.00    +0.000 NA
ENDBRANCH  14  17
ENDBRANCH   8  11
ENDBRANCH   1   9
BRANCH   4  22
ATOM     22  S   UNL     1       2.694   4.227  18.384  0.00  0.00    +0.000 S 
ATOM     23  O   UNL     1       2.730   3.222  19.435  0.00  0.00    +0.000 OA
ATOM     24  O   UNL     1       1.804   4.088  17.259  0.00  0.00    +0.000 OA
BRANCH  22  25
ATOM     25  N   UNL     1       4.297   4.438  17.802  0.00  0.00    +0.000 NA
ATOM     26  C   UNL     1       5.388   4.121  18.756  0.00  0.00    +0.000 C 
ATOM     27  C   UNL     1       6.590   5.053  18.614  0.00  0.00    +0.000 C 
ATOM     28  C   UNL     1       7.547   4.668  17.491  0.00  0.00    +0.000 C 
ATOM     29  C   UNL     1       6.927   4.747  16.104  0.00  0.00    +0.000 C 
ATOM     30  C   UNL     1       5.836   3.707  15.895  0.00  0.00    +0.000 C 
ATOM     31  C   UNL     1       4.463   4.169  16.354  0.00  0.00    +0.000 C 
ENDBRANCH  22  25
ENDBRANCH   4  22
TORSDOF 5
ENDMDL
MODEL 9
REMARK VINA RESULT:      -8.1      1.391      2.076
REMARK  Name = 
REMARK  5 active torsions:
REMARK  status: ('A' for Active; 'I' for Inactive)
REMARK    1  A    between atoms: C_2  and  C_20
REMARK    2  A    between atoms: N_3  and  C_4
REMARK    3  A    between atoms: C_7  and  S_8
REMARK    4  A    between atoms: S_8  and  N_11
REMARK    5  A    between atoms: C_23  and  N_24
REMARK                            x       y       z     vdW  Elec       q    Type
REMARK                         _______ _______ _______ _____ _____    ______ ____
ROOT
ATOM      1  C   UNL     1       1.575   7.338  20.311  0.00  0.00    +0.000 A 
ATOM      2  C   UNL     1       2.459   7.440  19.232  0.00  0.00    +0.000 A 
ATOM      3  C   UNL     1       3.232   6.363  18.836  0.00  0.00    +0.000 A 
ATOM      4  C   UNL     1       3.137   5.155  19.517  0.00  0.00    +0.000 A 
ATOM      5  C   UNL     1       2.264   5.038  20.607  0.00  0.00    +0.000 A 
ATOM      6  C   UNL     1       1.507   6.138  21.023  0.00  0.00    +0.000 A 
ENDROOT
BRANCH   1   9
ATOM      7  O   UNL     1       1.940   9.188  22.551  0.00  0.00    +0.000 OA
ATOM      8  C   UNL     1       0.996   9.242  21.774  0.00  0.00    +0.000 C 
ATOM      9  N   UNL     1       0.744   8.414  20.683  0.00  0.00    +0.000 N 
ATOM     10  H   UNL     1       0.036   8.698  20.023  0.00  0.00    +0.000 HD
BRANCH   8  11
ATOM     11  C   UNL     1       0.039  10.341  21.969  0.00  0.00    +0.000 A 
ATOM     12  C   UNL     1       0.091  11.416  21.073  0.00  0.00    +0.000 A 
ATOM     13  C   UNL     1      -0.774  12.495  21.231  0.00  0.00    +0.000 A 
ATOM     14  C   UNL     1      -1.665  12.506  22.312  0.00  0.00    +0.000 A 
ATOM     15  C   UNL     1      -1.696  11.439  23.223  0.00  0.00    +0.000 A 
ATOM     16  C   UNL     1      -0.850  10.348  23.042  0.00  0.00    +0.000 A 
BRANCH  14  17
ATOM     17  N   UNL     1      -2.519  13.613  22.512  0.00  0.00    +0.000 N 
ATOM     18  C   UNL     1      -2.282  14.937  22.262  0.00  0.00    +0.000 A 
ATOM     19  N   UNL     1      -3.306  15.644  22.690  0.00  0.00    +0.000 NA
ATOM     20  N   UNL     1      -4.214  14.732  23.159  0.00  0.00    +0.000 NA
ATOM     21  N   UNL     1      -3.759  13.492  23.027  0.00  0.00    +0.000 NA
ENDBRANCH  14  17
ENDBRANCH   8  11
ENDBRANCH   1   9
BRANCH   4  22
ATOM     22  S   UNL     1       4.027   3.718  18.935  0.00  0.00    +0.000 S 
ATOM     23  O   UNL     1       4.914   3.304  20.012  0.00  0.00    +0.000 OA
ATOM     24  O   UNL     1       3.057   2.805  18.384  0.00  0.00    +0.000 OA
BRANCH  22  25
ATOM     25  N   UNL     1       5.001   4.332  17.658  0.00  0.00    +0.000 NA
ATOM     26  C   UNL     1       6.416   4.620  17.994  0.00  0.00    +0.000 C 
ATOM     27  C   UNL     1       6.959   5.852  17.271  0.00  0.00    +0.000 C 
ATOM     28  C   UNL     1       7.419   5.583  15.842  0.00  0.00    +0.000 C 
ATOM     29  C   UNL     1       6.300   5.143  14.910  0.00  0.00    +0.000 C 
ATOM     30  C   UNL     1       5.744   3.774  15.275  0.00  0.00    +0.000 C 
ATOM     31  C   UNL     1       4.635   3.828  16.313  0.00  0.00    +0.000 C 
ENDBRANCH  22  25
ENDBRANCH   4  22
TORSDOF 5
ENDMDL
