MODEL 1
REMARK VINA RESULT:      -8.8      0.000      0.000
REMARK  Name = 
REMARK  6 active torsions:
REMARK  status: ('A' for Active; 'I' for Inactive)
REMARK    1  A    between atoms: C_1  and  N_2
REMARK    2  A    between atoms: C_8  and  N_9
REMARK    3  A    between atoms: C_10  and  C_12
REMARK    4  A    between atoms: C_12  and  C_13
REMARK    5  A    between atoms: C_13  and  C_14
REMARK    6  A    between atoms: C_17  and  C_18
REMARK                            x       y       z     vdW  Elec       q    Type
REMARK                         _______ _______ _______ _____ _____    ______ ____
ROOT
ATOM      1  N   UNL     1       2.291   5.082  20.991  0.00  0.00    +0.000 N 
ATOM      2  C   UNL     1       1.442   3.998  20.870  0.00  0.00    +0.000 C 
ATOM      3  O   UNL     1       0.475   3.909  20.114  0.00  0.00    +0.000 OA
ATOM      4  H   UNL     1       3.145   4.949  21.520  0.00  0.00    +0.000 HD
ENDROOT
BRANCH   1  12
ATOM      5  C   UNL     1       0.366  11.953  19.245  0.00  0.00    +0.000 C 
ATOM      6  N   UNL     1       0.910  10.619  19.335  0.00  0.00    +0.000 N 
ATOM      7  C   UNL     1       1.673  10.019  18.370  0.00  0.00    +0.000 C 
ATOM      8  O   UNL     1       2.048  10.462  17.301  0.00  0.00    +0.000 OA
ATOM      9  C   UNL     1       1.970   8.679  18.860  0.00  0.00    +0.000 A 
ATOM     10  C   UNL     1       2.696   7.665  18.283  0.00  0.00    +0.000 A 
ATOM     11  C   UNL     1       2.789   6.465  18.991  0.00  0.00    +0.000 A 
ATOM     12  C   UNL     1       2.182   6.290  20.259  0.00  0.00    +0.000 A 
ATOM     13  C   UNL     1       1.433   7.343  20.812  0.00  0.00    +0.000 A 
ATOM     14  C   UNL     1       1.357   8.524  20.090  0.00  0.00    +0.000 A 
ATOM     15  C   UNL     1       0.673   9.781  20.391  0.00  0.00    +0.000 C 
ATOM     16  O   UNL     1       0.025   9.980  21.401  0.00  0.00    +0.000 OA
ENDBRANCH   1  12
BRANCH   2  17
ATOM     17  C   UNL     1       1.793   2.811  21.743  0.00  0.00    +0.000 C 
BRANCH  17  18
ATOM     18  C   UNL     1       3.172   2.286  21.356  0.00  0.00    +0.000 C 
BRANCH  18  19
ATOM     19  C   UNL     1       3.422   2.412  19.899  0.00  0.00    +0.000 A 
ATOM     20  N   UNL     1       2.860   1.768  18.899  0.00  0.00    +0.000 NA
ATOM     21  N   UNL     1       3.443   2.259  17.750  0.00  0.00    +0.000 NA
ATOM     22  C   UNL     1       4.318   3.173  18.127  0.00  0.00    +0.000 A 
ATOM     23  O   UNL     1       4.360   3.319  19.491  0.00  0.00    +0.000 OA
BRANCH  22  24
ATOM     24  C   UNL     1       5.157   4.056  17.326  0.00  0.00    +0.000 A 
ATOM     25  C   UNL     1       6.213   4.753  17.936  0.00  0.00    +0.000 A 
ATOM     26  C   UNL     1       7.082   5.544  17.179  0.00  0.00    +0.000 A 
ATOM     27  C   UNL     1       6.903   5.654  15.802  0.00  0.00    +0.000 A 
ATOM     28  C   UNL     1       5.845   4.991  15.185  0.00  0.00    +0.000 A 
ATOM     29  C   UNL     1       4.975   4.201  15.942  0.00  0.00    +0.000 A 
ENDBRANCH  22  24
ENDBRANCH  18  19
ENDBRANCH  17  18
ENDBRANCH   2  17
TORSDOF 5
ENDMDL
MODEL 2
REMARK VINA RESULT:      -8.7      1.296      1.679
REMARK  Name = 
REMARK  6 active torsions:
REMARK  status: ('A' for Active; 'I' for Inactive)
REMARK    1  A    between atoms: C_1  and  N_2
REMARK    2  A    between atoms: C_8  and  N_9
REMARK    3  A    between atoms: C_10  and  C_12
REMARK    4  A    between atoms: C_12  and  C_13
REMARK    5  A    between atoms: C_13  and  C_14
REMARK    6  A    between atoms: C_17  and  C_18
REMARK                            x       y       z     vdW  Elec       q    Type
REMARK                         _______ _______ _______ _____ _____    ______ ____
ROOT
ATOM      1  N   UNL     1       2.549   5.325  20.676  0.00  0.00    +0.000 N 
ATOM      2  C   UNL     1       1.800   4.168  20.573  0.00  0.00    +0.000 C 
ATOM      3  O   UNL     1       0.659   4.074  20.121  0.00  0.00    +0.000 OA
ATOM      4  H   UNL     1       3.532   5.227  20.900  0.00  0.00    +0.000 HD
ENDROOT
BRANCH   1  12
ATOM      5  C   UNL     1      -0.710  11.903  20.937  0.00  0.00    +0.000 C 
ATOM      6  N   UNL     1       0.040  10.711  20.623  0.00  0.00    +0.000 N 
ATOM      7  C   UNL     1       0.687  10.486  19.437  0.00  0.00    +0.000 C 
ATOM      8  O   UNL     1       0.777  11.206  18.462  0.00  0.00    +0.000 OA
ATOM      9  C   UNL     1       1.275   9.156  19.541  0.00  0.00    +0.000 A 
ATOM     10  C   UNL     1       2.023   8.445  18.635  0.00  0.00    +0.000 A 
ATOM     11  C   UNL     1       2.435   7.164  19.013  0.00  0.00    +0.000 A 
ATOM     12  C   UNL     1       2.116   6.615  20.280  0.00  0.00    +0.000 A 
ATOM     13  C   UNL     1       1.335   7.364  21.175  0.00  0.00    +0.000 A 
ATOM     14  C   UNL     1       0.940   8.632  20.777  0.00  0.00    +0.000 A 
ATOM     15  C   UNL     1       0.142   9.642  21.471  0.00  0.00    +0.000 C 
ATOM     16  O   UNL     1      -0.323   9.496  22.585  0.00  0.00    +0.000 OA
ENDBRANCH   1  12
BRANCH   2  17
ATOM     17  C   UNL     1       2.504   2.909  21.037  0.00  0.00    +0.000 C 
BRANCH  17  18
ATOM     18  C   UNL     1       3.040   2.151  19.826  0.00  0.00    +0.000 C 
BRANCH  18  19
ATOM     19  C   UNL     1       3.623   3.066  18.815  0.00  0.00    +0.000 A 
ATOM     20  N   UNL     1       3.276   3.251  17.560  0.00  0.00    +0.000 NA
ATOM     21  N   UNL     1       4.130   4.213  17.063  0.00  0.00    +0.000 NA
ATOM     22  C   UNL     1       4.937   4.554  18.051  0.00  0.00    +0.000 A 
ATOM     23  O   UNL     1       4.672   3.855  19.202  0.00  0.00    +0.000 OA
BRANCH  22  24
ATOM     24  C   UNL     1       5.978   5.573  18.103  0.00  0.00    +0.000 A 
ATOM     25  C   UNL     1       7.016   5.459  19.043  0.00  0.00    +0.000 A 
ATOM     26  C   UNL     1       8.070   6.376  19.065  0.00  0.00    +0.000 A 
ATOM     27  C   UNL     1       8.097   7.426  18.149  0.00  0.00    +0.000 A 
ATOM     28  C   UNL     1       7.063   7.571  17.228  0.00  0.00    +0.000 A 
ATOM     29  C   UNL     1       6.008   6.653  17.208  0.00  0.00    +0.000 A 
ENDBRANCH  22  24
ENDBRANCH  18  19
ENDBRANCH  17  18
ENDBRANCH   2  17
TORSDOF 5
ENDMDL
MODEL 3
REMARK VINA RESULT:      -8.5      2.507      3.486
REMARK  Name = 
REMARK  6 active torsions:
REMARK  status: ('A' for Active; 'I' for Inactive)
REMARK    1  A    between atoms: C_1  and  N_2
REMARK    2  A    between atoms: C_8  and  N_9
REMARK    3  A    between atoms: C_10  and  C_12
REMARK    4  A    between atoms: C_12  and  C_13
REMARK    5  A    between atoms: C_13  and  C_14
REMARK    6  A    between atoms: C_17  and  C_18
REMARK                            x       y       z     vdW  Elec       q    Type
REMARK                         _______ _______ _______ _____ _____    ______ ____
ROOT
ATOM      1  N   UNL     1       3.023   6.568  19.533  0.00  0.00    +0.000 N 
ATOM      2  C   UNL     1       2.830   5.483  18.700  0.00  0.00    +0.000 C 
ATOM      3  O   UNL     1       1.900   5.326  17.909  0.00  0.00    +0.000 OA
ATOM      4  H   UNL     1       3.921   6.646  19.998  0.00  0.00    +0.000 HD
ENDROOT
BRANCH   1  12
ATOM      5  C   UNL     1      -1.487  11.607  22.401  0.00  0.00    +0.000 C 
ATOM      6  N   UNL     1      -0.622  10.787  21.588  0.00  0.00    +0.000 N 
ATOM      7  C   UNL     1      -0.406  10.968  20.248  0.00  0.00    +0.000 C 
ATOM      8  O   UNL     1      -0.856  11.819  19.505  0.00  0.00    +0.000 OA
ATOM      9  C   UNL     1       0.499   9.902  19.834  0.00  0.00    +0.000 A 
ATOM     10  C   UNL     1       1.029   9.621  18.598  0.00  0.00    +0.000 A 
ATOM     11  C   UNL     1       1.860   8.502  18.501  0.00  0.00    +0.000 A 
ATOM     12  C   UNL     1       2.165   7.692  19.623  0.00  0.00    +0.000 A 
ATOM     13  C   UNL     1       1.591   7.999  20.868  0.00  0.00    +0.000 A 
ATOM     14  C   UNL     1       0.772   9.115  20.938  0.00  0.00    +0.000 A 
ATOM     15  C   UNL     1       0.044   9.693  22.068  0.00  0.00    +0.000 C 
ATOM     16  O   UNL     1       0.061   9.235  23.195  0.00  0.00    +0.000 OA
ENDBRANCH   1  12
BRANCH   2  17
ATOM     17  C   UNL     1       3.911   4.424  18.769  0.00  0.00    +0.000 C 
BRANCH  17  18
ATOM     18  C   UNL     1       5.233   5.073  19.171  0.00  0.00    +0.000 C 
BRANCH  18  19
ATOM     19  C   UNL     1       6.049   5.441  17.989  0.00  0.00    +0.000 A 
ATOM     20  N   UNL     1       7.020   6.323  17.890  0.00  0.00    +0.000 NA
ATOM     21  N   UNL     1       7.449   6.275  16.580  0.00  0.00    +0.000 NA
ATOM     22  C   UNL     1       6.715   5.363  15.971  0.00  0.00    +0.000 A 
ATOM     23  O   UNL     1       5.793   4.791  16.813  0.00  0.00    +0.000 OA
BRANCH  22  24
ATOM     24  C   UNL     1       6.790   4.855  14.607  0.00  0.00    +0.000 A 
ATOM     25  C   UNL     1       5.914   3.837  14.195  0.00  0.00    +0.000 A 
ATOM     26  C   UNL     1       5.909   3.386  12.872  0.00  0.00    +0.000 A 
ATOM     27  C   UNL     1       6.786   3.942  11.944  0.00  0.00    +0.000 A 
ATOM     28  C   UNL     1       7.680   4.933  12.341  0.00  0.00    +0.000 A 
ATOM     29  C   UNL     1       7.686   5.383  13.665  0.00  0.00    +0.000 A 
ENDBRANCH  22  24
ENDBRANCH  18  19
ENDBRANCH  17  18
ENDBRANCH   2  17
TORSDOF 5
ENDMDL
MODEL 4
REMARK VINA RESULT:      -8.4      1.448      2.087
REMARK  Name = 
REMARK  6 active torsions:
REMARK  status: ('A' for Active; 'I' for Inactive)
REMARK    1  A    between atoms: C_1  and  N_2
REMARK    2  A    between atoms: C_8  and  N_9
REMARK    3  A    between atoms: C_10  and  C_12
REMARK    4  A    between atoms: C_12  and  C_13
REMARK    5  A    between atoms: C_13  and  C_14
REMARK    6  A    between atoms: C_17  and  C_18
REMARK                            x       y       z     vdW  Elec       q    Type
REMARK                         _______ _______ _______ _____ _____    ______ ____
ROOT
ATOM      1  N   UNL     1       2.702   5.028  20.109  0.00  0.00    +0.000 N 
ATOM      2  C   UNL     1       1.978   3.905  19.755  0.00  0.00    +0.000 C 
ATOM      3  O   UNL     1       0.895   3.889  19.171  0.00  0.00    +0.000 OA
ATOM      4  H   UNL     1       3.655   4.889  20.424  0.00  0.00    +0.000 HD
ENDROOT
BRANCH   1  12
ATOM      5  C   UNL     1      -0.128  11.715  21.224  0.00  0.00    +0.000 C 
ATOM      6  N   UNL     1       0.516  10.517  20.740  0.00  0.00    +0.000 N 
ATOM      7  C   UNL     1       1.023  10.359  19.478  0.00  0.00    +0.000 C 
ATOM      8  O   UNL     1       1.053  11.152  18.557  0.00  0.00    +0.000 OA
ATOM      9  C   UNL     1       1.541   8.997  19.416  0.00  0.00    +0.000 A 
ATOM     10  C   UNL     1       2.149   8.328  18.382  0.00  0.00    +0.000 A 
ATOM     11  C   UNL     1       2.523   7.002  18.615  0.00  0.00    +0.000 A 
ATOM     12  C   UNL     1       2.306   6.366  19.862  0.00  0.00    +0.000 A 
ATOM     13  C   UNL     1       1.665   7.076  20.891  0.00  0.00    +0.000 A 
ATOM     14  C   UNL     1       1.306   8.391  20.636  0.00  0.00    +0.000 A 
ATOM     15  C   UNL     1       0.643   9.379  21.487  0.00  0.00    +0.000 C 
ATOM     16  O   UNL     1       0.288   9.164  22.631  0.00  0.00    +0.000 OA
ENDBRANCH   1  12
BRANCH   2  17
ATOM     17  C   UNL     1       2.635   2.586  20.103  0.00  0.00    +0.000 C 
BRANCH  17  18
ATOM     18  C   UNL     1       3.338   2.028  18.869  0.00  0.00    +0.000 C 
BRANCH  18  19
ATOM     19  C   UNL     1       3.951   3.101  18.050  0.00  0.00    +0.000 A 
ATOM     20  N   UNL     1       3.639   3.504  16.837  0.00  0.00    +0.000 NA
ATOM     21  N   UNL     1       4.510   4.531  16.539  0.00  0.00    +0.000 NA
ATOM     22  C   UNL     1       5.290   4.689  17.592  0.00  0.00    +0.000 A 
ATOM     23  O   UNL     1       4.991   3.801  18.596  0.00  0.00    +0.000 OA
BRANCH  22  24
ATOM     24  C   UNL     1       6.333   5.674  17.849  0.00  0.00    +0.000 A 
ATOM     25  C   UNL     1       6.369   6.860  17.097  0.00  0.00    +0.000 A 
ATOM     26  C   UNL     1       7.308   7.857  17.374  0.00  0.00    +0.000 A 
ATOM     27  C   UNL     1       8.230   7.679  18.404  0.00  0.00    +0.000 A 
ATOM     28  C   UNL     1       8.226   6.499  19.142  0.00  0.00    +0.000 A 
ATOM     29  C   UNL     1       7.287   5.500  18.864  0.00  0.00    +0.000 A 
ENDBRANCH  22  24
ENDBRANCH  18  19
ENDBRANCH  17  18
ENDBRANCH   2  17
TORSDOF 5
ENDMDL
MODEL 5
REMARK VINA RESULT:      -8.4      1.277      1.716
REMARK  Name = 
REMARK  6 active torsions:
REMARK  status: ('A' for Active; 'I' for Inactive)
REMARK    1  A    between atoms: C_1  and  N_2
REMARK    2  A    between atoms: C_8  and  N_9
REMARK    3  A    between atoms: C_10  and  C_12
REMARK    4  A    between atoms: C_12  and  C_13
REMARK    5  A    between atoms: C_13  and  C_14
REMARK    6  A    between atoms: C_17  and  C_18
REMARK                            x       y       z     vdW  Elec       q    Type
REMARK                         _______ _______ _______ _____ _____    ______ ____
ROOT
ATOM      1  N   UNL     1       2.364   6.037  20.816  0.00  0.00    +0.000 N 
ATOM      2  C   UNL     1       1.606   4.882  20.817  0.00  0.00    +0.000 C 
ATOM      3  O   UNL     1       0.427   4.781  20.477  0.00  0.00    +0.000 OA
ATOM      4  H   UNL     1       3.364   5.940  20.949  0.00  0.00    +0.000 HD
ENDROOT
BRANCH   1  12
ATOM      5  C   UNL     1      -0.602  12.742  21.265  0.00  0.00    +0.000 C 
ATOM      6  N   UNL     1       0.040  11.505  20.892  0.00  0.00    +0.000 N 
ATOM      7  C   UNL     1       0.443  11.187  19.623  0.00  0.00    +0.000 C 
ATOM      8  O   UNL     1       0.365  11.845  18.603  0.00  0.00    +0.000 OA
ATOM      9  C   UNL     1       1.004   9.843  19.699  0.00  0.00    +0.000 A 
ATOM     10  C   UNL     1       1.545   9.052  18.715  0.00  0.00    +0.000 A 
ATOM     11  C   UNL     1       1.986   7.780  19.091  0.00  0.00    +0.000 A 
ATOM     12  C   UNL     1       1.900   7.318  20.427  0.00  0.00    +0.000 A 
ATOM     13  C   UNL     1       1.324   8.147  21.404  0.00  0.00    +0.000 A 
ATOM     14  C   UNL     1       0.896   9.405  21.007  0.00  0.00    +0.000 A 
ATOM     15  C   UNL     1       0.273  10.484  21.772  0.00  0.00    +0.000 C 
ATOM     16  O   UNL     1       0.025  10.421  22.962  0.00  0.00    +0.000 OA
ENDBRANCH   1  12
BRANCH   2  17
ATOM     17  C   UNL     1       2.346   3.633  21.247  0.00  0.00    +0.000 C 
BRANCH  17  18
ATOM     18  C   UNL     1       2.061   2.506  20.258  0.00  0.00    +0.000 C 
BRANCH  18  19
ATOM     19  C   UNL     1       2.440   2.879  18.873  0.00  0.00    +0.000 A 
ATOM     20  N   UNL     1       1.689   2.952  17.795  0.00  0.00    +0.000 NA
ATOM     21  N   UNL     1       2.524   3.348  16.772  0.00  0.00    +0.000 NA
ATOM     22  C   UNL     1       3.727   3.496  17.296  0.00  0.00    +0.000 A 
ATOM     23  O   UNL     1       3.747   3.207  18.638  0.00  0.00    +0.000 OA
BRANCH  22  24
ATOM     24  C   UNL     1       4.964   3.967  16.688  0.00  0.00    +0.000 A 
ATOM     25  C   UNL     1       5.130   3.884  15.295  0.00  0.00    +0.000 A 
ATOM     26  C   UNL     1       6.272   4.400  14.676  0.00  0.00    +0.000 A 
ATOM     27  C   UNL     1       7.269   4.999  15.442  0.00  0.00    +0.000 A 
ATOM     28  C   UNL     1       7.134   5.065  16.827  0.00  0.00    +0.000 A 
ATOM     29  C   UNL     1       5.992   4.548  17.446  0.00  0.00    +0.000 A 
ENDBRANCH  22  24
ENDBRANCH  18  19
ENDBRANCH  17  18
ENDBRANCH   2  17
TORSDOF 5
ENDMDL
MODEL 6
REMARK VINA RESULT:      -8.4      2.328      3.175
REMARK  Name = 
REMARK  6 active torsions:
REMARK  status: ('A' for Active; 'I' for Inactive)
REMARK    1  A    between atoms: C_1  and  N_2
REMARK    2  A    between atoms: C_8  and  N_9
REMARK    3  A    between atoms: C_10  and  C_12
REMARK    4  A    between atoms: C_12  and  C_13
REMARK    5  A    between atoms: C_13  and  C_14
REMARK    6  A    between atoms: C_17  and  C_18
REMARK                            x       y       z     vdW  Elec       q    Type
REMARK                         _______ _______ _______ _____ _____    ______ ____
ROOT
ATOM      1  N   UNL     1       2.672   6.843  19.784  0.00  0.00    +0.000 N 
ATOM      2  C   UNL     1       2.320   5.551  20.125  0.00  0.00    +0.000 C 
ATOM      3  O   UNL     1       1.251   5.191  20.618  0.00  0.00    +0.000 OA
ATOM      4  H   UNL     1       3.509   6.967  19.226  0.00  0.00    +0.000 HD
ENDROOT
BRANCH   1  12
ATOM      5  C   UNL     1      -1.393  11.996  23.083  0.00  0.00    +0.000 C 
ATOM      6  N   UNL     1      -0.638  11.152  22.187  0.00  0.00    +0.000 N 
ATOM      7  C   UNL     1      -0.566  11.320  20.831  0.00  0.00    +0.000 C 
ATOM      8  O   UNL     1      -1.077  12.176  20.134  0.00  0.00    +0.000 OA
ATOM      9  C   UNL     1       0.266  10.233  20.329  0.00  0.00    +0.000 A 
ATOM     10  C   UNL     1       0.652   9.932  19.046  0.00  0.00    +0.000 A 
ATOM     11  C   UNL     1       1.443   8.795  18.869  0.00  0.00    +0.000 A 
ATOM     12  C   UNL     1       1.852   7.985  19.957  0.00  0.00    +0.000 A 
ATOM     13  C   UNL     1       1.424   8.313  21.254  0.00  0.00    +0.000 A 
ATOM     14  C   UNL     1       0.641   9.447  21.404  0.00  0.00    +0.000 A 
ATOM     15  C   UNL     1       0.053  10.047  22.602  0.00  0.00    +0.000 C 
ATOM     16  O   UNL     1       0.184   9.596  23.724  0.00  0.00    +0.000 OA
ENDBRANCH   1  12
BRANCH   2  17
ATOM     17  C   UNL     1       3.363   4.500  19.809  0.00  0.00    +0.000 C 
BRANCH  17  18
ATOM     18  C   UNL     1       3.266   4.114  18.336  0.00  0.00    +0.000 C 
BRANCH  18  19
ATOM     19  C   UNL     1       4.537   4.368  17.614  0.00  0.00    +0.000 A 
ATOM     20  N   UNL     1       5.716   4.699  18.094  0.00  0.00    +0.000 NA
ATOM     21  N   UNL     1       6.556   4.811  17.006  0.00  0.00    +0.000 NA
ATOM     22  C   UNL     1       5.833   4.534  15.936  0.00  0.00    +0.000 A 
ATOM     23  O   UNL     1       4.528   4.247  16.252  0.00  0.00    +0.000 OA
BRANCH  22  24
ATOM     24  C   UNL     1       6.228   4.432  14.537  0.00  0.00    +0.000 A 
ATOM     25  C   UNL     1       7.346   5.146  14.076  0.00  0.00    +0.000 A 
ATOM     26  C   UNL     1       7.796   5.006  12.760  0.00  0.00    +0.000 A 
ATOM     27  C   UNL     1       7.128   4.154  11.884  0.00  0.00    +0.000 A 
ATOM     28  C   UNL     1       6.001   3.459  12.315  0.00  0.00    +0.000 A 
ATOM     29  C   UNL     1       5.551   3.600  13.632  0.00  0.00    +0.000 A 
ENDBRANCH  22  24
ENDBRANCH  18  19
ENDBRANCH  17  18
ENDBRANCH   2  17
TORSDOF 5
ENDMDL
MODEL 7
REMARK VINA RESULT:      -8.3      6.460      8.330
REMARK  Name = 
REMARK  6 active torsions:
REMARK  status: ('A' for Active; 'I' for Inactive)
REMARK    1  A    between atoms: C_1  and  N_2
REMARK    2  A    between atoms: C_8  and  N_9
REMARK    3  A    between atoms: C_10  and  C_12
REMARK    4  A    between atoms: C_12  and  C_13
REMARK    5  A    between atoms: C_13  and  C_14
REMARK    6  A    between atoms: C_17  and  C_18
REMARK                            x       y       z     vdW  Elec       q    Type
REMARK                         _______ _______ _______ _____ _____    ______ ____
ROOT
ATOM      1  N   UNL     1       9.243   9.297  19.192  0.00  0.00    +0.000 N 
ATOM      2  C   UNL     1       8.268   8.785  18.356  0.00  0.00    +0.000 C 
ATOM      3  O   UNL     1       7.570   9.426  17.571  0.00  0.00    +0.000 OA
ATOM      4  H   UNL     1       9.859   8.636  19.651  0.00  0.00    +0.000 HD
ENDROOT
BRANCH   1  12
ATOM      5  C   UNL     1      11.770  15.935  17.317  0.00  0.00    +0.000 C 
ATOM      6  N   UNL     1      11.192  14.769  17.942  0.00  0.00    +0.000 N 
ATOM      7  C   UNL     1      10.742  14.718  19.233  0.00  0.00    +0.000 C 
ATOM      8  O   UNL     1      10.718  15.595  20.075  0.00  0.00    +0.000 OA
ATOM      9  C   UNL     1      10.278  13.352  19.449  0.00  0.00    +0.000 A 
ATOM     10  C   UNL     1       9.737  12.766  20.567  0.00  0.00    +0.000 A 
ATOM     11  C   UNL     1       9.405  11.412  20.480  0.00  0.00    +0.000 A 
ATOM     12  C   UNL     1       9.597  10.665  19.292  0.00  0.00    +0.000 A 
ATOM     13  C   UNL     1      10.169  11.293  18.172  0.00  0.00    +0.000 A 
ATOM     14  C   UNL     1      10.488  12.637  18.284  0.00  0.00    +0.000 A 
ATOM     15  C   UNL     1      11.079  13.559  17.314  0.00  0.00    +0.000 C 
ATOM     16  O   UNL     1      11.397  13.246  16.182  0.00  0.00    +0.000 OA
ENDBRANCH   1  12
BRANCH   2  17
ATOM     17  C   UNL     1       8.104   7.281  18.414  0.00  0.00    +0.000 C 
BRANCH  17  18
ATOM     18  C   UNL     1       7.354   6.804  17.174  0.00  0.00    +0.000 C 
BRANCH  18  19
ATOM     19  C   UNL     1       5.933   6.499  17.470  0.00  0.00    +0.000 A 
ATOM     20  N   UNL     1       4.845   6.944  16.879  0.00  0.00    +0.000 NA
ATOM     21  N   UNL     1       3.785   6.352  17.533  0.00  0.00    +0.000 NA
ATOM     22  C   UNL     1       4.298   5.582  18.475  0.00  0.00    +0.000 A 
ATOM     23  O   UNL     1       5.670   5.632  18.495  0.00  0.00    +0.000 OA
BRANCH  22  24
ATOM     24  C   UNL     1       3.641   4.676  19.408  0.00  0.00    +0.000 A 
ATOM     25  C   UNL     1       4.096   3.352  19.529  0.00  0.00    +0.000 A 
ATOM     26  C   UNL     1       3.537   2.485  20.472  0.00  0.00    +0.000 A 
ATOM     27  C   UNL     1       2.510   2.928  21.303  0.00  0.00    +0.000 A 
ATOM     28  C   UNL     1       2.029   4.228  21.178  0.00  0.00    +0.000 A 
ATOM     29  C   UNL     1       2.587   5.096  20.234  0.00  0.00    +0.000 A 
ENDBRANCH  22  24
ENDBRANCH  18  19
ENDBRANCH  17  18
ENDBRANCH   2  17
TORSDOF 5
ENDMDL
MODEL 8
REMARK VINA RESULT:      -8.3      6.444      8.315
REMARK  Name = 
REMARK  6 active torsions:
REMARK  status: ('A' for Active; 'I' for Inactive)
REMARK    1  A    between atoms: C_1  and  N_2
REMARK    2  A    between atoms: C_8  and  N_9
REMARK    3  A    between atoms: C_10  and  C_12
REMARK    4  A    between atoms: C_12  and  C_13
REMARK    5  A    between atoms: C_13  and  C_14
REMARK    6  A    between atoms: C_17  and  C_18
REMARK                            x       y       z     vdW  Elec       q    Type
REMARK                         _______ _______ _______ _____ _____    ______ ____
ROOT
ATOM      1  N   UNL     1       9.107   9.196  19.186  0.00  0.00    +0.000 N 
ATOM      2  C   UNL     1       8.194   8.874  18.200  0.00  0.00    +0.000 C 
ATOM      3  O   UNL     1       7.635   9.662  17.437  0.00  0.00    +0.000 OA
ATOM      4  H   UNL     1       9.619   8.434  19.616  0.00  0.00    +0.000 HD
ENDROOT
BRANCH   1  12
ATOM      5  C   UNL     1      11.985  15.898  18.315  0.00  0.00    +0.000 C 
ATOM      6  N   UNL     1      11.356  14.680  18.764  0.00  0.00    +0.000 N 
ATOM      7  C   UNL     1      10.944  14.442  20.048  0.00  0.00    +0.000 C 
ATOM      8  O   UNL     1      11.002  15.168  21.021  0.00  0.00    +0.000 OA
ATOM      9  C   UNL     1      10.403  13.088  20.057  0.00  0.00    +0.000 A 
ATOM     10  C   UNL     1       9.862  12.357  21.087  0.00  0.00    +0.000 A 
ATOM     11  C   UNL     1       9.443  11.057  20.794  0.00  0.00    +0.000 A 
ATOM     12  C   UNL     1       9.550  10.507  19.493  0.00  0.00    +0.000 A 
ATOM     13  C   UNL     1      10.124  11.277  18.467  0.00  0.00    +0.000 A 
ATOM     14  C   UNL     1      10.531  12.564  18.783  0.00  0.00    +0.000 A 
ATOM     15  C   UNL     1      11.147  13.599  17.953  0.00  0.00    +0.000 C 
ATOM     16  O   UNL     1      11.408  13.459  16.773  0.00  0.00    +0.000 OA
ENDBRANCH   1  12
BRANCH   2  17
ATOM     17  C   UNL     1       7.912   7.394  18.050  0.00  0.00    +0.000 C 
BRANCH  17  18
ATOM     18  C   UNL     1       6.806   7.188  17.019  0.00  0.00    +0.000 C 
BRANCH  18  19
ATOM     19  C   UNL     1       6.021   5.960  17.290  0.00  0.00    +0.000 A 
ATOM     20  N   UNL     1       6.292   4.712  16.976  0.00  0.00    +0.000 NA
ATOM     21  N   UNL     1       5.243   3.958  17.460  0.00  0.00    +0.000 NA
ATOM     22  C   UNL     1       4.406   4.797  18.041  0.00  0.00    +0.000 A 
ATOM     23  O   UNL     1       4.839   6.098  17.965  0.00  0.00    +0.000 OA
BRANCH  22  24
ATOM     24  C   UNL     1       3.175   4.537  18.777  0.00  0.00    +0.000 A 
ATOM     25  C   UNL     1       2.339   3.479  18.381  0.00  0.00    +0.000 A 
ATOM     26  C   UNL     1       1.194   3.156  19.115  0.00  0.00    +0.000 A 
ATOM     27  C   UNL     1       0.865   3.891  20.251  0.00  0.00    +0.000 A 
ATOM     28  C   UNL     1       1.668   4.960  20.643  0.00  0.00    +0.000 A 
ATOM     29  C   UNL     1       2.813   5.284  19.908  0.00  0.00    +0.000 A 
ENDBRANCH  22  24
ENDBRANCH  18  19
ENDBRANCH  17  18
ENDBRANCH   2  17
TORSDOF 5
ENDMDL
MODEL 9
REMARK VINA RESULT:      -8.2      6.289      8.174
REMARK  Name = 
REMARK  6 active torsions:
REMARK  status: ('A' for Active; 'I' for Inactive)
REMARK    1  A    between atoms: C_1  and  N_2
REMARK    2  A    between atoms: C_8  and  N_9
REMARK    3  A    between atoms: C_10  and  C_12
REMARK    4  A    between atoms: C_12  and  C_13
REMARK    5  A    between atoms: C_13  and  C_14
REMARK    6  A    between atoms: C_17  and  C_18
REMARK                            x       y       z     vdW  Elec       q    Type
REMARK                         _______ _______ _______ _____ _____    ______ ____
ROOT
ATOM      1  N   UNL     1       8.985   8.967  19.245  0.00  0.00    +0.000 N 
ATOM      2  C   UNL     1       8.186   8.486  18.225  0.00  0.00    +0.000 C 
ATOM      3  O   UNL     1       7.723   9.139  17.290  0.00  0.00    +0.000 OA
ATOM      4  H   UNL     1       9.438   8.286  19.844  0.00  0.00    +0.000 HD
ENDROOT
BRANCH   1  12
ATOM      5  C   UNL     1      11.695  15.583  17.558  0.00  0.00    +0.000 C 
ATOM      6  N   UNL     1      11.099  14.411  18.156  0.00  0.00    +0.000 N 
ATOM      7  C   UNL     1      10.710  14.315  19.465  0.00  0.00    +0.000 C 
ATOM      8  O   UNL     1      10.763  15.151  20.346  0.00  0.00    +0.000 OA
ATOM      9  C   UNL     1      10.200  12.960  19.639  0.00  0.00    +0.000 A 
ATOM     10  C   UNL     1       9.690  12.342  20.755  0.00  0.00    +0.000 A 
ATOM     11  C   UNL     1       9.297  11.008  20.621  0.00  0.00    +0.000 A 
ATOM     12  C   UNL     1       9.400  10.313  19.391  0.00  0.00    +0.000 A 
ATOM     13  C   UNL     1       9.944  10.971  18.275  0.00  0.00    +0.000 A 
ATOM     14  C   UNL     1      10.324  12.295  18.433  0.00  0.00    +0.000 A 
ATOM     15  C   UNL     1      10.905  13.239  17.479  0.00  0.00    +0.000 C 
ATOM     16  O   UNL     1      11.155  12.969  16.319  0.00  0.00    +0.000 OA
ENDBRANCH   1  12
BRANCH   2  17
ATOM     17  C   UNL     1       7.911   6.997  18.278  0.00  0.00    +0.000 C 
BRANCH  17  18
ATOM     18  C   UNL     1       7.056   6.596  17.080  0.00  0.00    +0.000 C 
BRANCH  18  19
ATOM     19  C   UNL     1       5.609   6.613  17.404  0.00  0.00    +0.000 A 
ATOM     20  N   UNL     1       4.702   7.522  17.118  0.00  0.00    +0.000 NA
ATOM     21  N   UNL     1       3.513   7.056  17.639  0.00  0.00    +0.000 NA
ATOM     22  C   UNL     1       3.775   5.891  18.203  0.00  0.00    +0.000 A 
ATOM     23  O   UNL     1       5.099   5.548  18.094  0.00  0.00    +0.000 OA
BRANCH  22  24
ATOM     24  C   UNL     1       2.878   4.933  18.837  0.00  0.00    +0.000 A 
ATOM     25  C   UNL     1       2.737   4.932  20.235  0.00  0.00    +0.000 A 
ATOM     26  C   UNL     1       1.826   4.079  20.865  0.00  0.00    +0.000 A 
ATOM     27  C   UNL     1       1.048   3.210  20.104  0.00  0.00    +0.000 A 
ATOM     28  C   UNL     1       1.193   3.178  18.720  0.00  0.00    +0.000 A 
ATOM     29  C   UNL     1       2.106   4.030  18.090  0.00  0.00    +0.000 A 
ENDBRANCH  22  24
ENDBRANCH  18  19
ENDBRANCH  17  18
ENDBRANCH   2  17
TORSDOF 5
ENDMDL
