MODEL 1
REMARK VINA RESULT:      -8.2      0.000      0.000
REMARK  Name = 
REMARK  9 active torsions:
REMARK  status: ('A' for Active; 'I' for Inactive)
REMARK    1  A    between atoms: C_1  and  C_2
REMARK    2  A    between atoms: C_4  and  C_5
REMARK    3  A    between atoms: C_9  and  N_10
REMARK    4  A    between atoms: C_11  and  C_13
REMARK    5  A    between atoms: N_15  and  C_16
REMARK    6  A    between atoms: C_18  and  C_19
REMARK    7  A    between atoms: C_19  and  C_20
REMARK    8  A    between atoms: C_19  and  C_21
REMARK    9  A    between atoms: C_19  and  C_22
REMARK                            x       y       z     vdW  Elec       q    Type
REMARK                         _______ _______ _______ _____ _____    ______ ____
ROOT
ATOM      1  N   UNL     1       2.450   7.543  19.225  0.00  0.00    +0.000 N 
ATOM      2  C   UNL     1       2.599   6.272  19.766  0.00  0.00    +0.000 C 
ATOM      3  O   UNL     1       1.917   5.815  20.673  0.00  0.00    +0.000 OA
ATOM      4  H   UNL     1       3.087   7.803  18.483  0.00  0.00    +0.000 HD
ENDROOT
BRANCH   1   9
ATOM      5  C   UNL     1      -0.286  10.045  18.968  0.00  0.00    +0.000 A 
ATOM      6  C   UNL     1      -0.446  10.413  20.310  0.00  0.00    +0.000 A 
ATOM      7  C   UNL     1       0.356   9.853  21.295  0.00  0.00    +0.000 A 
ATOM      8  C   UNL     1       1.321   8.909  20.949  0.00  0.00    +0.000 A 
ATOM      9  C   UNL     1       1.505   8.517  19.618  0.00  0.00    +0.000 A 
ATOM     10  C   UNL     1       0.707   9.106  18.628  0.00  0.00    +0.000 A 
BRANCH   5  14
ATOM     11  C   UNL     1      -3.206  10.420  15.023  0.00  0.00    +0.000 C 
ATOM     12  C   UNL     1      -2.421  10.693  16.242  0.00  0.00    +0.000 A 
ATOM     13  N   UNL     1      -1.745   9.839  16.977  0.00  0.00    +0.000 NA
ATOM     14  C   UNL     1      -1.182  10.613  17.967  0.00  0.00    +0.000 A 
ATOM     15  N   UNL     1      -1.500  11.917  17.876  0.00  0.00    +0.000 NA
ATOM     16  N   UNL     1      -2.273  11.937  16.778  0.00  0.00    +0.000 N 
ATOM     17  H   UNL     1      -2.650  12.820  16.452  0.00  0.00    +0.000 HD
ENDBRANCH   5  14
ENDBRANCH   1   9
BRANCH   2  18
ATOM     18  C   UNL     1       3.671   5.481  19.175  0.00  0.00    +0.000 A 
ATOM     19  C   UNL     1       4.966   5.909  18.934  0.00  0.00    +0.000 A 
ATOM     20  N   UNL     1       5.629   4.846  18.410  0.00  0.00    +0.000 N 
ATOM     21  C   UNL     1       7.032   4.770  18.082  0.00  0.00    +0.000 C 
ATOM     22  N   UNL     1       4.858   3.768  18.237  0.00  0.00    +0.000 NA
ATOM     23  C   UNL     1       3.641   4.129  18.684  0.00  0.00    +0.000 A 
BRANCH  23  24
ATOM     24  C   UNL     1       2.504   3.095  18.661  0.00  0.00    +0.000 C 
ATOM     25  C   UNL     1       2.903   1.850  17.821  0.00  0.00    +0.000 C 
ATOM     26  C   UNL     1       2.188   2.594  20.084  0.00  0.00    +0.000 C 
ATOM     27  C   UNL     1       1.217   3.648  18.015  0.00  0.00    +0.000 C 
ENDBRANCH  23  24
ENDBRANCH   2  18
TORSDOF 4
ENDMDL
MODEL 2
REMARK VINA RESULT:      -8.1      1.051      1.077
REMARK  Name = 
REMARK  9 active torsions:
REMARK  status: ('A' for Active; 'I' for Inactive)
REMARK    1  A    between atoms: C_1  and  C_2
REMARK    2  A    between atoms: C_4  and  C_5
REMARK    3  A    between atoms: C_9  and  N_10
REMARK    4  A    between atoms: C_11  and  C_13
REMARK    5  A    between atoms: N_15  and  C_16
REMARK    6  A    between atoms: C_18  and  C_19
REMARK    7  A    between atoms: C_19  and  C_20
REMARK    8  A    between atoms: C_19  and  C_21
REMARK    9  A    between atoms: C_19  and  C_22
REMARK                            x       y       z     vdW  Elec       q    Type
REMARK                         _______ _______ _______ _____ _____    ______ ____
ROOT
ATOM      1  N   UNL     1       2.508   7.393  19.945  0.00  0.00    +0.000 N 
ATOM      2  C   UNL     1       2.691   6.908  18.657  0.00  0.00    +0.000 C 
ATOM      3  O   UNL     1       2.035   7.249  17.682  0.00  0.00    +0.000 OA
ATOM      4  H   UNL     1       3.113   7.022  20.666  0.00  0.00    +0.000 HD
ENDROOT
BRANCH   1   9
ATOM      5  C   UNL     1      -0.099  10.032  19.714  0.00  0.00    +0.000 A 
ATOM      6  C   UNL     1      -0.420  10.218  21.065  0.00  0.00    +0.000 A 
ATOM      7  C   UNL     1       0.232   9.489  22.051  0.00  0.00    +0.000 A 
ATOM      8  C   UNL     1       1.207   8.559  21.694  0.00  0.00    +0.000 A 
ATOM      9  C   UNL     1       1.548   8.347  20.354  0.00  0.00    +0.000 A 
ATOM     10  C   UNL     1       0.902   9.104  19.368  0.00  0.00    +0.000 A 
BRANCH   5  14
ATOM     11  C   UNL     1      -3.059  11.006  15.903  0.00  0.00    +0.000 C 
ATOM     12  C   UNL     1      -2.128  11.110  17.043  0.00  0.00    +0.000 A 
ATOM     13  N   UNL     1      -1.708  10.148  17.834  0.00  0.00    +0.000 NA
ATOM     14  C   UNL     1      -0.841  10.775  18.702  0.00  0.00    +0.000 A 
ATOM     15  N   UNL     1      -0.723  12.097  18.482  0.00  0.00    +0.000 NA
ATOM     16  N   UNL     1      -1.537  12.275  17.428  0.00  0.00    +0.000 N 
ATOM     17  H   UNL     1      -1.632  13.201  17.025  0.00  0.00    +0.000 HD
ENDBRANCH   5  14
ENDBRANCH   1   9
BRANCH   2  18
ATOM     18  C   UNL     1       3.750   5.915  18.525  0.00  0.00    +0.000 A 
ATOM     19  C   UNL     1       5.052   6.156  18.118  0.00  0.00    +0.000 A 
ATOM     20  N   UNL     1       5.697   4.962  18.172  0.00  0.00    +0.000 N 
ATOM     21  C   UNL     1       7.098   4.717  17.931  0.00  0.00    +0.000 C 
ATOM     22  N   UNL     1       4.909   3.945  18.531  0.00  0.00    +0.000 NA
ATOM     23  C   UNL     1       3.698   4.493  18.742  0.00  0.00    +0.000 A 
BRANCH  23  24
ATOM     24  C   UNL     1       2.544   3.592  19.209  0.00  0.00    +0.000 C 
ATOM     25  C   UNL     1       2.964   2.096  19.187  0.00  0.00    +0.000 C 
ATOM     26  C   UNL     1       2.139   3.924  20.659  0.00  0.00    +0.000 C 
ATOM     27  C   UNL     1       1.305   3.697  18.295  0.00  0.00    +0.000 C 
ENDBRANCH  23  24
ENDBRANCH   2  18
TORSDOF 4
ENDMDL
MODEL 3
REMARK VINA RESULT:      -8.0      2.509      4.077
REMARK  Name = 
REMARK  9 active torsions:
REMARK  status: ('A' for Active; 'I' for Inactive)
REMARK    1  A    between atoms: C_1  and  C_2
REMARK    2  A    between atoms: C_4  and  C_5
REMARK    3  A    between atoms: C_9  and  N_10
REMARK    4  A    between atoms: C_11  and  C_13
REMARK    5  A    between atoms: N_15  and  C_16
REMARK    6  A    between atoms: C_18  and  C_19
REMARK    7  A    between atoms: C_19  and  C_20
REMARK    8  A    between atoms: C_19  and  C_21
REMARK    9  A    between atoms: C_19  and  C_22
REMARK                            x       y       z     vdW  Elec       q    Type
REMARK                         _______ _______ _______ _____ _____    ______ ____
ROOT
ATOM      1  N   UNL     1       2.836   6.807  19.353  0.00  0.00    +0.000 N 
ATOM      2  C   UNL     1       2.709   5.653  18.591  0.00  0.00    +0.000 C 
ATOM      3  O   UNL     1       1.885   5.491  17.702  0.00  0.00    +0.000 OA
ATOM      4  H   UNL     1       3.554   6.810  20.066  0.00  0.00    +0.000 HD
ENDROOT
BRANCH   1   9
ATOM      5  C   UNL     1       0.518   9.551  20.308  0.00  0.00    +0.000 A 
ATOM      6  C   UNL     1       0.511  10.322  19.138  0.00  0.00    +0.000 A 
ATOM      7  C   UNL     1       1.254   9.931  18.032  0.00  0.00    +0.000 A 
ATOM      8  C   UNL     1       2.020   8.768  18.088  0.00  0.00    +0.000 A 
ATOM      9  C   UNL     1       2.051   7.977  19.242  0.00  0.00    +0.000 A 
ATOM     10  C   UNL     1       1.280   8.368  20.345  0.00  0.00    +0.000 A 
BRANCH   5  14
ATOM     11  C   UNL     1      -2.141  12.459  23.259  0.00  0.00    +0.000 C 
ATOM     12  C   UNL     1      -1.370  11.339  22.685  0.00  0.00    +0.000 A 
ATOM     13  N   UNL     1      -0.876  11.237  21.471  0.00  0.00    +0.000 NA
ATOM     14  C   UNL     1      -0.231  10.020  21.469  0.00  0.00    +0.000 A 
ATOM     15  N   UNL     1      -0.324   9.359  22.637  0.00  0.00    +0.000 NA
ATOM     16  N   UNL     1      -1.038  10.218  23.383  0.00  0.00    +0.000 N 
ATOM     17  H   UNL     1      -1.251   9.981  24.346  0.00  0.00    +0.000 HD
ENDBRANCH   5  14
ENDBRANCH   1   9
BRANCH   2  18
ATOM     18  C   UNL     1       3.646   4.592  18.934  0.00  0.00    +0.000 A 
ATOM     19  C   UNL     1       3.472   3.631  19.918  0.00  0.00    +0.000 A 
ATOM     20  N   UNL     1       4.567   2.830  19.870  0.00  0.00    +0.000 N 
ATOM     21  C   UNL     1       4.804   1.632  20.637  0.00  0.00    +0.000 C 
ATOM     22  N   UNL     1       5.474   3.219  18.969  0.00  0.00    +0.000 NA
ATOM     23  C   UNL     1       4.947   4.311  18.385  0.00  0.00    +0.000 A 
BRANCH  23  24
ATOM     24  C   UNL     1       5.729   5.002  17.257  0.00  0.00    +0.000 C 
ATOM     25  C   UNL     1       7.232   4.611  17.304  0.00  0.00    +0.000 C 
ATOM     26  C   UNL     1       5.196   4.573  15.875  0.00  0.00    +0.000 C 
ATOM     27  C   UNL     1       5.687   6.540  17.367  0.00  0.00    +0.000 C 
ENDBRANCH  23  24
ENDBRANCH   2  18
TORSDOF 4
ENDMDL
MODEL 4
REMARK VINA RESULT:      -7.9      0.972      1.026
REMARK  Name = 
REMARK  9 active torsions:
REMARK  status: ('A' for Active; 'I' for Inactive)
REMARK    1  A    between atoms: C_1  and  C_2
REMARK    2  A    between atoms: C_4  and  C_5
REMARK    3  A    between atoms: C_9  and  N_10
REMARK    4  A    between atoms: C_11  and  C_13
REMARK    5  A    between atoms: N_15  and  C_16
REMARK    6  A    between atoms: C_18  and  C_19
REMARK    7  A    between atoms: C_19  and  C_20
REMARK    8  A    between atoms: C_19  and  C_21
REMARK    9  A    between atoms: C_19  and  C_22
REMARK                            x       y       z     vdW  Elec       q    Type
REMARK                         _______ _______ _______ _____ _____    ______ ____
ROOT
ATOM      1  N   UNL     1       2.226   7.977  18.308  0.00  0.00    +0.000 N 
ATOM      2  C   UNL     1       2.650   6.836  18.976  0.00  0.00    +0.000 C 
ATOM      3  O   UNL     1       2.222   6.460  20.059  0.00  0.00    +0.000 OA
ATOM      4  H   UNL     1       2.669   8.182  17.422  0.00  0.00    +0.000 HD
ENDROOT
BRANCH   1   9
ATOM      5  C   UNL     1      -0.772  10.173  18.242  0.00  0.00    +0.000 A 
ATOM      6  C   UNL     1      -0.786  10.656  19.556  0.00  0.00    +0.000 A 
ATOM      7  C   UNL     1       0.199  10.275  20.458  0.00  0.00    +0.000 A 
ATOM      8  C   UNL     1       1.204   9.396  20.056  0.00  0.00    +0.000 A 
ATOM      9  C   UNL     1       1.244   8.892  18.751  0.00  0.00    +0.000 A 
ATOM     10  C   UNL     1       0.259   9.302  17.841  0.00  0.00    +0.000 A 
BRANCH   5  14
ATOM     11  C   UNL     1      -3.789  10.180  14.352  0.00  0.00    +0.000 C 
ATOM     12  C   UNL     1      -3.107  10.491  15.623  0.00  0.00    +0.000 A 
ATOM     13  N   UNL     1      -2.139   9.820  16.205  0.00  0.00    +0.000 NA
ATOM     14  C   UNL     1      -1.853  10.551  17.338  0.00  0.00    +0.000 A 
ATOM     15  N   UNL     1      -2.624  11.644  17.481  0.00  0.00    +0.000 NA
ATOM     16  N   UNL     1      -3.395  11.584  16.383  0.00  0.00    +0.000 N 
ATOM     17  H   UNL     1      -4.079  12.313  16.216  0.00  0.00    +0.000 HD
ENDBRANCH   5  14
ENDBRANCH   1   9
BRANCH   2  18
ATOM     18  C   UNL     1       3.692   6.082  18.291  0.00  0.00    +0.000 A 
ATOM     19  C   UNL     1       4.815   6.611  17.675  0.00  0.00    +0.000 A 
ATOM     20  N   UNL     1       5.524   5.556  17.199  0.00  0.00    +0.000 N 
ATOM     21  C   UNL     1       6.818   5.592  16.561  0.00  0.00    +0.000 C 
ATOM     22  N   UNL     1       4.930   4.377  17.404  0.00  0.00    +0.000 NA
ATOM     23  C   UNL     1       3.791   4.665  18.061  0.00  0.00    +0.000 A 
BRANCH  23  24
ATOM     24  C   UNL     1       2.868   3.513  18.490  0.00  0.00    +0.000 C 
ATOM     25  C   UNL     1       3.272   2.187  17.789  0.00  0.00    +0.000 C 
ATOM     26  C   UNL     1       2.968   3.266  20.009  0.00  0.00    +0.000 C 
ATOM     27  C   UNL     1       1.395   3.763  18.107  0.00  0.00    +0.000 C 
ENDBRANCH  23  24
ENDBRANCH   2  18
TORSDOF 4
ENDMDL
MODEL 5
REMARK VINA RESULT:      -7.8      2.244      3.499
REMARK  Name = 
REMARK  9 active torsions:
REMARK  status: ('A' for Active; 'I' for Inactive)
REMARK    1  A    between atoms: C_1  and  C_2
REMARK    2  A    between atoms: C_4  and  C_5
REMARK    3  A    between atoms: C_9  and  N_10
REMARK    4  A    between atoms: C_11  and  C_13
REMARK    5  A    between atoms: N_15  and  C_16
REMARK    6  A    between atoms: C_18  and  C_19
REMARK    7  A    between atoms: C_19  and  C_20
REMARK    8  A    between atoms: C_19  and  C_21
REMARK    9  A    between atoms: C_19  and  C_22
REMARK                            x       y       z     vdW  Elec       q    Type
REMARK                         _______ _______ _______ _____ _____    ______ ____
ROOT
ATOM      1  N   UNL     1       2.958   7.431  18.798  0.00  0.00    +0.000 N 
ATOM      2  C   UNL     1       2.897   6.141  18.289  0.00  0.00    +0.000 C 
ATOM      3  O   UNL     1       1.904   5.634  17.784  0.00  0.00    +0.000 OA
ATOM      4  H   UNL     1       3.839   7.726  19.198  0.00  0.00    +0.000 HD
ENDROOT
BRANCH   1   9
ATOM      5  C   UNL     1       0.272   9.615  20.153  0.00  0.00    +0.000 A 
ATOM      6  C   UNL     1      -0.155  10.275  18.993  0.00  0.00    +0.000 A 
ATOM      7  C   UNL     1       0.428   9.989  17.765  0.00  0.00    +0.000 A 
ATOM      8  C   UNL     1       1.451   9.047  17.686  0.00  0.00    +0.000 A 
ATOM      9  C   UNL     1       1.903   8.372  18.826  0.00  0.00    +0.000 A 
ATOM     10  C   UNL     1       1.293   8.650  20.057  0.00  0.00    +0.000 A 
BRANCH   5  14
ATOM     11  C   UNL     1      -2.066  12.211  23.621  0.00  0.00    +0.000 C 
ATOM     12  C   UNL     1      -1.336  11.167  22.876  0.00  0.00    +0.000 A 
ATOM     13  N   UNL     1      -1.015  11.158  21.602  0.00  0.00    +0.000 NA
ATOM     14  C   UNL     1      -0.324   9.979  21.434  0.00  0.00    +0.000 A 
ATOM     15  N   UNL     1      -0.221   9.251  22.560  0.00  0.00    +0.000 NA
ATOM     16  N   UNL     1      -0.859  10.028  23.450  0.00  0.00    +0.000 N 
ATOM     17  H   UNL     1      -0.922   9.727  24.417  0.00  0.00    +0.000 HD
ENDBRANCH   5  14
ENDBRANCH   1   9
BRANCH   2  18
ATOM     18  C   UNL     1       4.136   5.382  18.405  0.00  0.00    +0.000 A 
ATOM     19  C   UNL     1       5.365   5.734  17.870  0.00  0.00    +0.000 A 
ATOM     20  N   UNL     1       6.238   4.766  18.248  0.00  0.00    +0.000 N 
ATOM     21  C   UNL     1       7.662   4.736  18.013  0.00  0.00    +0.000 C 
ATOM     22  N   UNL     1       5.671   3.777  18.945  0.00  0.00    +0.000 NA
ATOM     23  C   UNL     1       4.373   4.116  19.048  0.00  0.00    +0.000 A 
BRANCH  23  24
ATOM     24  C   UNL     1       3.424   3.197  19.834  0.00  0.00    +0.000 C 
ATOM     25  C   UNL     1       4.218   2.112  20.610  0.00  0.00    +0.000 C 
ATOM     26  C   UNL     1       2.621   4.000  20.877  0.00  0.00    +0.000 C 
ATOM     27  C   UNL     1       2.448   2.433  18.915  0.00  0.00    +0.000 C 
ENDBRANCH  23  24
ENDBRANCH   2  18
TORSDOF 4
ENDMDL
MODEL 6
REMARK VINA RESULT:      -7.7      1.802      2.160
REMARK  Name = 
REMARK  9 active torsions:
REMARK  status: ('A' for Active; 'I' for Inactive)
REMARK    1  A    between atoms: C_1  and  C_2
REMARK    2  A    between atoms: C_4  and  C_5
REMARK    3  A    between atoms: C_9  and  N_10
REMARK    4  A    between atoms: C_11  and  C_13
REMARK    5  A    between atoms: N_15  and  C_16
REMARK    6  A    between atoms: C_18  and  C_19
REMARK    7  A    between atoms: C_19  and  C_20
REMARK    8  A    between atoms: C_19  and  C_21
REMARK    9  A    between atoms: C_19  and  C_22
REMARK                            x       y       z     vdW  Elec       q    Type
REMARK                         _______ _______ _______ _____ _____    ______ ____
ROOT
ATOM      1  N   UNL     1       2.428   7.365  19.961  0.00  0.00    +0.000 N 
ATOM      2  C   UNL     1       2.586   6.922  18.654  0.00  0.00    +0.000 C 
ATOM      3  O   UNL     1       1.887   7.267  17.711  0.00  0.00    +0.000 OA
ATOM      4  H   UNL     1       3.068   6.994  20.652  0.00  0.00    +0.000 HD
ENDROOT
BRANCH   1   9
ATOM      5  C   UNL     1       0.205  10.342  20.061  0.00  0.00    +0.000 A 
ATOM      6  C   UNL     1      -0.517  10.105  21.238  0.00  0.00    +0.000 A 
ATOM      7  C   UNL     1      -0.261   8.977  22.006  0.00  0.00    +0.000 A 
ATOM      8  C   UNL     1       0.715   8.068  21.599  0.00  0.00    +0.000 A 
ATOM      9  C   UNL     1       1.451   8.274  20.428  0.00  0.00    +0.000 A 
ATOM     10  C   UNL     1       1.202   9.427  19.671  0.00  0.00    +0.000 A 
BRANCH   5  14
ATOM     11  C   UNL     1      -0.080  15.014  18.535  0.00  0.00    +0.000 C 
ATOM     12  C   UNL     1      -0.211  13.550  18.665  0.00  0.00    +0.000 A 
ATOM     13  N   UNL     1       0.341  12.765  19.563  0.00  0.00    +0.000 NA
ATOM     14  C   UNL     1      -0.127  11.508  19.250  0.00  0.00    +0.000 A 
ATOM     15  N   UNL     1      -0.940  11.488  18.178  0.00  0.00    +0.000 NA
ATOM     16  N   UNL     1      -0.980  12.787  17.838  0.00  0.00    +0.000 N 
ATOM     17  H   UNL     1      -1.550  13.077  17.051  0.00  0.00    +0.000 HD
ENDBRANCH   5  14
ENDBRANCH   1   9
BRANCH   2  18
ATOM     18  C   UNL     1       3.671   5.970  18.462  0.00  0.00    +0.000 A 
ATOM     19  C   UNL     1       4.952   6.265  18.023  0.00  0.00    +0.000 A 
ATOM     20  N   UNL     1       5.637   5.093  18.022  0.00  0.00    +0.000 N 
ATOM     21  C   UNL     1       7.037   4.902  17.732  0.00  0.00    +0.000 C 
ATOM     22  N   UNL     1       4.894   4.040  18.374  0.00  0.00    +0.000 NA
ATOM     23  C   UNL     1       3.672   4.541  18.637  0.00  0.00    +0.000 A 
BRANCH  23  24
ATOM     24  C   UNL     1       2.564   3.588  19.111  0.00  0.00    +0.000 C 
ATOM     25  C   UNL     1       3.042   2.111  19.061  0.00  0.00    +0.000 C 
ATOM     26  C   UNL     1       2.172   3.885  20.573  0.00  0.00    +0.000 C 
ATOM     27  C   UNL     1       1.306   3.657  18.220  0.00  0.00    +0.000 C 
ENDBRANCH  23  24
ENDBRANCH   2  18
TORSDOF 4
ENDMDL
MODEL 7
REMARK VINA RESULT:      -7.6      1.431      1.583
REMARK  Name = 
REMARK  9 active torsions:
REMARK  status: ('A' for Active; 'I' for Inactive)
REMARK    1  A    between atoms: C_1  and  C_2
REMARK    2  A    between atoms: C_4  and  C_5
REMARK    3  A    between atoms: C_9  and  N_10
REMARK    4  A    between atoms: C_11  and  C_13
REMARK    5  A    between atoms: N_15  and  C_16
REMARK    6  A    between atoms: C_18  and  C_19
REMARK    7  A    between atoms: C_19  and  C_20
REMARK    8  A    between atoms: C_19  and  C_21
REMARK    9  A    between atoms: C_19  and  C_22
REMARK                            x       y       z     vdW  Elec       q    Type
REMARK                         _______ _______ _______ _____ _____    ______ ____
ROOT
ATOM      1  N   UNL     1       2.202   8.197  18.110  0.00  0.00    +0.000 N 
ATOM      2  C   UNL     1       2.628   7.047  18.762  0.00  0.00    +0.000 C 
ATOM      3  O   UNL     1       2.243   6.686  19.866  0.00  0.00    +0.000 OA
ATOM      4  H   UNL     1       2.606   8.386  17.202  0.00  0.00    +0.000 HD
ENDROOT
BRANCH   1   9
ATOM      5  C   UNL     1      -0.826  10.348  18.250  0.00  0.00    +0.000 A 
ATOM      6  C   UNL     1      -0.673  10.953  19.504  0.00  0.00    +0.000 A 
ATOM      7  C   UNL     1       0.433  10.668  20.294  0.00  0.00    +0.000 A 
ATOM      8  C   UNL     1       1.393   9.765  19.842  0.00  0.00    +0.000 A 
ATOM      9  C   UNL     1       1.269   9.140  18.596  0.00  0.00    +0.000 A 
ATOM     10  C   UNL     1       0.162   9.453  17.795  0.00  0.00    +0.000 A 
BRANCH   5  14
ATOM     11  C   UNL     1      -5.308  11.989  17.047  0.00  0.00    +0.000 C 
ATOM     12  C   UNL     1      -3.972  11.363  17.033  0.00  0.00    +0.000 A 
ATOM     13  N   UNL     1      -3.060  11.384  17.979  0.00  0.00    +0.000 NA
ATOM     14  C   UNL     1      -2.026  10.629  17.470  0.00  0.00    +0.000 A 
ATOM     15  N   UNL     1      -2.263  10.155  16.234  0.00  0.00    +0.000 NA
ATOM     16  N   UNL     1      -3.498  10.626  15.990  0.00  0.00    +0.000 N 
ATOM     17  H   UNL     1      -3.950  10.401  15.111  0.00  0.00    +0.000 HD
ENDBRANCH   5  14
ENDBRANCH   1   9
BRANCH   2  18
ATOM     18  C   UNL     1       3.613   6.262  18.029  0.00  0.00    +0.000 A 
ATOM     19  C   UNL     1       4.703   6.760  17.333  0.00  0.00    +0.000 A 
ATOM     20  N   UNL     1       5.365   5.683  16.838  0.00  0.00    +0.000 N 
ATOM     21  C   UNL     1       6.617   5.685  16.120  0.00  0.00    +0.000 C 
ATOM     22  N   UNL     1       4.768   4.519  17.106  0.00  0.00    +0.000 NA
ATOM     23  C   UNL     1       3.677   4.839  17.826  0.00  0.00    +0.000 A 
BRANCH  23  24
ATOM     24  C   UNL     1       2.766   3.711  18.338  0.00  0.00    +0.000 C 
ATOM     25  C   UNL     1       3.147   2.352  17.688  0.00  0.00    +0.000 C 
ATOM     26  C   UNL     1       2.912   3.536  19.862  0.00  0.00    +0.000 C 
ATOM     27  C   UNL     1       1.282   3.947  17.989  0.00  0.00    +0.000 C 
ENDBRANCH  23  24
ENDBRANCH   2  18
TORSDOF 4
ENDMDL
MODEL 8
REMARK VINA RESULT:      -7.6      2.940      8.089
REMARK  Name = 
REMARK  9 active torsions:
REMARK  status: ('A' for Active; 'I' for Inactive)
REMARK    1  A    between atoms: C_1  and  C_2
REMARK    2  A    between atoms: C_4  and  C_5
REMARK    3  A    between atoms: C_9  and  N_10
REMARK    4  A    between atoms: C_11  and  C_13
REMARK    5  A    between atoms: N_15  and  C_16
REMARK    6  A    between atoms: C_18  and  C_19
REMARK    7  A    between atoms: C_19  and  C_20
REMARK    8  A    between atoms: C_19  and  C_21
REMARK    9  A    between atoms: C_19  and  C_22
REMARK                            x       y       z     vdW  Elec       q    Type
REMARK                         _______ _______ _______ _____ _____    ______ ____
ROOT
ATOM      1  N   UNL     1       2.988   8.585  18.159  0.00  0.00    +0.000 N 
ATOM      2  C   UNL     1       1.791   9.215  17.843  0.00  0.00    +0.000 C 
ATOM      3  O   UNL     1       0.847   8.680  17.277  0.00  0.00    +0.000 OA
ATOM      4  H   UNL     1       3.693   9.145  18.619  0.00  0.00    +0.000 HD
ENDROOT
BRANCH   1   9
ATOM      5  C   UNL     1       4.673   5.661  16.602  0.00  0.00    +0.000 A 
ATOM      6  C   UNL     1       4.106   4.603  17.324  0.00  0.00    +0.000 A 
ATOM      7  C   UNL     1       3.159   4.849  18.309  0.00  0.00    +0.000 A 
ATOM      8  C   UNL     1       2.775   6.160  18.589  0.00  0.00    +0.000 A 
ATOM      9  C   UNL     1       3.325   7.240  17.889  0.00  0.00    +0.000 A 
ATOM     10  C   UNL     1       4.263   6.979  16.880  0.00  0.00    +0.000 A 
BRANCH   5  14
ATOM     11  C   UNL     1       6.908   3.817  12.623  0.00  0.00    +0.000 C 
ATOM     12  C   UNL     1       6.598   4.528  13.878  0.00  0.00    +0.000 A 
ATOM     13  N   UNL     1       5.434   4.638  14.478  0.00  0.00    +0.000 NA
ATOM     14  C   UNL     1       5.705   5.370  15.613  0.00  0.00    +0.000 A 
ATOM     15  N   UNL     1       6.996   5.730  15.725  0.00  0.00    +0.000 NA
ATOM     16  N   UNL     1       7.533   5.179  14.625  0.00  0.00    +0.000 N 
ATOM     17  H   UNL     1       8.528   5.278  14.455  0.00  0.00    +0.000 HD
ENDBRANCH   5  14
ENDBRANCH   1   9
BRANCH   2  18
ATOM     18  C   UNL     1       1.723  10.619  18.227  0.00  0.00    +0.000 A 
ATOM     19  C   UNL     1       2.606  11.617  17.845  0.00  0.00    +0.000 A 
ATOM     20  N   UNL     1       2.147  12.767  18.401  0.00  0.00    +0.000 N 
ATOM     21  C   UNL     1       2.676  14.096  18.214  0.00  0.00    +0.000 C 
ATOM     22  N   UNL     1       1.062  12.598  19.163  0.00  0.00    +0.000 NA
ATOM     23  C   UNL     1       0.782  11.283  19.091  0.00  0.00    +0.000 A 
BRANCH  23  24
ATOM     24  C   UNL     1      -0.449  10.743  19.837  0.00  0.00    +0.000 C 
ATOM     25  C   UNL     1      -1.570  10.342  18.840  0.00  0.00    +0.000 C 
ATOM     26  C   UNL     1      -0.091   9.479  20.644  0.00  0.00    +0.000 C 
ATOM     27  C   UNL     1      -1.075  11.792  20.779  0.00  0.00    +0.000 C 
ENDBRANCH  23  24
ENDBRANCH   2  18
TORSDOF 4
ENDMDL
MODEL 9
REMARK VINA RESULT:      -7.4      2.869      7.812
REMARK  Name = 
REMARK  9 active torsions:
REMARK  status: ('A' for Active; 'I' for Inactive)
REMARK    1  A    between atoms: C_1  and  C_2
REMARK    2  A    between atoms: C_4  and  C_5
REMARK    3  A    between atoms: C_9  and  N_10
REMARK    4  A    between atoms: C_11  and  C_13
REMARK    5  A    between atoms: N_15  and  C_16
REMARK    6  A    between atoms: C_18  and  C_19
REMARK    7  A    between atoms: C_19  and  C_20
REMARK    8  A    between atoms: C_19  and  C_21
REMARK    9  A    between atoms: C_19  and  C_22
REMARK                            x       y       z     vdW  Elec       q    Type
REMARK                         _______ _______ _______ _____ _____    ______ ____
ROOT
ATOM      1  N   UNL     1       2.380   8.416  18.997  0.00  0.00    +0.000 N 
ATOM      2  C   UNL     1       1.381   9.242  18.500  0.00  0.00    +0.000 C 
ATOM      3  O   UNL     1       0.653   8.969  17.555  0.00  0.00    +0.000 OA
ATOM      4  H   UNL     1       2.919   8.765  19.779  0.00  0.00    +0.000 HD
ENDROOT
BRANCH   1   9
ATOM      5  C   UNL     1       4.214   5.789  17.111  0.00  0.00    +0.000 A 
ATOM      6  C   UNL     1       3.544   4.633  17.531  0.00  0.00    +0.000 A 
ATOM      7  C   UNL     1       2.480   4.719  18.420  0.00  0.00    +0.000 A 
ATOM      8  C   UNL     1       2.081   5.963  18.905  0.00  0.00    +0.000 A 
ATOM      9  C   UNL     1       2.731   7.137  18.508  0.00  0.00    +0.000 A 
ATOM     10  C   UNL     1       3.789   7.043  17.592  0.00  0.00    +0.000 A 
BRANCH   5  14
ATOM     11  C   UNL     1       7.041   4.313  13.361  0.00  0.00    +0.000 C 
ATOM     12  C   UNL     1       6.520   4.965  14.578  0.00  0.00    +0.000 A 
ATOM     13  N   UNL     1       5.303   4.899  15.071  0.00  0.00    +0.000 NA
ATOM     14  C   UNL     1       5.362   5.658  16.220  0.00  0.00    +0.000 A 
ATOM     15  N   UNL     1       6.571   6.203  16.443  0.00  0.00    +0.000 NA
ATOM     16  N   UNL     1       7.279   5.742  15.399  0.00  0.00    +0.000 N 
ATOM     17  H   UNL     1       8.259   5.986  15.318  0.00  0.00    +0.000 HD
ENDBRANCH   5  14
ENDBRANCH   1   9
BRANCH   2  18
ATOM     18  C   UNL     1       1.248  10.518  19.191  0.00  0.00    +0.000 A 
ATOM     19  C   UNL     1       1.563  11.765  18.675  0.00  0.00    +0.000 A 
ATOM     20  N   UNL     1       1.254  12.668  19.640  0.00  0.00    +0.000 N 
ATOM     21  C   UNL     1       1.318  14.106  19.541  0.00  0.00    +0.000 C 
ATOM     22  N   UNL     1       0.813  12.111  20.772  0.00  0.00    +0.000 NA
ATOM     23  C   UNL     1       0.810  10.786  20.536  0.00  0.00    +0.000 A 
BRANCH  23  24
ATOM     24  C   UNL     1       0.315   9.835  21.637  0.00  0.00    +0.000 C 
ATOM     25  C   UNL     1       1.510   9.187  22.388  0.00  0.00    +0.000 C 
ATOM     26  C   UNL     1      -0.516  10.597  22.688  0.00  0.00    +0.000 C 
ATOM     27  C   UNL     1      -0.518   8.665  21.075  0.00  0.00    +0.000 C 
ENDBRANCH  23  24
ENDBRANCH   2  18
TORSDOF 4
ENDMDL
