MODEL 1
REMARK VINA RESULT:      -8.2      0.000      0.000
REMARK  Name = 
REMARK  5 active torsions:
REMARK  status: ('A' for Active; 'I' for Inactive)
REMARK    1  A    between atoms: N_1  and  S_2
REMARK    2  A    between atoms: S_2  and  C_5
REMARK    3  A    between atoms: C_5  and  C_6
REMARK    4  A    between atoms: C_10  and  C_11
REMARK    5  A    between atoms: C_16  and  C_17
REMARK                            x       y       z     vdW  Elec       q    Type
REMARK                         _______ _______ _______ _____ _____    ______ ____
ROOT
ATOM      1  C   UNL     1      -0.244  10.614  22.383  0.00  0.00    +0.000 C 
ATOM      2  O   UNL     1       0.417  10.059  23.255  0.00  0.00    +0.000 OA
ATOM      3  N   UNL     1      -0.230  10.305  21.040  0.00  0.00    +0.000 N 
ATOM      4  C   UNL     1       0.555   9.291  20.546  0.00  0.00    +0.000 A 
ATOM      5  C   UNL     1       0.740   7.993  21.066  0.00  0.00    +0.000 A 
ATOM      6  C   UNL     1       1.631   7.364  20.209  0.00  0.00    +0.000 A 
ATOM      7  N   UNL     1       1.959   8.342  19.302  0.00  0.00    +0.000 N 
ATOM      8  N   UNL     1       1.219   9.461  19.404  0.00  0.00    +0.000 NA
ATOM      9  H   UNL     1      -0.410  11.045  20.375  0.00  0.00    +0.000 HD
ATOM     10  H   UNL     1       2.640   8.287  18.551  0.00  0.00    +0.000 HD
ENDROOT
BRANCH   6  11
ATOM     11  C   UNL     1       2.141   5.999  20.166  0.00  0.00    +0.000 A 
ATOM     12  C   UNL     1       3.377   5.736  19.551  0.00  0.00    +0.000 A 
ATOM     13  C   UNL     1       3.893   4.443  19.529  0.00  0.00    +0.000 A 
ATOM     14  F   UNL     1       5.079   4.216  18.949  0.00  0.00    +0.000 F 
ATOM     15  C   UNL     1       3.204   3.387  20.106  0.00  0.00    +0.000 A 
ATOM     16  C   UNL     1       1.982   3.646  20.709  0.00  0.00    +0.000 A 
ATOM     17  F   UNL     1       1.301   2.636  21.269  0.00  0.00    +0.000 F 
ATOM     18  C   UNL     1       1.448   4.932  20.747  0.00  0.00    +0.000 A 
ENDBRANCH   6  11
BRANCH   1  23
ATOM     19  C   UNL     1      -3.121  12.683  23.724  0.00  0.00    +0.000 A 
ATOM     20  C   UNL     1      -2.708  13.973  23.358  0.00  0.00    +0.000 A 
ATOM     21  C   UNL     1      -1.489  14.173  22.706  0.00  0.00    +0.000 A 
ATOM     22  C   UNL     1      -0.665  13.087  22.410  0.00  0.00    +0.000 A 
ATOM     23  C   UNL     1      -1.074  11.792  22.750  0.00  0.00    +0.000 A 
ATOM     24  C   UNL     1      -2.300  11.594  23.397  0.00  0.00    +0.000 A 
BRANCH  19  25
ATOM     25  C   UNL     1      -4.424  12.477  24.457  0.00  0.00    +0.000 C 
BRANCH  25  26
ATOM     26  S   UNL     1      -5.801  12.881  23.373  0.00  0.00    +0.000 S 
ATOM     27  O   UNL     1      -5.587  12.346  22.048  0.00  0.00    +0.000 OA
ATOM     28  O   UNL     1      -6.239  14.242  23.606  0.00  0.00    +0.000 OA
BRANCH  26  29
ATOM     29  N   UNL     1      -7.027  11.932  24.038  0.00  0.00    +0.000 NA
ATOM     30  H   UNL     1      -7.678  11.663  23.294  0.00  0.00    +0.000 HD
ATOM     31  H   UNL     1      -7.485  12.431  24.802  0.00  0.00    +0.000 HD
ENDBRANCH  26  29
ENDBRANCH  25  26
ENDBRANCH  19  25
ENDBRANCH   1  23
TORSDOF 5
ENDMDL
MODEL 2
REMARK VINA RESULT:      -8.2      5.854     10.492
REMARK  Name = 
REMARK  5 active torsions:
REMARK  status: ('A' for Active; 'I' for Inactive)
REMARK    1  A    between atoms: N_1  and  S_2
REMARK    2  A    between atoms: S_2  and  C_5
REMARK    3  A    between atoms: C_5  and  C_6
REMARK    4  A    between atoms: C_10  and  C_11
REMARK    5  A    between atoms: C_16  and  C_17
REMARK                            x       y       z     vdW  Elec       q    Type
REMARK                         _______ _______ _______ _____ _____    ______ ____
ROOT
ATOM      1  C   UNL     1       2.152   7.481  18.896  0.00  0.00    +0.000 C 
ATOM      2  O   UNL     1       2.063   8.509  18.234  0.00  0.00    +0.000 OA
ATOM      3  N   UNL     1       1.807   7.342  20.224  0.00  0.00    +0.000 N 
ATOM      4  C   UNL     1       1.298   8.396  20.945  0.00  0.00    +0.000 A 
ATOM      5  C   UNL     1       0.307   9.323  20.562  0.00  0.00    +0.000 A 
ATOM      6  C   UNL     1       0.160  10.188  21.637  0.00  0.00    +0.000 A 
ATOM      7  N   UNL     1       1.110   9.761  22.532  0.00  0.00    +0.000 N 
ATOM      8  N   UNL     1       1.707   8.603  22.196  0.00  0.00    +0.000 NA
ATOM      9  H   UNL     1       2.311   6.668  20.783  0.00  0.00    +0.000 HD
ATOM     10  H   UNL     1       1.359  10.185  23.421  0.00  0.00    +0.000 HD
ENDROOT
BRANCH   6  11
ATOM     11  C   UNL     1      -0.761  11.291  21.879  0.00  0.00    +0.000 A 
ATOM     12  C   UNL     1      -0.817  12.363  20.971  0.00  0.00    +0.000 A 
ATOM     13  C   UNL     1      -1.714  13.410  21.170  0.00  0.00    +0.000 A 
ATOM     14  F   UNL     1      -1.761  14.415  20.287  0.00  0.00    +0.000 F 
ATOM     15  C   UNL     1      -2.566  13.424  22.264  0.00  0.00    +0.000 A 
ATOM     16  C   UNL     1      -2.507  12.368  23.162  0.00  0.00    +0.000 A 
ATOM     17  F   UNL     1      -3.321  12.368  24.226  0.00  0.00    +0.000 F 
ATOM     18  C   UNL     1      -1.621  11.308  22.981  0.00  0.00    +0.000 A 
ENDBRANCH   6  11
BRANCH   1  23
ATOM     19  C   UNL     1       4.671   5.254  17.150  0.00  0.00    +0.000 A 
ATOM     20  C   UNL     1       3.927   4.072  17.015  0.00  0.00    +0.000 A 
ATOM     21  C   UNL     1       2.625   3.989  17.515  0.00  0.00    +0.000 A 
ATOM     22  C   UNL     1       2.048   5.086  18.156  0.00  0.00    +0.000 A 
ATOM     23  C   UNL     1       2.771   6.278  18.278  0.00  0.00    +0.000 A 
ATOM     24  C   UNL     1       4.074   6.360  17.769  0.00  0.00    +0.000 A 
BRANCH  19  25
ATOM     25  C   UNL     1       6.089   5.326  16.636  0.00  0.00    +0.000 C 
BRANCH  25  26
ATOM     26  S   UNL     1       7.235   4.917  17.960  0.00  0.00    +0.000 S 
ATOM     27  O   UNL     1       8.373   4.189  17.449  0.00  0.00    +0.000 OA
ATOM     28  O   UNL     1       6.508   4.503  19.143  0.00  0.00    +0.000 OA
BRANCH  26  29
ATOM     29  N   UNL     1       7.833   6.444  18.356  0.00  0.00    +0.000 NA
ATOM     30  H   UNL     1       8.468   6.754  17.614  0.00  0.00    +0.000 HD
ATOM     31  H   UNL     1       8.279   6.422  19.275  0.00  0.00    +0.000 HD
ENDBRANCH  26  29
ENDBRANCH  25  26
ENDBRANCH  19  25
ENDBRANCH   1  23
TORSDOF 5
ENDMDL
MODEL 3
REMARK VINA RESULT:      -8.2      5.650     10.109
REMARK  Name = 
REMARK  5 active torsions:
REMARK  status: ('A' for Active; 'I' for Inactive)
REMARK    1  A    between atoms: N_1  and  S_2
REMARK    2  A    between atoms: S_2  and  C_5
REMARK    3  A    between atoms: C_5  and  C_6
REMARK    4  A    between atoms: C_10  and  C_11
REMARK    5  A    between atoms: C_16  and  C_17
REMARK                            x       y       z     vdW  Elec       q    Type
REMARK                         _______ _______ _______ _____ _____    ______ ____
ROOT
ATOM      1  C   UNL     1       2.208   7.703  18.955  0.00  0.00    +0.000 C 
ATOM      2  O   UNL     1       1.952   7.397  20.115  0.00  0.00    +0.000 OA
ATOM      3  N   UNL     1       1.709   8.796  18.279  0.00  0.00    +0.000 N 
ATOM      4  C   UNL     1       0.850   9.682  18.885  0.00  0.00    +0.000 A 
ATOM      5  C   UNL     1       0.942  10.250  20.173  0.00  0.00    +0.000 A 
ATOM      6  C   UNL     1      -0.171  11.067  20.308  0.00  0.00    +0.000 A 
ATOM      7  N   UNL     1      -0.865  10.869  19.140  0.00  0.00    +0.000 N 
ATOM      8  N   UNL     1      -0.202  10.151  18.216  0.00  0.00    +0.000 NA
ATOM      9  H   UNL     1       1.587   8.727  17.278  0.00  0.00    +0.000 HD
ATOM     10  H   UNL     1      -1.775  11.246  18.888  0.00  0.00    +0.000 HD
ENDROOT
BRANCH   6  11
ATOM     11  C   UNL     1      -0.587  11.977  21.368  0.00  0.00    +0.000 A 
ATOM     12  C   UNL     1       0.086  13.199  21.540  0.00  0.00    +0.000 A 
ATOM     13  C   UNL     1      -0.319  14.094  22.528  0.00  0.00    +0.000 A 
ATOM     14  F   UNL     1       0.329  15.258  22.667  0.00  0.00    +0.000 F 
ATOM     15  C   UNL     1      -1.386  13.804  23.363  0.00  0.00    +0.000 A 
ATOM     16  C   UNL     1      -2.048  12.596  23.196  0.00  0.00    +0.000 A 
ATOM     17  F   UNL     1      -3.080  12.298  23.996  0.00  0.00    +0.000 F 
ATOM     18  C   UNL     1      -1.664  11.686  22.212  0.00  0.00    +0.000 A 
ENDBRANCH   6  11
BRANCH   1  23
ATOM     19  C   UNL     1       3.583   4.525  17.417  0.00  0.00    +0.000 A 
ATOM     20  C   UNL     1       4.679   5.033  16.703  0.00  0.00    +0.000 A 
ATOM     21  C   UNL     1       4.953   6.403  16.698  0.00  0.00    +0.000 A 
ATOM     22  C   UNL     1       4.136   7.285  17.405  0.00  0.00    +0.000 A 
ATOM     23  C   UNL     1       3.051   6.790  18.139  0.00  0.00    +0.000 A 
ATOM     24  C   UNL     1       2.784   5.414  18.148  0.00  0.00    +0.000 A 
BRANCH  19  25
ATOM     25  C   UNL     1       3.274   3.048  17.392  0.00  0.00    +0.000 C 
BRANCH  25  26
ATOM     26  S   UNL     1       3.643   2.324  18.997  0.00  0.00    +0.000 S 
ATOM     27  O   UNL     1       2.440   2.179  19.784  0.00  0.00    +0.000 OA
ATOM     28  O   UNL     1       4.865   2.888  19.532  0.00  0.00    +0.000 OA
BRANCH  26  29
ATOM     29  N   UNL     1       4.071   0.753  18.555  0.00  0.00    +0.000 NA
ATOM     30  H   UNL     1       4.746   0.390  19.234  0.00  0.00    +0.000 HD
ATOM     31  H   UNL     1       4.426   0.740  17.598  0.00  0.00    +0.000 HD
ENDBRANCH  26  29
ENDBRANCH  25  26
ENDBRANCH  19  25
ENDBRANCH   1  23
TORSDOF 5
ENDMDL
MODEL 4
REMARK VINA RESULT:      -8.2      5.719     10.143
REMARK  Name = 
REMARK  5 active torsions:
REMARK  status: ('A' for Active; 'I' for Inactive)
REMARK    1  A    between atoms: N_1  and  S_2
REMARK    2  A    between atoms: S_2  and  C_5
REMARK    3  A    between atoms: C_5  and  C_6
REMARK    4  A    between atoms: C_10  and  C_11
REMARK    5  A    between atoms: C_16  and  C_17
REMARK                            x       y       z     vdW  Elec       q    Type
REMARK                         _______ _______ _______ _____ _____    ______ ____
ROOT
ATOM      1  C   UNL     1       2.410   7.947  18.634  0.00  0.00    +0.000 C 
ATOM      2  O   UNL     1       2.384   9.057  18.114  0.00  0.00    +0.000 OA
ATOM      3  N   UNL     1       1.904   7.623  19.874  0.00  0.00    +0.000 N 
ATOM      4  C   UNL     1       1.286   8.565  20.663  0.00  0.00    +0.000 A 
ATOM      5  C   UNL     1       0.332   9.534  20.287  0.00  0.00    +0.000 A 
ATOM      6  C   UNL     1       0.033  10.240  21.443  0.00  0.00    +0.000 A 
ATOM      7  N   UNL     1       0.870   9.695  22.386  0.00  0.00    +0.000 N 
ATOM      8  N   UNL     1       1.529   8.598  21.972  0.00  0.00    +0.000 NA
ATOM      9  H   UNL     1       2.347   6.880  20.395  0.00  0.00    +0.000 HD
ATOM     10  H   UNL     1       0.996   9.993  23.349  0.00  0.00    +0.000 HD
ENDROOT
BRANCH   6  11
ATOM     11  C   UNL     1      -0.935  11.296  21.715  0.00  0.00    +0.000 A 
ATOM     12  C   UNL     1      -1.677  11.270  22.909  0.00  0.00    +0.000 A 
ATOM     13  C   UNL     1      -2.583  12.288  23.199  0.00  0.00    +0.000 A 
ATOM     14  F   UNL     1      -3.271  12.250  24.347  0.00  0.00    +0.000 F 
ATOM     15  C   UNL     1      -2.777  13.344  22.322  0.00  0.00    +0.000 A 
ATOM     16  C   UNL     1      -2.047  13.367  21.142  0.00  0.00    +0.000 A 
ATOM     17  F   UNL     1      -2.225  14.379  20.282  0.00  0.00    +0.000 F 
ATOM     18  C   UNL     1      -1.132  12.362  20.833  0.00  0.00    +0.000 A 
ENDBRANCH   6  11
BRANCH   1  23
ATOM     19  C   UNL     1       3.296   4.474  17.403  0.00  0.00    +0.000 A 
ATOM     20  C   UNL     1       4.505   4.732  16.741  0.00  0.00    +0.000 A 
ATOM     21  C   UNL     1       5.016   6.030  16.669  0.00  0.00    +0.000 A 
ATOM     22  C   UNL     1       4.325   7.090  17.258  0.00  0.00    +0.000 A 
ATOM     23  C   UNL     1       3.128   6.844  17.940  0.00  0.00    +0.000 A 
ATOM     24  C   UNL     1       2.622   5.540  18.017  0.00  0.00    +0.000 A 
BRANCH  19  25
ATOM     25  C   UNL     1       2.733   3.074  17.450  0.00  0.00    +0.000 C 
BRANCH  25  26
ATOM     26  S   UNL     1       3.188   2.289  19.002  0.00  0.00    +0.000 S 
ATOM     27  O   UNL     1       2.012   1.887  19.740  0.00  0.00    +0.000 OA
ATOM     28  O   UNL     1       4.294   2.995  19.616  0.00  0.00    +0.000 OA
BRANCH  26  29
ATOM     29  N   UNL     1       3.873   0.849  18.450  0.00  0.00    +0.000 NA
ATOM     30  H   UNL     1       4.892   0.949  18.440  0.00  0.00    +0.000 HD
ATOM     31  H   UNL     1       3.490   0.603  17.536  0.00  0.00    +0.000 HD
ENDBRANCH  26  29
ENDBRANCH  25  26
ENDBRANCH  19  25
ENDBRANCH   1  23
TORSDOF 5
ENDMDL
MODEL 5
REMARK VINA RESULT:      -8.2      5.684     10.058
REMARK  Name = 
REMARK  5 active torsions:
REMARK  status: ('A' for Active; 'I' for Inactive)
REMARK    1  A    between atoms: N_1  and  S_2
REMARK    2  A    between atoms: S_2  and  C_5
REMARK    3  A    between atoms: C_5  and  C_6
REMARK    4  A    between atoms: C_10  and  C_11
REMARK    5  A    between atoms: C_16  and  C_17
REMARK                            x       y       z     vdW  Elec       q    Type
REMARK                         _______ _______ _______ _____ _____    ______ ____
ROOT
ATOM      1  C   UNL     1       2.264   8.066  18.717  0.00  0.00    +0.000 C 
ATOM      2  O   UNL     1       2.122   9.151  18.165  0.00  0.00    +0.000 OA
ATOM      3  N   UNL     1       1.854   7.749  19.995  0.00  0.00    +0.000 N 
ATOM      4  C   UNL     1       1.207   8.668  20.787  0.00  0.00    +0.000 A 
ATOM      5  C   UNL     1       0.160   9.546  20.436  0.00  0.00    +0.000 A 
ATOM      6  C   UNL     1      -0.130  10.268  21.585  0.00  0.00    +0.000 A 
ATOM      7  N   UNL     1       0.798   9.824  22.494  0.00  0.00    +0.000 N 
ATOM      8  N   UNL     1       1.518   8.767  22.078  0.00  0.00    +0.000 NA
ATOM      9  H   UNL     1       2.382   7.062  20.513  0.00  0.00    +0.000 HD
ATOM     10  H   UNL     1       0.952  10.165  23.439  0.00  0.00    +0.000 HD
ENDROOT
BRANCH   6  11
ATOM     11  C   UNL     1      -1.162  11.255  21.878  0.00  0.00    +0.000 A 
ATOM     12  C   UNL     1      -1.513  12.205  20.903  0.00  0.00    +0.000 A 
ATOM     13  C   UNL     1      -2.519  13.136  21.156  0.00  0.00    +0.000 A 
ATOM     14  F   UNL     1      -2.846  14.025  20.210  0.00  0.00    +0.000 F 
ATOM     15  C   UNL     1      -3.192  13.151  22.367  0.00  0.00    +0.000 A 
ATOM     16  C   UNL     1      -2.842  12.216  23.331  0.00  0.00    +0.000 A 
ATOM     17  F   UNL     1      -3.481  12.219  24.509  0.00  0.00    +0.000 F 
ATOM     18  C   UNL     1      -1.842  11.273  23.099  0.00  0.00    +0.000 A 
ENDBRANCH   6  11
BRANCH   1  23
ATOM     19  C   UNL     1       3.364   4.628  17.562  0.00  0.00    +0.000 A 
ATOM     20  C   UNL     1       4.501   4.957  16.810  0.00  0.00    +0.000 A 
ATOM     21  C   UNL     1       4.893   6.289  16.654  0.00  0.00    +0.000 A 
ATOM     22  C   UNL     1       4.153   7.312  17.248  0.00  0.00    +0.000 A 
ATOM     23  C   UNL     1       3.028   6.998  18.019  0.00  0.00    +0.000 A 
ATOM     24  C   UNL     1       2.642   5.660  18.180  0.00  0.00    +0.000 A 
BRANCH  19  25
ATOM     25  C   UNL     1       2.928   3.190  17.700  0.00  0.00    +0.000 C 
BRANCH  25  26
ATOM     26  S   UNL     1       3.669   2.470  19.172  0.00  0.00    +0.000 S 
ATOM     27  O   UNL     1       2.663   2.187  20.169  0.00  0.00    +0.000 OA
ATOM     28  O   UNL     1       4.915   3.140  19.485  0.00  0.00    +0.000 OA
BRANCH  26  29
ATOM     29  N   UNL     1       4.147   0.960  18.590  0.00  0.00    +0.000 NA
ATOM     30  H   UNL     1       4.456   0.383  19.378  0.00  0.00    +0.000 HD
ATOM     31  H   UNL     1       4.866   1.068  17.873  0.00  0.00    +0.000 HD
ENDBRANCH  26  29
ENDBRANCH  25  26
ENDBRANCH  19  25
ENDBRANCH   1  23
TORSDOF 5
ENDMDL
MODEL 6
REMARK VINA RESULT:      -8.2      3.771      4.864
REMARK  Name = 
REMARK  5 active torsions:
REMARK  status: ('A' for Active; 'I' for Inactive)
REMARK    1  A    between atoms: N_1  and  S_2
REMARK    2  A    between atoms: S_2  and  C_5
REMARK    3  A    between atoms: C_5  and  C_6
REMARK    4  A    between atoms: C_10  and  C_11
REMARK    5  A    between atoms: C_16  and  C_17
REMARK                            x       y       z     vdW  Elec       q    Type
REMARK                         _______ _______ _______ _____ _____    ______ ____
ROOT
ATOM      1  C   UNL     1       1.207   8.652  20.064  0.00  0.00    +0.000 C 
ATOM      2  O   UNL     1       1.357   9.011  18.901  0.00  0.00    +0.000 OA
ATOM      3  N   UNL     1       1.670   7.475  20.613  0.00  0.00    +0.000 N 
ATOM      4  C   UNL     1       2.384   6.569  19.865  0.00  0.00    +0.000 A 
ATOM      5  C   UNL     1       3.441   6.816  18.964  0.00  0.00    +0.000 A 
ATOM      6  C   UNL     1       3.811   5.576  18.465  0.00  0.00    +0.000 A 
ATOM      7  N   UNL     1       2.915   4.710  19.043  0.00  0.00    +0.000 N 
ATOM      8  N   UNL     1       2.141   5.266  19.992  0.00  0.00    +0.000 NA
ATOM      9  H   UNL     1       1.146   7.059  21.370  0.00  0.00    +0.000 HD
ATOM     10  H   UNL     1       2.819   3.713  18.872  0.00  0.00    +0.000 HD
ENDROOT
BRANCH   6  11
ATOM     11  C   UNL     1       4.887   5.169  17.570  0.00  0.00    +0.000 A 
ATOM     12  C   UNL     1       6.161   4.891  18.094  0.00  0.00    +0.000 A 
ATOM     13  C   UNL     1       7.192   4.471  17.257  0.00  0.00    +0.000 A 
ATOM     14  F   UNL     1       8.396   4.199  17.779  0.00  0.00    +0.000 F 
ATOM     15  C   UNL     1       6.991   4.320  15.894  0.00  0.00    +0.000 A 
ATOM     16  C   UNL     1       5.735   4.599  15.376  0.00  0.00    +0.000 A 
ATOM     17  F   UNL     1       5.524   4.462  14.060  0.00  0.00    +0.000 F 
ATOM     18  C   UNL     1       4.687   5.017  16.194  0.00  0.00    +0.000 A 
ENDBRANCH   6  11
BRANCH   1  23
ATOM     19  C   UNL     1      -1.063  11.425  21.297  0.00  0.00    +0.000 A 
ATOM     20  C   UNL     1      -1.109  11.135  22.668  0.00  0.00    +0.000 A 
ATOM     21  C   UNL     1      -0.431  10.029  23.186  0.00  0.00    +0.000 A 
ATOM     22  C   UNL     1       0.303   9.196  22.341  0.00  0.00    +0.000 A 
ATOM     23  C   UNL     1       0.375   9.486  20.973  0.00  0.00    +0.000 A 
ATOM     24  C   UNL     1      -0.300  10.600  20.458  0.00  0.00    +0.000 A 
BRANCH  19  25
ATOM     25  C   UNL     1      -1.825  12.602  20.739  0.00  0.00    +0.000 C 
BRANCH  25  26
ATOM     26  S   UNL     1      -0.702  13.677  19.833  0.00  0.00    +0.000 S 
ATOM     27  O   UNL     1      -0.654  13.311  18.437  0.00  0.00    +0.000 OA
ATOM     28  O   UNL     1       0.489  13.931  20.617  0.00  0.00    +0.000 OA
BRANCH  26  29
ATOM     29  N   UNL     1      -1.545  15.138  19.876  0.00  0.00    +0.000 NA
ATOM     30  H   UNL     1      -1.959  15.255  20.806  0.00  0.00    +0.000 HD
ATOM     31  H   UNL     1      -2.239  15.167  19.127  0.00  0.00    +0.000 HD
ENDBRANCH  26  29
ENDBRANCH  25  26
ENDBRANCH  19  25
ENDBRANCH   1  23
TORSDOF 5
ENDMDL
MODEL 7
REMARK VINA RESULT:      -8.2      3.728      4.811
REMARK  Name = 
REMARK  5 active torsions:
REMARK  status: ('A' for Active; 'I' for Inactive)
REMARK    1  A    between atoms: N_1  and  S_2
REMARK    2  A    between atoms: S_2  and  C_5
REMARK    3  A    between atoms: C_5  and  C_6
REMARK    4  A    between atoms: C_10  and  C_11
REMARK    5  A    between atoms: C_16  and  C_17
REMARK                            x       y       z     vdW  Elec       q    Type
REMARK                         _______ _______ _______ _____ _____    ______ ____
ROOT
ATOM      1  C   UNL     1       1.161   8.684  20.135  0.00  0.00    +0.000 C 
ATOM      2  O   UNL     1       1.301   9.003  18.959  0.00  0.00    +0.000 OA
ATOM      3  N   UNL     1       1.642   7.534  20.723  0.00  0.00    +0.000 N 
ATOM      4  C   UNL     1       2.364   6.611  20.004  0.00  0.00    +0.000 A 
ATOM      5  C   UNL     1       3.413   6.839  19.088  0.00  0.00    +0.000 A 
ATOM      6  C   UNL     1       3.797   5.586  18.632  0.00  0.00    +0.000 A 
ATOM      7  N   UNL     1       2.915   4.730  19.244  0.00  0.00    +0.000 N 
ATOM      8  N   UNL     1       2.138   5.310  20.177  0.00  0.00    +0.000 NA
ATOM      9  H   UNL     1       1.127   7.138  21.496  0.00  0.00    +0.000 HD
ATOM     10  H   UNL     1       2.831   3.727  19.110  0.00  0.00    +0.000 HD
ENDROOT
BRANCH   6  11
ATOM     11  C   UNL     1       4.874   5.162  17.746  0.00  0.00    +0.000 A 
ATOM     12  C   UNL     1       4.643   5.071  16.363  0.00  0.00    +0.000 A 
ATOM     13  C   UNL     1       5.670   4.698  15.499  0.00  0.00    +0.000 A 
ATOM     14  F   UNL     1       5.432   4.628  14.183  0.00  0.00    +0.000 F 
ATOM     15  C   UNL     1       6.937   4.405  15.978  0.00  0.00    +0.000 A 
ATOM     16  C   UNL     1       7.165   4.491  17.344  0.00  0.00    +0.000 A 
ATOM     17  F   UNL     1       8.383   4.208  17.824  0.00  0.00    +0.000 F 
ATOM     18  C   UNL     1       6.154   4.866  18.227  0.00  0.00    +0.000 A 
ENDBRANCH   6  11
BRANCH   1  23
ATOM     19  C   UNL     1      -1.125  11.480  21.284  0.00  0.00    +0.000 A 
ATOM     20  C   UNL     1      -1.173  11.228  22.663  0.00  0.00    +0.000 A 
ATOM     21  C   UNL     1      -0.492  10.139  23.213  0.00  0.00    +0.000 A 
ATOM     22  C   UNL     1       0.249   9.287  22.393  0.00  0.00    +0.000 A 
ATOM     23  C   UNL     1       0.323   9.539  21.018  0.00  0.00    +0.000 A 
ATOM     24  C   UNL     1      -0.355  10.636  20.470  0.00  0.00    +0.000 A 
BRANCH  19  25
ATOM     25  C   UNL     1      -1.889  12.638  20.692  0.00  0.00    +0.000 C 
BRANCH  25  26
ATOM     26  S   UNL     1      -0.744  13.787  19.914  0.00  0.00    +0.000 S 
ATOM     27  O   UNL     1      -0.592  13.490  18.509  0.00  0.00    +0.000 OA
ATOM     28  O   UNL     1       0.383  14.039  20.788  0.00  0.00    +0.000 OA
BRANCH  26  29
ATOM     29  N   UNL     1      -1.635  15.219  19.966  0.00  0.00    +0.000 NA
ATOM     30  H   UNL     1      -2.561  15.048  19.562  0.00  0.00    +0.000 HD
ATOM     31  H   UNL     1      -1.129  15.968  19.491  0.00  0.00    +0.000 HD
ENDBRANCH  26  29
ENDBRANCH  25  26
ENDBRANCH  19  25
ENDBRANCH   1  23
TORSDOF 5
ENDMDL
MODEL 8
REMARK VINA RESULT:      -8.1      5.645     10.206
REMARK  Name = 
REMARK  5 active torsions:
REMARK  status: ('A' for Active; 'I' for Inactive)
REMARK    1  A    between atoms: N_1  and  S_2
REMARK    2  A    between atoms: S_2  and  C_5
REMARK    3  A    between atoms: C_5  and  C_6
REMARK    4  A    between atoms: C_10  and  C_11
REMARK    5  A    between atoms: C_16  and  C_17
REMARK                            x       y       z     vdW  Elec       q    Type
REMARK                         _______ _______ _______ _____ _____    ______ ____
ROOT
ATOM      1  C   UNL     1       2.167   7.772  18.940  0.00  0.00    +0.000 C 
ATOM      2  O   UNL     1       1.965   7.515  20.122  0.00  0.00    +0.000 OA
ATOM      3  N   UNL     1       1.624   8.826  18.237  0.00  0.00    +0.000 N 
ATOM      4  C   UNL     1       0.778   9.728  18.840  0.00  0.00    +0.000 A 
ATOM      5  C   UNL     1       0.917  10.354  20.096  0.00  0.00    +0.000 A 
ATOM      6  C   UNL     1      -0.202  11.162  20.242  0.00  0.00    +0.000 A 
ATOM      7  N   UNL     1      -0.942  10.904  19.114  0.00  0.00    +0.000 N 
ATOM      8  N   UNL     1      -0.307  10.152  18.196  0.00  0.00    +0.000 NA
ATOM      9  H   UNL     1       1.461   8.711  17.247  0.00  0.00    +0.000 HD
ATOM     10  H   UNL     1      -1.867  11.256  18.885  0.00  0.00    +0.000 HD
ENDROOT
BRANCH   6  11
ATOM     11  C   UNL     1      -0.586  12.114  21.277  0.00  0.00    +0.000 A 
ATOM     12  C   UNL     1      -1.652  11.810  22.141  0.00  0.00    +0.000 A 
ATOM     13  C   UNL     1      -2.011  12.694  23.156  0.00  0.00    +0.000 A 
ATOM     14  F   UNL     1      -3.022  12.380  23.977  0.00  0.00    +0.000 F 
ATOM     15  C   UNL     1      -1.335  13.890  23.336  0.00  0.00    +0.000 A 
ATOM     16  C   UNL     1      -0.286  14.193  22.479  0.00  0.00    +0.000 A 
ATOM     17  F   UNL     1       0.377  15.347  22.637  0.00  0.00    +0.000 F 
ATOM     18  C   UNL     1       0.095  13.322  21.460  0.00  0.00    +0.000 A 
ENDBRANCH   6  11
BRANCH   1  23
ATOM     19  C   UNL     1       3.444   4.556  17.394  0.00  0.00    +0.000 A 
ATOM     20  C   UNL     1       4.573   5.027  16.707  0.00  0.00    +0.000 A 
ATOM     21  C   UNL     1       4.901   6.385  16.720  0.00  0.00    +0.000 A 
ATOM     22  C   UNL     1       4.106   7.292  17.421  0.00  0.00    +0.000 A 
ATOM     23  C   UNL     1       2.989   6.833  18.130  0.00  0.00    +0.000 A 
ATOM     24  C   UNL     1       2.667   5.470  18.121  0.00  0.00    +0.000 A 
BRANCH  19  25
ATOM     25  C   UNL     1       3.078   3.093  17.349  0.00  0.00    +0.000 C 
BRANCH  25  26
ATOM     26  S   UNL     1       3.457   2.323  18.930  0.00  0.00    +0.000 S 
ATOM     27  O   UNL     1       2.251   2.082  19.688  0.00  0.00    +0.000 OA
ATOM     28  O   UNL     1       4.639   2.927  19.510  0.00  0.00    +0.000 OA
BRANCH  26  29
ATOM     29  N   UNL     1       3.975   0.796  18.432  0.00  0.00    +0.000 NA
ATOM     30  H   UNL     1       3.154   0.220  18.221  0.00  0.00    +0.000 HD
ATOM     31  H   UNL     1       4.579   0.379  19.141  0.00  0.00    +0.000 HD
ENDBRANCH  26  29
ENDBRANCH  25  26
ENDBRANCH  19  25
ENDBRANCH   1  23
TORSDOF 5
ENDMDL
MODEL 9
REMARK VINA RESULT:      -8.1      3.199      4.522
REMARK  Name = 
REMARK  5 active torsions:
REMARK  status: ('A' for Active; 'I' for Inactive)
REMARK    1  A    between atoms: N_1  and  S_2
REMARK    2  A    between atoms: S_2  and  C_5
REMARK    3  A    between atoms: C_5  and  C_6
REMARK    4  A    between atoms: C_10  and  C_11
REMARK    5  A    between atoms: C_16  and  C_17
REMARK                            x       y       z     vdW  Elec       q    Type
REMARK                         _______ _______ _______ _____ _____    ______ ____
ROOT
ATOM      1  C   UNL     1       1.276   8.645  20.164  0.00  0.00    +0.000 C 
ATOM      2  O   UNL     1       1.414   9.010  19.001  0.00  0.00    +0.000 OA
ATOM      3  N   UNL     1       1.710   7.447  20.692  0.00  0.00    +0.000 N 
ATOM      4  C   UNL     1       2.378   6.525  19.920  0.00  0.00    +0.000 A 
ATOM      5  C   UNL     1       3.424   6.746  18.999  0.00  0.00    +0.000 A 
ATOM      6  C   UNL     1       3.741   5.499  18.481  0.00  0.00    +0.000 A 
ATOM      7  N   UNL     1       2.829   4.658  19.069  0.00  0.00    +0.000 N 
ATOM      8  N   UNL     1       2.094   5.230  20.039  0.00  0.00    +0.000 NA
ATOM      9  H   UNL     1       1.188   7.041  21.455  0.00  0.00    +0.000 HD
ATOM     10  H   UNL     1       2.696   3.667  18.891  0.00  0.00    +0.000 HD
ENDROOT
BRANCH   6  11
ATOM     11  C   UNL     1       4.785   5.066  17.560  0.00  0.00    +0.000 A 
ATOM     12  C   UNL     1       6.093   4.867  18.033  0.00  0.00    +0.000 A 
ATOM     13  C   UNL     1       7.095   4.423  17.173  0.00  0.00    +0.000 A 
ATOM     14  F   UNL     1       8.332   4.229  17.647  0.00  0.00    +0.000 F 
ATOM     15  C   UNL     1       6.830   4.171  15.836  0.00  0.00    +0.000 A 
ATOM     16  C   UNL     1       5.540   4.371  15.368  0.00  0.00    +0.000 A 
ATOM     17  F   UNL     1       5.267   4.135  14.077  0.00  0.00    +0.000 F 
ATOM     18  C   UNL     1       4.520   4.810  16.210  0.00  0.00    +0.000 A 
ENDBRANCH   6  11
BRANCH   1  23
ATOM     19  C   UNL     1      -0.356  11.698  21.705  0.00  0.00    +0.000 A 
ATOM     20  C   UNL     1      -0.882  11.146  22.883  0.00  0.00    +0.000 A 
ATOM     21  C   UNL     1      -0.733   9.785  23.161  0.00  0.00    +0.000 A 
ATOM     22  C   UNL     1      -0.056   8.955  22.267  0.00  0.00    +0.000 A 
ATOM     23  C   UNL     1       0.492   9.496  21.098  0.00  0.00    +0.000 A 
ATOM     24  C   UNL     1       0.348  10.863  20.825  0.00  0.00    +0.000 A 
BRANCH  19  25
ATOM     25  C   UNL     1      -0.549  13.162  21.395  0.00  0.00    +0.000 C 
BRANCH  25  26
ATOM     26  S   UNL     1      -2.281  13.483  21.033  0.00  0.00    +0.000 S 
ATOM     27  O   UNL     1      -2.994  13.865  22.230  0.00  0.00    +0.000 OA
ATOM     28  O   UNL     1      -2.789  12.498  20.100  0.00  0.00    +0.000 OA
BRANCH  26  29
ATOM     29  N   UNL     1      -2.166  14.897  20.120  0.00  0.00    +0.000 NA
ATOM     30  H   UNL     1      -2.599  15.665  20.642  0.00  0.00    +0.000 HD
ATOM     31  H   UNL     1      -2.585  14.759  19.199  0.00  0.00    +0.000 HD
ENDBRANCH  26  29
ENDBRANCH  25  26
ENDBRANCH  19  25
ENDBRANCH   1  23
TORSDOF 5
ENDMDL
