MODEL 1
REMARK VINA RESULT:      -8.8      0.000      0.000
REMARK  Name = 
REMARK  3 active torsions:
REMARK  status: ('A' for Active; 'I' for Inactive)
REMARK    1  A    between atoms: C_2  and  C_16
REMARK    2  A    between atoms: N_3  and  C_4
REMARK    3  A    between atoms: C_9  and  N_10
REMARK                            x       y       z     vdW  Elec       q    Type
REMARK                         _______ _______ _______ _____ _____    ______ ____
ROOT
ATOM      1  O   UNL     1       4.226   2.394  17.486  0.00  0.00    +0.000 OA
ATOM      2  C   UNL     1       4.022   3.596  17.558  0.00  0.00    +0.000 C 
ATOM      3  N   UNL     1       4.528   4.558  16.707  0.00  0.00    +0.000 N 
ATOM      4  H   UNL     1       4.423   5.514  17.048  0.00  0.00    +0.000 HD
ENDROOT
BRANCH   2   5
ATOM      5  C   UNL     1       3.227   4.248  18.670  0.00  0.00    +0.000 A 
ATOM      6  N   UNL     1       2.667   3.311  19.503  0.00  0.00    +0.000 NA
ATOM      7  C   UNL     1       2.068   3.754  20.616  0.00  0.00    +0.000 A 
ATOM      8  C   UNL     1       1.939   5.091  20.917  0.00  0.00    +0.000 A 
ATOM      9  C   UNL     1       2.267   6.025  19.936  0.00  0.00    +0.000 A 
ATOM     10  C   UNL     1       1.796   7.335  20.065  0.00  0.00    +0.000 A 
ATOM     11  C   UNL     1       2.024   8.276  19.067  0.00  0.00    +0.000 A 
ATOM     12  C   UNL     1       2.848   7.949  17.976  0.00  0.00    +0.000 A 
ATOM     13  C   UNL     1       3.339   6.651  17.857  0.00  0.00    +0.000 A 
ATOM     14  C   UNL     1       2.993   5.634  18.788  0.00  0.00    +0.000 A 
ENDBRANCH   2   5
BRANCH   3  15
ATOM     15  C   UNL     1       5.437   4.388  15.657  0.00  0.00    +0.000 A 
ATOM     16  C   UNL     1       5.031   3.832  14.443  0.00  0.00    +0.000 A 
ATOM     17  C   UNL     1       5.871   3.933  13.333  0.00  0.00    +0.000 A 
ATOM     18  C   UNL     1       7.110   4.569  13.441  0.00  0.00    +0.000 A 
ATOM     19  C   UNL     1       7.525   5.101  14.663  0.00  0.00    +0.000 A 
ATOM     20  C   UNL     1       6.700   5.001  15.785  0.00  0.00    +0.000 A 
BRANCH  20  21
ATOM     21  N   UNL     1       7.129   5.466  17.059  0.00  0.00    +0.000 N 
ATOM     22  C   UNL     1       7.840   4.594  17.968  0.00  0.00    +0.000 C 
ATOM     23  C   UNL     1       7.866   5.396  19.255  0.00  0.00    +0.000 C 
ATOM     24  C   UNL     1       7.992   6.828  18.760  0.00  0.00    +0.000 C 
ATOM     25  C   UNL     1       7.337   6.808  17.396  0.00  0.00    +0.000 C 
ATOM     26  O   UNL     1       7.069   7.803  16.756  0.00  0.00    +0.000 OA
ENDBRANCH  20  21
ENDBRANCH   3  15
TORSDOF 3
ENDMDL
MODEL 2
REMARK VINA RESULT:      -8.7      1.458      2.558
REMARK  Name = 
REMARK  3 active torsions:
REMARK  status: ('A' for Active; 'I' for Inactive)
REMARK    1  A    between atoms: C_2  and  C_16
REMARK    2  A    between atoms: N_3  and  C_4
REMARK    3  A    between atoms: C_9  and  N_10
REMARK                            x       y       z     vdW  Elec       q    Type
REMARK                         _______ _______ _______ _____ _____    ______ ____
ROOT
ATOM      1  O   UNL     1       4.030   6.982  16.844  0.00  0.00    +0.000 OA
ATOM      2  C   UNL     1       3.933   5.897  17.396  0.00  0.00    +0.000 C 
ATOM      3  N   UNL     1       4.605   4.745  17.045  0.00  0.00    +0.000 N 
ATOM      4  H   UNL     1       4.239   3.899  17.483  0.00  0.00    +0.000 HD
ENDROOT
BRANCH   2   5
ATOM      5  C   UNL     1       2.974   5.618  18.534  0.00  0.00    +0.000 A 
ATOM      6  N   UNL     1       2.954   6.649  19.441  0.00  0.00    +0.000 NA
ATOM      7  C   UNL     1       2.034   6.598  20.413  0.00  0.00    +0.000 A 
ATOM      8  C   UNL     1       1.166   5.542  20.571  0.00  0.00    +0.000 A 
ATOM      9  C   UNL     1       1.381   4.391  19.816  0.00  0.00    +0.000 A 
ATOM     10  C   UNL     1       0.776   3.196  20.218  0.00  0.00    +0.000 A 
ATOM     11  C   UNL     1       1.034   2.006  19.546  0.00  0.00    +0.000 A 
ATOM     12  C   UNL     1       1.805   2.021  18.371  0.00  0.00    +0.000 A 
ATOM     13  C   UNL     1       2.389   3.216  17.954  0.00  0.00    +0.000 A 
ATOM     14  C   UNL     1       2.262   4.412  18.710  0.00  0.00    +0.000 A 
ENDBRANCH   2   5
BRANCH   3  15
ATOM     15  C   UNL     1       5.454   4.540  15.952  0.00  0.00    +0.000 A 
ATOM     16  C   UNL     1       4.976   3.962  14.774  0.00  0.00    +0.000 A 
ATOM     17  C   UNL     1       5.756   4.027  13.619  0.00  0.00    +0.000 A 
ATOM     18  C   UNL     1       7.007   4.650  13.645  0.00  0.00    +0.000 A 
ATOM     19  C   UNL     1       7.493   5.204  14.831  0.00  0.00    +0.000 A 
ATOM     20  C   UNL     1       6.729   5.139  15.998  0.00  0.00    +0.000 A 
BRANCH  20  21
ATOM     21  N   UNL     1       7.232   5.628  17.235  0.00  0.00    +0.000 N 
ATOM     22  C   UNL     1       7.909   4.747  18.162  0.00  0.00    +0.000 C 
ATOM     23  C   UNL     1       8.033   5.600  19.410  0.00  0.00    +0.000 C 
ATOM     24  C   UNL     1       8.244   6.996  18.846  0.00  0.00    +0.000 C 
ATOM     25  C   UNL     1       7.545   6.964  17.504  0.00  0.00    +0.000 C 
ATOM     26  O   UNL     1       7.326   7.948  16.828  0.00  0.00    +0.000 OA
ENDBRANCH  20  21
ENDBRANCH   3  15
TORSDOF 3
ENDMDL
MODEL 3
REMARK VINA RESULT:      -8.5      2.687      4.977
REMARK  Name = 
REMARK  3 active torsions:
REMARK  status: ('A' for Active; 'I' for Inactive)
REMARK    1  A    between atoms: C_2  and  C_16
REMARK    2  A    between atoms: N_3  and  C_4
REMARK    3  A    between atoms: C_9  and  N_10
REMARK                            x       y       z     vdW  Elec       q    Type
REMARK                         _______ _______ _______ _____ _____    ______ ____
ROOT
ATOM      1  O   UNL     1       2.219   8.632  17.091  0.00  0.00    +0.000 OA
ATOM      2  C   UNL     1       2.353   8.132  18.197  0.00  0.00    +0.000 C 
ATOM      3  N   UNL     1       3.127   7.032  18.503  0.00  0.00    +0.000 N 
ATOM      4  H   UNL     1       2.948   6.639  19.427  0.00  0.00    +0.000 HD
ENDROOT
BRANCH   2   5
ATOM      5  C   UNL     1       1.607   8.605  19.428  0.00  0.00    +0.000 A 
ATOM      6  N   UNL     1       1.787   7.747  20.486  0.00  0.00    +0.000 NA
ATOM      7  C   UNL     1       1.310   8.130  21.677  0.00  0.00    +0.000 A 
ATOM      8  C   UNL     1       0.604   9.296  21.865  0.00  0.00    +0.000 A 
ATOM      9  C   UNL     1       0.198  10.011  20.739  0.00  0.00    +0.000 A 
ATOM     10  C   UNL     1      -0.820  10.960  20.873  0.00  0.00    +0.000 A 
ATOM     11  C   UNL     1      -1.317  11.633  19.761  0.00  0.00    +0.000 A 
ATOM     12  C   UNL     1      -0.704  11.457  18.508  0.00  0.00    +0.000 A 
ATOM     13  C   UNL     1       0.327  10.530  18.378  0.00  0.00    +0.000 A 
ATOM     14  C   UNL     1       0.748   9.723  19.469  0.00  0.00    +0.000 A 
ENDBRANCH   2   5
BRANCH   3  15
ATOM     15  C   UNL     1       3.839   6.207  17.624  0.00  0.00    +0.000 A 
ATOM     16  C   UNL     1       4.698   6.753  16.669  0.00  0.00    +0.000 A 
ATOM     17  C   UNL     1       5.597   5.917  16.006  0.00  0.00    +0.000 A 
ATOM     18  C   UNL     1       5.625   4.548  16.283  0.00  0.00    +0.000 A 
ATOM     19  C   UNL     1       4.747   4.001  17.220  0.00  0.00    +0.000 A 
ATOM     20  C   UNL     1       3.835   4.823  17.886  0.00  0.00    +0.000 A 
BRANCH  20  21
ATOM     21  N   UNL     1       2.879   4.280  18.788  0.00  0.00    +0.000 N 
ATOM     22  C   UNL     1       3.058   4.393  20.219  0.00  0.00    +0.000 C 
ATOM     23  C   UNL     1       1.979   3.480  20.769  0.00  0.00    +0.000 C 
ATOM     24  C   UNL     1       0.845   3.657  19.773  0.00  0.00    +0.000 C 
ATOM     25  C   UNL     1       1.541   4.014  18.477  0.00  0.00    +0.000 C 
ATOM     26  O   UNL     1       0.990   4.050  17.397  0.00  0.00    +0.000 OA
ENDBRANCH  20  21
ENDBRANCH   3  15
TORSDOF 3
ENDMDL
MODEL 4
REMARK VINA RESULT:      -8.3      0.925      1.221
REMARK  Name = 
REMARK  3 active torsions:
REMARK  status: ('A' for Active; 'I' for Inactive)
REMARK    1  A    between atoms: C_2  and  C_16
REMARK    2  A    between atoms: N_3  and  C_4
REMARK    3  A    between atoms: C_9  and  N_10
REMARK                            x       y       z     vdW  Elec       q    Type
REMARK                         _______ _______ _______ _____ _____    ______ ____
ROOT
ATOM      1  O   UNL     1       4.457   2.402  17.302  0.00  0.00    +0.000 OA
ATOM      2  C   UNL     1       4.259   3.605  17.382  0.00  0.00    +0.000 C 
ATOM      3  N   UNL     1       4.732   4.565  16.511  0.00  0.00    +0.000 N 
ATOM      4  H   UNL     1       4.643   5.521  16.856  0.00  0.00    +0.000 HD
ENDROOT
BRANCH   2   5
ATOM      5  C   UNL     1       3.511   4.258  18.525  0.00  0.00    +0.000 A 
ATOM      6  N   UNL     1       3.055   3.327  19.426  0.00  0.00    +0.000 NA
ATOM      7  C   UNL     1       2.512   3.782  20.562  0.00  0.00    +0.000 A 
ATOM      8  C   UNL     1       2.340   5.121  20.829  0.00  0.00    +0.000 A 
ATOM      9  C   UNL     1       2.556   6.033  19.798  0.00  0.00    +0.000 A 
ATOM     10  C   UNL     1       2.032   7.325  19.917  0.00  0.00    +0.000 A 
ATOM     11  C   UNL     1       2.146   8.239  18.875  0.00  0.00    +0.000 A 
ATOM     12  C   UNL     1       2.909   7.911  17.740  0.00  0.00    +0.000 A 
ATOM     13  C   UNL     1       3.452   6.633  17.630  0.00  0.00    +0.000 A 
ATOM     14  C   UNL     1       3.220   5.636  18.615  0.00  0.00    +0.000 A 
ENDBRANCH   2   5
BRANCH   3  15
ATOM     15  C   UNL     1       5.597   4.393  15.425  0.00  0.00    +0.000 A 
ATOM     16  C   UNL     1       5.199   3.663  14.303  0.00  0.00    +0.000 A 
ATOM     17  C   UNL     1       5.959   3.744  13.135  0.00  0.00    +0.000 A 
ATOM     18  C   UNL     1       7.111   4.532  13.095  0.00  0.00    +0.000 A 
ATOM     19  C   UNL     1       7.521   5.240  14.227  0.00  0.00    +0.000 A 
ATOM     20  C   UNL     1       6.777   5.163  15.406  0.00  0.00    +0.000 A 
BRANCH  20  21
ATOM     21  N   UNL     1       7.212   5.812  16.594  0.00  0.00    +0.000 N 
ATOM     22  C   UNL     1       6.838   7.181  16.874  0.00  0.00    +0.000 C 
ATOM     23  C   UNL     1       7.708   7.533  18.066  0.00  0.00    +0.000 C 
ATOM     24  C   UNL     1       7.782   6.221  18.831  0.00  0.00    +0.000 C 
ATOM     25  C   UNL     1       7.615   5.160  17.765  0.00  0.00    +0.000 C 
ATOM     26  O   UNL     1       7.805   3.975  17.949  0.00  0.00    +0.000 OA
ENDBRANCH  20  21
ENDBRANCH   3  15
TORSDOF 3
ENDMDL
MODEL 5
REMARK VINA RESULT:      -8.3      1.542      2.779
REMARK  Name = 
REMARK  3 active torsions:
REMARK  status: ('A' for Active; 'I' for Inactive)
REMARK    1  A    between atoms: C_2  and  C_16
REMARK    2  A    between atoms: N_3  and  C_4
REMARK    3  A    between atoms: C_9  and  N_10
REMARK                            x       y       z     vdW  Elec       q    Type
REMARK                         _______ _______ _______ _____ _____    ______ ____
ROOT
ATOM      1  O   UNL     1       4.033   7.008  16.512  0.00  0.00    +0.000 OA
ATOM      2  C   UNL     1       4.050   5.973  17.160  0.00  0.00    +0.000 C 
ATOM      3  N   UNL     1       4.803   4.852  16.879  0.00  0.00    +0.000 N 
ATOM      4  H   UNL     1       4.528   4.022  17.405  0.00  0.00    +0.000 HD
ENDROOT
BRANCH   2   5
ATOM      5  C   UNL     1       3.163   5.720  18.362  0.00  0.00    +0.000 A 
ATOM      6  N   UNL     1       3.228   6.756  19.262  0.00  0.00    +0.000 NA
ATOM      7  C   UNL     1       2.375   6.730  20.293  0.00  0.00    +0.000 A 
ATOM      8  C   UNL     1       1.496   5.695  20.516  0.00  0.00    +0.000 A 
ATOM      9  C   UNL     1       1.634   4.536  19.755  0.00  0.00    +0.000 A 
ATOM     10  C   UNL     1       1.031   3.356  20.203  0.00  0.00    +0.000 A 
ATOM     11  C   UNL     1       1.216   2.158  19.523  0.00  0.00    +0.000 A 
ATOM     12  C   UNL     1       1.907   2.151  18.298  0.00  0.00    +0.000 A 
ATOM     13  C   UNL     1       2.488   3.330  17.836  0.00  0.00    +0.000 A 
ATOM     14  C   UNL     1       2.439   4.532  18.593  0.00  0.00    +0.000 A 
ENDBRANCH   2   5
BRANCH   3  15
ATOM     15  C   UNL     1       5.622   4.619  15.769  0.00  0.00    +0.000 A 
ATOM     16  C   UNL     1       5.147   3.907  14.666  0.00  0.00    +0.000 A 
ATOM     17  C   UNL     1       5.874   3.932  13.475  0.00  0.00    +0.000 A 
ATOM     18  C   UNL     1       7.071   4.647  13.394  0.00  0.00    +0.000 A 
ATOM     19  C   UNL     1       7.558   5.336  14.506  0.00  0.00    +0.000 A 
ATOM     20  C   UNL     1       6.846   5.314  15.708  0.00  0.00    +0.000 A 
BRANCH  20  21
ATOM     21  N   UNL     1       7.357   5.944  16.876  0.00  0.00    +0.000 N 
ATOM     22  C   UNL     1       7.251   7.375  17.057  0.00  0.00    +0.000 C 
ATOM     23  C   UNL     1       8.129   7.629  18.268  0.00  0.00    +0.000 C 
ATOM     24  C   UNL     1       7.912   6.383  19.111  0.00  0.00    +0.000 C 
ATOM     25  C   UNL     1       7.578   5.306  18.101  0.00  0.00    +0.000 C 
ATOM     26  O   UNL     1       7.523   4.122  18.364  0.00  0.00    +0.000 OA
ENDBRANCH  20  21
ENDBRANCH   3  15
TORSDOF 3
ENDMDL
MODEL 6
REMARK VINA RESULT:      -8.3      2.517      4.834
REMARK  Name = 
REMARK  3 active torsions:
REMARK  status: ('A' for Active; 'I' for Inactive)
REMARK    1  A    between atoms: C_2  and  C_16
REMARK    2  A    between atoms: N_3  and  C_4
REMARK    3  A    between atoms: C_9  and  N_10
REMARK                            x       y       z     vdW  Elec       q    Type
REMARK                         _______ _______ _______ _____ _____    ______ ____
ROOT
ATOM      1  O   UNL     1       2.489   8.627  17.102  0.00  0.00    +0.000 OA
ATOM      2  C   UNL     1       2.518   8.001  18.151  0.00  0.00    +0.000 C 
ATOM      3  N   UNL     1       3.177   6.808  18.365  0.00  0.00    +0.000 N 
ATOM      4  H   UNL     1       2.914   6.336  19.231  0.00  0.00    +0.000 HD
ENDROOT
BRANCH   2   5
ATOM      5  C   UNL     1       1.750   8.406  19.391  0.00  0.00    +0.000 A 
ATOM      6  N   UNL     1       1.831   7.444  20.369  0.00  0.00    +0.000 NA
ATOM      7  C   UNL     1       1.327   7.745  21.573  0.00  0.00    +0.000 A 
ATOM      8  C   UNL     1       0.687   8.932  21.844  0.00  0.00    +0.000 A 
ATOM      9  C   UNL     1       0.375   9.774  20.777  0.00  0.00    +0.000 A 
ATOM     10  C   UNL     1      -0.588  10.771  20.962  0.00  0.00    +0.000 A 
ATOM     11  C   UNL     1      -0.993  11.575  19.902  0.00  0.00    +0.000 A 
ATOM     12  C   UNL     1      -0.338  11.476  18.662  0.00  0.00    +0.000 A 
ATOM     13  C   UNL     1       0.638  10.500  18.482  0.00  0.00    +0.000 A 
ATOM     14  C   UNL     1       0.961   9.569  19.507  0.00  0.00    +0.000 A 
ENDBRANCH   2   5
BRANCH   3  15
ATOM     15  C   UNL     1       3.862   6.021  17.433  0.00  0.00    +0.000 A 
ATOM     16  C   UNL     1       4.716   6.603  16.496  0.00  0.00    +0.000 A 
ATOM     17  C   UNL     1       5.591   5.789  15.775  0.00  0.00    +0.000 A 
ATOM     18  C   UNL     1       5.599   4.407  15.977  0.00  0.00    +0.000 A 
ATOM     19  C   UNL     1       4.724   3.824  16.897  0.00  0.00    +0.000 A 
ATOM     20  C   UNL     1       3.837   4.624  17.620  0.00  0.00    +0.000 A 
BRANCH  20  21
ATOM     21  N   UNL     1       2.884   4.050  18.506  0.00  0.00    +0.000 N 
ATOM     22  C   UNL     1       1.504   3.880  18.105  0.00  0.00    +0.000 C 
ATOM     23  C   UNL     1       0.820   3.492  19.403  0.00  0.00    +0.000 C 
ATOM     24  C   UNL     1       1.882   2.667  20.112  0.00  0.00    +0.000 C 
ATOM     25  C   UNL     1       3.191   3.217  19.587  0.00  0.00    +0.000 C 
ATOM     26  O   UNL     1       4.278   2.946  20.054  0.00  0.00    +0.000 OA
ENDBRANCH  20  21
ENDBRANCH   3  15
TORSDOF 3
ENDMDL
MODEL 7
REMARK VINA RESULT:      -8.3      1.345      2.645
REMARK  Name = 
REMARK  3 active torsions:
REMARK  status: ('A' for Active; 'I' for Inactive)
REMARK    1  A    between atoms: C_2  and  C_16
REMARK    2  A    between atoms: N_3  and  C_4
REMARK    3  A    between atoms: C_9  and  N_10
REMARK                            x       y       z     vdW  Elec       q    Type
REMARK                         _______ _______ _______ _____ _____    ______ ____
ROOT
ATOM      1  O   UNL     1       4.542   2.672  17.113  0.00  0.00    +0.000 OA
ATOM      2  C   UNL     1       4.289   3.866  17.077  0.00  0.00    +0.000 C 
ATOM      3  N   UNL     1       4.768   4.770  16.151  0.00  0.00    +0.000 N 
ATOM      4  H   UNL     1       4.619   5.747  16.406  0.00  0.00    +0.000 HD
ENDROOT
BRANCH   2   5
ATOM      5  C   UNL     1       3.453   4.578  18.119  0.00  0.00    +0.000 A 
ATOM      6  N   UNL     1       3.698   5.930  18.124  0.00  0.00    +0.000 NA
ATOM      7  C   UNL     1       2.912   6.697  18.890  0.00  0.00    +0.000 A 
ATOM      8  C   UNL     1       1.928   6.185  19.705  0.00  0.00    +0.000 A 
ATOM      9  C   UNL     1       1.877   4.805  19.893  0.00  0.00    +0.000 A 
ATOM     10  C   UNL     1       1.162   4.297  20.983  0.00  0.00    +0.000 A 
ATOM     11  C   UNL     1       1.157   2.934  21.259  0.00  0.00    +0.000 A 
ATOM     12  C   UNL     1       1.767   2.039  20.363  0.00  0.00    +0.000 A 
ATOM     13  C   UNL     1       2.459   2.541  19.263  0.00  0.00    +0.000 A 
ATOM     14  C   UNL     1       2.603   3.938  19.046  0.00  0.00    +0.000 A 
ENDBRANCH   2   5
BRANCH   3  15
ATOM     15  C   UNL     1       5.697   4.548  15.129  0.00  0.00    +0.000 A 
ATOM     16  C   UNL     1       5.338   3.846  13.976  0.00  0.00    +0.000 A 
ATOM     17  C   UNL     1       6.185   3.883  12.867  0.00  0.00    +0.000 A 
ATOM     18  C   UNL     1       7.383   4.598  12.916  0.00  0.00    +0.000 A 
ATOM     19  C   UNL     1       7.752   5.277  14.080  0.00  0.00    +0.000 A 
ATOM     20  C   UNL     1       6.921   5.243  15.201  0.00  0.00    +0.000 A 
BRANCH  20  21
ATOM     21  N   UNL     1       7.308   5.861  16.422  0.00  0.00    +0.000 N 
ATOM     22  C   UNL     1       6.913   7.219  16.727  0.00  0.00    +0.000 C 
ATOM     23  C   UNL     1       7.736   7.543  17.959  0.00  0.00    +0.000 C 
ATOM     24  C   UNL     1       7.792   6.211  18.689  0.00  0.00    +0.000 C 
ATOM     25  C   UNL     1       7.672   5.179  17.588  0.00  0.00    +0.000 C 
ATOM     26  O   UNL     1       7.865   3.991  17.745  0.00  0.00    +0.000 OA
ENDBRANCH  20  21
ENDBRANCH   3  15
TORSDOF 3
ENDMDL
MODEL 8
REMARK VINA RESULT:      -8.0      1.294      1.794
REMARK  Name = 
REMARK  3 active torsions:
REMARK  status: ('A' for Active; 'I' for Inactive)
REMARK    1  A    between atoms: C_2  and  C_16
REMARK    2  A    between atoms: N_3  and  C_4
REMARK    3  A    between atoms: C_9  and  N_10
REMARK                            x       y       z     vdW  Elec       q    Type
REMARK                         _______ _______ _______ _____ _____    ______ ____
ROOT
ATOM      1  O   UNL     1       4.150   6.080  16.525  0.00  0.00    +0.000 OA
ATOM      2  C   UNL     1       4.162   4.887  16.786  0.00  0.00    +0.000 C 
ATOM      3  N   UNL     1       5.013   3.946  16.242  0.00  0.00    +0.000 N 
ATOM      4  H   UNL     1       4.736   2.981  16.421  0.00  0.00    +0.000 HD
ENDROOT
BRANCH   2   5
ATOM      5  C   UNL     1       3.168   4.220  17.713  0.00  0.00    +0.000 A 
ATOM      6  N   UNL     1       2.767   3.000  17.227  0.00  0.00    +0.000 NA
ATOM      7  C   UNL     1       2.010   2.237  18.025  0.00  0.00    +0.000 A 
ATOM      8  C   UNL     1       1.573   2.647  19.264  0.00  0.00    +0.000 A 
ATOM      9  C   UNL     1       1.759   3.982  19.621  0.00  0.00    +0.000 A 
ATOM     10  C   UNL     1       1.007   4.510  20.675  0.00  0.00    +0.000 A 
ATOM     11  C   UNL     1       1.096   5.858  21.008  0.00  0.00    +0.000 A 
ATOM     12  C   UNL     1       2.046   6.673  20.368  0.00  0.00    +0.000 A 
ATOM     13  C   UNL     1       2.814   6.142  19.334  0.00  0.00    +0.000 A 
ATOM     14  C   UNL     1       2.632   4.809  18.878  0.00  0.00    +0.000 A 
ENDBRANCH   2   5
BRANCH   3  15
ATOM     15  C   UNL     1       5.962   4.124  15.230  0.00  0.00    +0.000 A 
ATOM     16  C   UNL     1       5.727   3.649  13.938  0.00  0.00    +0.000 A 
ATOM     17  C   UNL     1       6.547   4.080  12.895  0.00  0.00    +0.000 A 
ATOM     18  C   UNL     1       7.601   4.963  13.143  0.00  0.00    +0.000 A 
ATOM     19  C   UNL     1       7.850   5.416  14.441  0.00  0.00    +0.000 A 
ATOM     20  C   UNL     1       7.043   4.987  15.497  0.00  0.00    +0.000 A 
BRANCH  20  21
ATOM     21  N   UNL     1       7.321   5.373  16.838  0.00  0.00    +0.000 N 
ATOM     22  C   UNL     1       7.991   4.469  17.747  0.00  0.00    +0.000 C 
ATOM     23  C   UNL     1       7.846   5.168  19.086  0.00  0.00    +0.000 C 
ATOM     24  C   UNL     1       7.935   6.638  18.712  0.00  0.00    +0.000 C 
ATOM     25  C   UNL     1       7.416   6.692  17.292  0.00  0.00    +0.000 C 
ATOM     26  O   UNL     1       7.152   7.720  16.703  0.00  0.00    +0.000 OA
ENDBRANCH  20  21
ENDBRANCH   3  15
TORSDOF 3
ENDMDL
MODEL 9
REMARK VINA RESULT:      -8.0      2.429      4.908
REMARK  Name = 
REMARK  3 active torsions:
REMARK  status: ('A' for Active; 'I' for Inactive)
REMARK    1  A    between atoms: C_2  and  C_16
REMARK    2  A    between atoms: N_3  and  C_4
REMARK    3  A    between atoms: C_9  and  N_10
REMARK                            x       y       z     vdW  Elec       q    Type
REMARK                         _______ _______ _______ _____ _____    ______ ____
ROOT
ATOM      1  O   UNL     1       1.747   5.975  17.858  0.00  0.00    +0.000 OA
ATOM      2  C   UNL     1       2.215   6.678  18.741  0.00  0.00    +0.000 C 
ATOM      3  N   UNL     1       2.997   6.247  19.793  0.00  0.00    +0.000 N 
ATOM      4  H   UNL     1       3.114   6.937  20.535  0.00  0.00    +0.000 HD
ENDROOT
BRANCH   2   5
ATOM      5  C   UNL     1       1.940   8.161  18.867  0.00  0.00    +0.000 A 
ATOM      6  N   UNL     1       2.557   8.875  17.869  0.00  0.00    +0.000 NA
ATOM      7  C   UNL     1       2.267  10.179  17.774  0.00  0.00    +0.000 A 
ATOM      8  C   UNL     1       1.441  10.832  18.659  0.00  0.00    +0.000 A 
ATOM      9  C   UNL     1       1.046  10.158  19.814  0.00  0.00    +0.000 A 
ATOM     10  C   UNL     1       0.541  10.898  20.889  0.00  0.00    +0.000 A 
ATOM     11  C   UNL     1       0.218  10.277  22.091  0.00  0.00    +0.000 A 
ATOM     12  C   UNL     1       0.273   8.876  22.189  0.00  0.00    +0.000 A 
ATOM     13  C   UNL     1       0.752   8.135  21.111  0.00  0.00    +0.000 A 
ATOM     14  C   UNL     1       1.229   8.761  19.928  0.00  0.00    +0.000 A 
ENDBRANCH   2   5
BRANCH   3  15
ATOM     15  C   UNL     1       3.341   4.933  20.130  0.00  0.00    +0.000 A 
ATOM     16  C   UNL     1       2.524   4.173  20.970  0.00  0.00    +0.000 A 
ATOM     17  C   UNL     1       2.737   2.797  21.062  0.00  0.00    +0.000 A 
ATOM     18  C   UNL     1       3.765   2.191  20.335  0.00  0.00    +0.000 A 
ATOM     19  C   UNL     1       4.597   2.958  19.517  0.00  0.00    +0.000 A 
ATOM     20  C   UNL     1       4.402   4.337  19.421  0.00  0.00    +0.000 A 
BRANCH  20  21
ATOM     21  N   UNL     1       5.282   5.152  18.656  0.00  0.00    +0.000 N 
ATOM     22  C   UNL     1       6.561   5.569  19.187  0.00  0.00    +0.000 C 
ATOM     23  C   UNL     1       7.028   6.600  18.177  0.00  0.00    +0.000 C 
ATOM     24  C   UNL     1       6.495   6.052  16.863  0.00  0.00    +0.000 C 
ATOM     25  C   UNL     1       5.266   5.263  17.261  0.00  0.00    +0.000 C 
ATOM     26  O   UNL     1       4.453   4.827  16.473  0.00  0.00    +0.000 OA
ENDBRANCH  20  21
ENDBRANCH   3  15
TORSDOF 3
ENDMDL
