MODEL 1
REMARK VINA RESULT:      -9.0      0.000      0.000
REMARK  Name = 
REMARK  4 active torsions:
REMARK  status: ('A' for Active; 'I' for Inactive)
REMARK    1  A    between atoms: C_1  and  C_2
REMARK    2  A    between atoms: C_6  and  C_7
REMARK    3  A    between atoms: C_7  and  C_8
REMARK    4  A    between atoms: C_13  and  C_15
REMARK                            x       y       z     vdW  Elec       q    Type
REMARK                         _______ _______ _______ _____ _____    ______ ____
ROOT
ATOM      1  C   UNL     1       0.903  10.329  18.812  0.00  0.00    +0.000 A 
ATOM      2  C   UNL     1       1.850  10.142  17.825  0.00  0.00    +0.000 A 
ATOM      3  N   UNL     1       2.583   8.984  17.911  0.00  0.00    +0.000 NA
ATOM      4  C   UNL     1       2.193   8.291  18.949  0.00  0.00    +0.000 A 
ATOM      5  N   UNL     1       2.630   7.050  19.324  0.00  0.00    +0.000 N 
ATOM      6  C   UNL     1       3.255   6.248  18.394  0.00  0.00    +0.000 C 
ATOM      7  O   UNL     1       3.394   6.461  17.198  0.00  0.00    +0.000 OA
ATOM      8  S   UNL     1       1.011   9.025  19.939  0.00  0.00    +0.000 S 
ATOM      9  H   UNL     1       2.334   6.652  20.204  0.00  0.00    +0.000 HD
ENDROOT
BRANCH   6  10
ATOM     10  C   UNL     1       3.733   4.908  18.941  0.00  0.00    +0.000 A 
ATOM     11  N   UNL     1       4.954   4.563  18.638  0.00  0.00    +0.000 NA
ATOM     12  N   UNL     1       5.442   3.410  19.180  0.00  0.00    +0.000 N 
ATOM     13  C   UNL     1       4.782   2.583  20.059  0.00  0.00    +0.000 A 
ATOM     14  O   UNL     1       5.315   1.594  20.552  0.00  0.00    +0.000 OA
ATOM     15  C   UNL     1       3.391   2.942  20.372  0.00  0.00    +0.000 A 
ATOM     16  C   UNL     1       2.632   2.133  21.231  0.00  0.00    +0.000 A 
ATOM     17  C   UNL     1       1.314   2.477  21.528  0.00  0.00    +0.000 A 
ATOM     18  C   UNL     1       0.752   3.616  20.955  0.00  0.00    +0.000 A 
ATOM     19  C   UNL     1       1.508   4.413  20.089  0.00  0.00    +0.000 A 
ATOM     20  C   UNL     1       2.842   4.092  19.806  0.00  0.00    +0.000 A 
ATOM     21  H   UNL     1       6.414   3.184  18.985  0.00  0.00    +0.000 HD
ENDBRANCH   6  10
BRANCH   1  22
ATOM     22  C   UNL     1      -0.064  11.463  18.970  0.00  0.00    +0.000 C 
BRANCH  22  28
ATOM     23  C   UNL     1      -5.154  12.150  18.835  0.00  0.00    +0.000 C 
ATOM     24  C   UNL     1      -3.889  11.478  18.369  0.00  0.00    +0.000 A 
ATOM     25  C   UNL     1      -3.976  10.486  17.381  0.00  0.00    +0.000 A 
ATOM     26  C   UNL     1      -2.832   9.835  16.928  0.00  0.00    +0.000 A 
ATOM     27  C   UNL     1      -1.584  10.166  17.453  0.00  0.00    +0.000 A 
ATOM     28  C   UNL     1      -1.455  11.154  18.445  0.00  0.00    +0.000 A 
ATOM     29  C   UNL     1      -2.621  11.811  18.895  0.00  0.00    +0.000 A 
ATOM     30 CL   UNL     1      -2.522  13.027  20.130  0.00  0.00    +0.000 Cl
ENDBRANCH  22  28
ENDBRANCH   1  22
TORSDOF 3
ENDMDL
MODEL 2
REMARK VINA RESULT:      -8.9      6.704      9.975
REMARK  Name = 
REMARK  4 active torsions:
REMARK  status: ('A' for Active; 'I' for Inactive)
REMARK    1  A    between atoms: C_1  and  C_2
REMARK    2  A    between atoms: C_6  and  C_7
REMARK    3  A    between atoms: C_7  and  C_8
REMARK    4  A    between atoms: C_13  and  C_15
REMARK                            x       y       z     vdW  Elec       q    Type
REMARK                         _______ _______ _______ _____ _____    ______ ____
ROOT
ATOM      1  C   UNL     1       6.309   5.530  17.890  0.00  0.00    +0.000 A 
ATOM      2  C   UNL     1       7.511   5.598  18.566  0.00  0.00    +0.000 A 
ATOM      3  N   UNL     1       8.152   6.813  18.525  0.00  0.00    +0.000 NA
ATOM      4  C   UNL     1       7.441   7.664  17.831  0.00  0.00    +0.000 A 
ATOM      5  N   UNL     1       7.709   8.990  17.629  0.00  0.00    +0.000 N 
ATOM      6  C   UNL     1       8.573   9.639  18.483  0.00  0.00    +0.000 C 
ATOM      7  O   UNL     1       9.082   9.202  19.505  0.00  0.00    +0.000 OA
ATOM      8  S   UNL     1       6.028   7.041  17.102  0.00  0.00    +0.000 S 
ATOM      9  H   UNL     1       7.143   9.530  16.989  0.00  0.00    +0.000 HD
ENDROOT
BRANCH   6  10
ATOM     10  C   UNL     1       8.823  11.101  18.131  0.00  0.00    +0.000 A 
ATOM     11  N   UNL     1       7.875  11.707  17.470  0.00  0.00    +0.000 NA
ATOM     12  N   UNL     1       8.031  13.037  17.211  0.00  0.00    +0.000 N 
ATOM     13  C   UNL     1       9.080  13.827  17.618  0.00  0.00    +0.000 A 
ATOM     14  O   UNL     1       9.115  15.033  17.399  0.00  0.00    +0.000 OA
ATOM     15  C   UNL     1      10.173  13.143  18.327  0.00  0.00    +0.000 A 
ATOM     16  C   UNL     1      11.300  13.866  18.746  0.00  0.00    +0.000 A 
ATOM     17  C   UNL     1      12.333  13.216  19.419  0.00  0.00    +0.000 A 
ATOM     18  C   UNL     1      12.247  11.846  19.658  0.00  0.00    +0.000 A 
ATOM     19  C   UNL     1      11.127  11.126  19.228  0.00  0.00    +0.000 A 
ATOM     20  C   UNL     1      10.071  11.775  18.575  0.00  0.00    +0.000 A 
ATOM     21  H   UNL     1       7.258  13.510  16.749  0.00  0.00    +0.000 HD
ENDBRANCH   6  10
BRANCH   1  22
ATOM     22  C   UNL     1       5.369   4.368  17.781  0.00  0.00    +0.000 C 
BRANCH  22  28
ATOM     23  C   UNL     1       0.737   2.827  19.384  0.00  0.00    +0.000 C 
ATOM     24  C   UNL     1       1.871   3.817  19.347  0.00  0.00    +0.000 A 
ATOM     25  C   UNL     1       1.753   5.006  20.083  0.00  0.00    +0.000 A 
ATOM     26  C   UNL     1       2.774   5.952  20.070  0.00  0.00    +0.000 A 
ATOM     27  C   UNL     1       3.929   5.725  19.323  0.00  0.00    +0.000 A 
ATOM     28  C   UNL     1       4.084   4.547  18.570  0.00  0.00    +0.000 A 
ATOM     29  C   UNL     1       3.044   3.593  18.593  0.00  0.00    +0.000 A 
ATOM     30 CL   UNL     1       3.176   2.129  17.670  0.00  0.00    +0.000 Cl
ENDBRANCH  22  28
ENDBRANCH   1  22
TORSDOF 3
ENDMDL
MODEL 3
REMARK VINA RESULT:      -8.7      2.662      3.526
REMARK  Name = 
REMARK  4 active torsions:
REMARK  status: ('A' for Active; 'I' for Inactive)
REMARK    1  A    between atoms: C_1  and  C_2
REMARK    2  A    between atoms: C_6  and  C_7
REMARK    3  A    between atoms: C_7  and  C_8
REMARK    4  A    between atoms: C_13  and  C_15
REMARK                            x       y       z     vdW  Elec       q    Type
REMARK                         _______ _______ _______ _____ _____    ______ ____
ROOT
ATOM      1  C   UNL     1      -0.242  11.448  20.085  0.00  0.00    +0.000 A 
ATOM      2  C   UNL     1      -0.365  10.303  20.847  0.00  0.00    +0.000 A 
ATOM      3  N   UNL     1       0.285   9.191  20.367  0.00  0.00    +0.000 NA
ATOM      4  C   UNL     1       0.904   9.489  19.254  0.00  0.00    +0.000 A 
ATOM      5  N   UNL     1       1.719   8.672  18.520  0.00  0.00    +0.000 N 
ATOM      6  C   UNL     1       2.271   7.560  19.117  0.00  0.00    +0.000 C 
ATOM      7  O   UNL     1       2.211   7.239  20.296  0.00  0.00    +0.000 OA
ATOM      8  S   UNL     1       0.662  11.073  18.662  0.00  0.00    +0.000 S 
ATOM      9  H   UNL     1       2.063   8.975  17.620  0.00  0.00    +0.000 HD
ENDROOT
BRANCH   6  10
ATOM     10  C   UNL     1       3.125   6.707  18.187  0.00  0.00    +0.000 A 
ATOM     11  N   UNL     1       4.120   7.312  17.599  0.00  0.00    +0.000 NA
ATOM     12  N   UNL     1       4.954   6.558  16.826  0.00  0.00    +0.000 N 
ATOM     13  C   UNL     1       4.877   5.199  16.633  0.00  0.00    +0.000 A 
ATOM     14  O   UNL     1       5.707   4.584  15.971  0.00  0.00    +0.000 OA
ATOM     15  C   UNL     1       3.734   4.516  17.258  0.00  0.00    +0.000 A 
ATOM     16  C   UNL     1       3.557   3.136  17.082  0.00  0.00    +0.000 A 
ATOM     17  C   UNL     1       2.474   2.491  17.677  0.00  0.00    +0.000 A 
ATOM     18  C   UNL     1       1.562   3.226  18.431  0.00  0.00    +0.000 A 
ATOM     19  C   UNL     1       1.734   4.605  18.594  0.00  0.00    +0.000 A 
ATOM     20  C   UNL     1       2.835   5.258  18.023  0.00  0.00    +0.000 A 
ATOM     21  H   UNL     1       5.760   7.030  16.423  0.00  0.00    +0.000 HD
ENDBRANCH   6  10
BRANCH   1  22
ATOM     22  C   UNL     1      -0.800  12.811  20.360  0.00  0.00    +0.000 C 
BRANCH  22  28
ATOM     23  C   UNL     1      -4.293  13.016  24.123  0.00  0.00    +0.000 C 
ATOM     24  C   UNL     1      -3.904  12.893  22.673  0.00  0.00    +0.000 A 
ATOM     25  C   UNL     1      -4.917  12.742  21.713  0.00  0.00    +0.000 A 
ATOM     26  C   UNL     1      -4.601  12.617  20.363  0.00  0.00    +0.000 A 
ATOM     27  C   UNL     1      -3.270  12.643  19.951  0.00  0.00    +0.000 A 
ATOM     28  C   UNL     1      -2.226  12.791  20.882  0.00  0.00    +0.000 A 
ATOM     29  C   UNL     1      -2.558  12.920  22.248  0.00  0.00    +0.000 A 
ATOM     30 CL   UNL     1      -1.308  13.089  23.442  0.00  0.00    +0.000 Cl
ENDBRANCH  22  28
ENDBRANCH   1  22
TORSDOF 3
ENDMDL
MODEL 4
REMARK VINA RESULT:      -8.6      3.951      9.444
REMARK  Name = 
REMARK  4 active torsions:
REMARK  status: ('A' for Active; 'I' for Inactive)
REMARK    1  A    between atoms: C_1  and  C_2
REMARK    2  A    between atoms: C_6  and  C_7
REMARK    3  A    between atoms: C_7  and  C_8
REMARK    4  A    between atoms: C_13  and  C_15
REMARK                            x       y       z     vdW  Elec       q    Type
REMARK                         _______ _______ _______ _____ _____    ______ ____
ROOT
ATOM      1  C   UNL     1       3.242   6.359  19.267  0.00  0.00    +0.000 A 
ATOM      2  C   UNL     1       3.323   7.202  18.177  0.00  0.00    +0.000 A 
ATOM      3  N   UNL     1       2.441   8.256  18.170  0.00  0.00    +0.000 NA
ATOM      4  C   UNL     1       1.702   8.220  19.248  0.00  0.00    +0.000 A 
ATOM      5  N   UNL     1       0.765   9.138  19.637  0.00  0.00    +0.000 N 
ATOM      6  C   UNL     1       0.801  10.405  19.097  0.00  0.00    +0.000 C 
ATOM      7  O   UNL     1       1.653  10.878  18.358  0.00  0.00    +0.000 OA
ATOM      8  S   UNL     1       1.939   6.877  20.275  0.00  0.00    +0.000 S 
ATOM      9  H   UNL     1       0.179   8.956  20.439  0.00  0.00    +0.000 HD
ENDROOT
BRANCH   6  10
ATOM     10  C   UNL     1      -0.317  11.323  19.576  0.00  0.00    +0.000 A 
ATOM     11  N   UNL     1       0.016  12.234  20.448  0.00  0.00    +0.000 NA
ATOM     12  N   UNL     1      -0.942  13.125  20.835  0.00  0.00    +0.000 N 
ATOM     13  C   UNL     1      -2.231  13.189  20.361  0.00  0.00    +0.000 A 
ATOM     14  O   UNL     1      -3.015  14.064  20.713  0.00  0.00    +0.000 OA
ATOM     15  C   UNL     1      -2.628  12.140  19.409  0.00  0.00    +0.000 A 
ATOM     16  C   UNL     1      -3.936  12.108  18.903  0.00  0.00    +0.000 A 
ATOM     17  C   UNL     1      -4.308  11.113  18.000  0.00  0.00    +0.000 A 
ATOM     18  C   UNL     1      -3.381  10.146  17.616  0.00  0.00    +0.000 A 
ATOM     19  C   UNL     1      -2.082  10.174  18.133  0.00  0.00    +0.000 A 
ATOM     20  C   UNL     1      -1.689  11.185  19.020  0.00  0.00    +0.000 A 
ATOM     21  H   UNL     1      -0.653  13.867  21.468  0.00  0.00    +0.000 HD
ENDBRANCH   6  10
BRANCH   1  22
ATOM     22  C   UNL     1       4.081   5.155  19.575  0.00  0.00    +0.000 C 
BRANCH  22  28
ATOM     23  C   UNL     1       6.185   3.663  15.131  0.00  0.00    +0.000 C 
ATOM     24  C   UNL     1       6.271   4.271  16.507  0.00  0.00    +0.000 A 
ATOM     25  C   UNL     1       7.520   4.706  16.975  0.00  0.00    +0.000 A 
ATOM     26  C   UNL     1       7.645   5.266  18.244  0.00  0.00    +0.000 A 
ATOM     27  C   UNL     1       6.525   5.401  19.062  0.00  0.00    +0.000 A 
ATOM     28  C   UNL     1       5.256   4.976  18.630  0.00  0.00    +0.000 A 
ATOM     29  C   UNL     1       5.140   4.412  17.340  0.00  0.00    +0.000 A 
ATOM     30 CL   UNL     1       3.601   3.856  16.762  0.00  0.00    +0.000 Cl
ENDBRANCH  22  28
ENDBRANCH   1  22
TORSDOF 3
ENDMDL
MODEL 5
REMARK VINA RESULT:      -8.5      6.486     10.023
REMARK  Name = 
REMARK  4 active torsions:
REMARK  status: ('A' for Active; 'I' for Inactive)
REMARK    1  A    between atoms: C_1  and  C_2
REMARK    2  A    between atoms: C_6  and  C_7
REMARK    3  A    between atoms: C_7  and  C_8
REMARK    4  A    between atoms: C_13  and  C_15
REMARK                            x       y       z     vdW  Elec       q    Type
REMARK                         _______ _______ _______ _____ _____    ______ ____
ROOT
ATOM      1  C   UNL     1       6.281   5.593  17.461  0.00  0.00    +0.000 A 
ATOM      2  C   UNL     1       7.439   5.623  18.213  0.00  0.00    +0.000 A 
ATOM      3  N   UNL     1       8.088   6.834  18.264  0.00  0.00    +0.000 NA
ATOM      4  C   UNL     1       7.426   7.718  17.563  0.00  0.00    +0.000 A 
ATOM      5  N   UNL     1       7.713   9.049  17.434  0.00  0.00    +0.000 N 
ATOM      6  C   UNL     1       8.524   9.656  18.368  0.00  0.00    +0.000 C 
ATOM      7  O   UNL     1       8.966   9.172  19.400  0.00  0.00    +0.000 OA
ATOM      8  S   UNL     1       6.059   7.137  16.721  0.00  0.00    +0.000 S 
ATOM      9  H   UNL     1       7.192   9.620  16.783  0.00  0.00    +0.000 HD
ENDROOT
BRANCH   6  10
ATOM     10  C   UNL     1       8.803  11.129  18.094  0.00  0.00    +0.000 A 
ATOM     11  N   UNL     1       7.874  11.784  17.454  0.00  0.00    +0.000 NA
ATOM     12  N   UNL     1       8.055  13.123  17.266  0.00  0.00    +0.000 N 
ATOM     13  C   UNL     1       9.113  13.872  17.725  0.00  0.00    +0.000 A 
ATOM     14  O   UNL     1       9.171  15.088  17.569  0.00  0.00    +0.000 OA
ATOM     15  C   UNL     1      10.186  13.134  18.410  0.00  0.00    +0.000 A 
ATOM     16  C   UNL     1      11.320  13.815  18.878  0.00  0.00    +0.000 A 
ATOM     17  C   UNL     1      12.333  13.113  19.528  0.00  0.00    +0.000 A 
ATOM     18  C   UNL     1      12.221  11.735  19.696  0.00  0.00    +0.000 A 
ATOM     19  C   UNL     1      11.094  11.058  19.217  0.00  0.00    +0.000 A 
ATOM     20  C   UNL     1      10.057  11.757  18.586  0.00  0.00    +0.000 A 
ATOM     21  H   UNL     1       7.297  13.633  16.821  0.00  0.00    +0.000 HD
ENDBRANCH   6  10
BRANCH   1  22
ATOM     22  C   UNL     1       5.345   4.443  17.244  0.00  0.00    +0.000 C 
BRANCH  22  28
ATOM     23  C   UNL     1       1.526   5.327  20.564  0.00  0.00    +0.000 C 
ATOM     24  C   UNL     1       2.683   4.510  20.054  0.00  0.00    +0.000 A 
ATOM     25  C   UNL     1       3.040   3.342  20.745  0.00  0.00    +0.000 A 
ATOM     26  C   UNL     1       4.108   2.561  20.312  0.00  0.00    +0.000 A 
ATOM     27  C   UNL     1       4.835   2.934  19.183  0.00  0.00    +0.000 A 
ATOM     28  C   UNL     1       4.510   4.099  18.465  0.00  0.00    +0.000 A 
ATOM     29  C   UNL     1       3.422   4.881  18.910  0.00  0.00    +0.000 A 
ATOM     30 CL   UNL     1       2.987   6.338  18.071  0.00  0.00    +0.000 Cl
ENDBRANCH  22  28
ENDBRANCH   1  22
TORSDOF 3
ENDMDL
MODEL 6
REMARK VINA RESULT:      -8.5      2.716      3.607
REMARK  Name = 
REMARK  4 active torsions:
REMARK  status: ('A' for Active; 'I' for Inactive)
REMARK    1  A    between atoms: C_1  and  C_2
REMARK    2  A    between atoms: C_6  and  C_7
REMARK    3  A    between atoms: C_7  and  C_8
REMARK    4  A    between atoms: C_13  and  C_15
REMARK                            x       y       z     vdW  Elec       q    Type
REMARK                         _______ _______ _______ _____ _____    ______ ____
ROOT
ATOM      1  C   UNL     1       0.153  11.342  20.632  0.00  0.00    +0.000 A 
ATOM      2  C   UNL     1      -0.097  10.164  21.307  0.00  0.00    +0.000 A 
ATOM      3  N   UNL     1       0.433   9.028  20.743  0.00  0.00    +0.000 NA
ATOM      4  C   UNL     1       1.087   9.339  19.655  0.00  0.00    +0.000 A 
ATOM      5  N   UNL     1       1.814   8.496  18.860  0.00  0.00    +0.000 N 
ATOM      6  C   UNL     1       2.240   7.290  19.372  0.00  0.00    +0.000 C 
ATOM      7  O   UNL     1       2.139   6.890  20.523  0.00  0.00    +0.000 OA
ATOM      8  S   UNL     1       1.020  10.979  19.183  0.00  0.00    +0.000 S 
ATOM      9  H   UNL     1       2.194   8.827  17.984  0.00  0.00    +0.000 HD
ENDROOT
BRANCH   6  10
ATOM     10  C   UNL     1       3.003   6.421  18.379  0.00  0.00    +0.000 A 
ATOM     11  N   UNL     1       3.961   7.008  17.715  0.00  0.00    +0.000 NA
ATOM     12  N   UNL     1       4.718   6.240  16.880  0.00  0.00    +0.000 N 
ATOM     13  C   UNL     1       4.601   4.882  16.694  0.00  0.00    +0.000 A 
ATOM     14  O   UNL     1       5.365   4.252  15.971  0.00  0.00    +0.000 OA
ATOM     15  C   UNL     1       3.496   4.221  17.406  0.00  0.00    +0.000 A 
ATOM     16  C   UNL     1       3.281   2.844  17.245  0.00  0.00    +0.000 A 
ATOM     17  C   UNL     1       2.234   2.220  17.922  0.00  0.00    +0.000 A 
ATOM     18  C   UNL     1       1.398   2.972  18.744  0.00  0.00    +0.000 A 
ATOM     19  C   UNL     1       1.608   4.347  18.892  0.00  0.00    +0.000 A 
ATOM     20  C   UNL     1       2.674   4.979  18.238  0.00  0.00    +0.000 A 
ATOM     21  H   UNL     1       5.500   6.696  16.416  0.00  0.00    +0.000 HD
ENDBRANCH   6  10
BRANCH   1  22
ATOM     22  C   UNL     1      -0.258  12.734  21.008  0.00  0.00    +0.000 C 
BRANCH  22  28
ATOM     23  C   UNL     1      -5.388  12.508  21.155  0.00  0.00    +0.000 C 
ATOM     24  C   UNL     1      -4.045  12.688  21.812  0.00  0.00    +0.000 A 
ATOM     25  C   UNL     1      -3.997  12.943  23.190  0.00  0.00    +0.000 A 
ATOM     26  C   UNL     1      -2.776  13.124  23.835  0.00  0.00    +0.000 A 
ATOM     27  C   UNL     1      -1.586  13.051  23.113  0.00  0.00    +0.000 A 
ATOM     28  C   UNL     1      -1.593  12.800  21.730  0.00  0.00    +0.000 A 
ATOM     29  C   UNL     1      -2.836  12.614  21.086  0.00  0.00    +0.000 A 
ATOM     30 CL   UNL     1      -2.903  12.317  19.377  0.00  0.00    +0.000 Cl
ENDBRANCH  22  28
ENDBRANCH   1  22
TORSDOF 3
ENDMDL
MODEL 7
REMARK VINA RESULT:      -8.5      2.808      3.979
REMARK  Name = 
REMARK  4 active torsions:
REMARK  status: ('A' for Active; 'I' for Inactive)
REMARK    1  A    between atoms: C_1  and  C_2
REMARK    2  A    between atoms: C_6  and  C_7
REMARK    3  A    between atoms: C_7  and  C_8
REMARK    4  A    between atoms: C_13  and  C_15
REMARK                            x       y       z     vdW  Elec       q    Type
REMARK                         _______ _______ _______ _____ _____    ______ ____
ROOT
ATOM      1  C   UNL     1      -0.525  11.352  22.299  0.00  0.00    +0.000 A 
ATOM      2  C   UNL     1       0.305  11.634  21.232  0.00  0.00    +0.000 A 
ATOM      3  N   UNL     1       1.040  10.578  20.750  0.00  0.00    +0.000 NA
ATOM      4  C   UNL     1       0.767   9.500  21.440  0.00  0.00    +0.000 A 
ATOM      5  N   UNL     1       1.240   8.236  21.215  0.00  0.00    +0.000 N 
ATOM      6  C   UNL     1       1.755   7.921  19.977  0.00  0.00    +0.000 C 
ATOM      7  O   UNL     1       1.759   8.616  18.971  0.00  0.00    +0.000 OA
ATOM      8  S   UNL     1      -0.295   9.704  22.761  0.00  0.00    +0.000 S 
ATOM      9  H   UNL     1       1.043   7.496  21.874  0.00  0.00    +0.000 HD
ENDROOT
BRANCH   6  10
ATOM     10  C   UNL     1       2.287   6.498  19.863  0.00  0.00    +0.000 A 
ATOM     11  N   UNL     1       1.861   5.648  20.756  0.00  0.00    +0.000 NA
ATOM     12  N   UNL     1       2.252   4.347  20.634  0.00  0.00    +0.000 N 
ATOM     13  C   UNL     1       3.027   3.823  19.626  0.00  0.00    +0.000 A 
ATOM     14  O   UNL     1       3.283   2.625  19.552  0.00  0.00    +0.000 OA
ATOM     15  C   UNL     1       3.546   4.781  18.638  0.00  0.00    +0.000 A 
ATOM     16  C   UNL     1       4.376   4.338  17.596  0.00  0.00    +0.000 A 
ATOM     17  C   UNL     1       4.865   5.248  16.661  0.00  0.00    +0.000 A 
ATOM     18  C   UNL     1       4.539   6.598  16.775  0.00  0.00    +0.000 A 
ATOM     19  C   UNL     1       3.722   7.038  17.822  0.00  0.00    +0.000 A 
ATOM     20  C   UNL     1       3.203   6.127  18.752  0.00  0.00    +0.000 A 
ATOM     21  H   UNL     1       1.865   3.684  21.300  0.00  0.00    +0.000 HD
ENDBRANCH   6  10
BRANCH   1  22
ATOM     22  C   UNL     1      -1.465  12.275  23.013  0.00  0.00    +0.000 C 
BRANCH  22  28
ATOM     23  C   UNL     1      -6.556  12.950  22.872  0.00  0.00    +0.000 C 
ATOM     24  C   UNL     1      -5.212  12.818  22.205  0.00  0.00    +0.000 A 
ATOM     25  C   UNL     1      -5.144  12.889  20.806  0.00  0.00    +0.000 A 
ATOM     26  C   UNL     1      -3.923  12.764  20.149  0.00  0.00    +0.000 A 
ATOM     27  C   UNL     1      -2.752  12.568  20.880  0.00  0.00    +0.000 A 
ATOM     28  C   UNL     1      -2.780  12.490  22.283  0.00  0.00    +0.000 A 
ATOM     29  C   UNL     1      -4.023  12.621  22.940  0.00  0.00    +0.000 A 
ATOM     30 CL   UNL     1      -4.117  12.516  24.670  0.00  0.00    +0.000 Cl
ENDBRANCH  22  28
ENDBRANCH   1  22
TORSDOF 3
ENDMDL
MODEL 8
REMARK VINA RESULT:      -8.4      1.943      3.165
REMARK  Name = 
REMARK  4 active torsions:
REMARK  status: ('A' for Active; 'I' for Inactive)
REMARK    1  A    between atoms: C_1  and  C_2
REMARK    2  A    between atoms: C_6  and  C_7
REMARK    3  A    between atoms: C_7  and  C_8
REMARK    4  A    between atoms: C_13  and  C_15
REMARK                            x       y       z     vdW  Elec       q    Type
REMARK                         _______ _______ _______ _____ _____    ______ ____
ROOT
ATOM      1  C   UNL     1      -0.557  11.580  19.496  0.00  0.00    +0.000 A 
ATOM      2  C   UNL     1       0.519  11.772  18.652  0.00  0.00    +0.000 A 
ATOM      3  N   UNL     1       1.399  10.721  18.555  0.00  0.00    +0.000 NA
ATOM      4  C   UNL     1       0.993   9.735  19.311  0.00  0.00    +0.000 A 
ATOM      5  N   UNL     1       1.559   8.494  19.422  0.00  0.00    +0.000 N 
ATOM      6  C   UNL     1       2.402   8.048  18.429  0.00  0.00    +0.000 C 
ATOM      7  O   UNL     1       2.651   8.591  17.362  0.00  0.00    +0.000 OA
ATOM      8  S   UNL     1      -0.394  10.039  20.259  0.00  0.00    +0.000 S 
ATOM      9  H   UNL     1       1.220   7.843  20.117  0.00  0.00    +0.000 HD
ENDROOT
BRANCH   6  10
ATOM     10  C   UNL     1       3.002   6.671  18.686  0.00  0.00    +0.000 A 
ATOM     11  N   UNL     1       2.594   6.055  19.761  0.00  0.00    +0.000 NA
ATOM     12  N   UNL     1       3.047   4.787  19.978  0.00  0.00    +0.000 N 
ATOM     13  C   UNL     1       3.869   4.064  19.145  0.00  0.00    +0.000 A 
ATOM     14  O   UNL     1       4.181   2.902  19.381  0.00  0.00    +0.000 OA
ATOM     15  C   UNL     1       4.367   4.766  17.952  0.00  0.00    +0.000 A 
ATOM     16  C   UNL     1       5.240   4.116  17.067  0.00  0.00    +0.000 A 
ATOM     17  C   UNL     1       5.709   4.783  15.936  0.00  0.00    +0.000 A 
ATOM     18  C   UNL     1       5.319   6.100  15.700  0.00  0.00    +0.000 A 
ATOM     19  C   UNL     1       4.458   6.749  16.592  0.00  0.00    +0.000 A 
ATOM     20  C   UNL     1       3.960   6.078  17.716  0.00  0.00    +0.000 A 
ATOM     21  H   UNL     1       2.675   4.296  20.786  0.00  0.00    +0.000 HD
ENDBRANCH   6  10
BRANCH   1  22
ATOM     22  C   UNL     1      -1.691  12.516  19.783  0.00  0.00    +0.000 C 
BRANCH  22  28
ATOM     23  C   UNL     1      -6.805  12.021  19.715  0.00  0.00    +0.000 C 
ATOM     24  C   UNL     1      -5.444  11.868  19.087  0.00  0.00    +0.000 A 
ATOM     25  C   UNL     1      -5.352  11.301  17.807  0.00  0.00    +0.000 A 
ATOM     26  C   UNL     1      -4.113  11.134  17.193  0.00  0.00    +0.000 A 
ATOM     27  C   UNL     1      -2.949  11.533  17.848  0.00  0.00    +0.000 A 
ATOM     28  C   UNL     1      -3.000  12.104  19.132  0.00  0.00    +0.000 A 
ATOM     29  C   UNL     1      -4.261  12.272  19.743  0.00  0.00    +0.000 A 
ATOM     30 CL   UNL     1      -4.381  12.957  21.334  0.00  0.00    +0.000 Cl
ENDBRANCH  22  28
ENDBRANCH   1  22
TORSDOF 3
ENDMDL
MODEL 9
REMARK VINA RESULT:      -8.3      4.233      9.353
REMARK  Name = 
REMARK  4 active torsions:
REMARK  status: ('A' for Active; 'I' for Inactive)
REMARK    1  A    between atoms: C_1  and  C_2
REMARK    2  A    between atoms: C_6  and  C_7
REMARK    3  A    between atoms: C_7  and  C_8
REMARK    4  A    between atoms: C_13  and  C_15
REMARK                            x       y       z     vdW  Elec       q    Type
REMARK                         _______ _______ _______ _____ _____    ______ ____
ROOT
ATOM      1  C   UNL     1       3.069   6.533  19.213  0.00  0.00    +0.000 A 
ATOM      2  C   UNL     1       3.158   7.325  18.085  0.00  0.00    +0.000 A 
ATOM      3  N   UNL     1       2.399   8.471  18.096  0.00  0.00    +0.000 NA
ATOM      4  C   UNL     1       1.745   8.555  19.226  0.00  0.00    +0.000 A 
ATOM      5  N   UNL     1       0.948   9.585  19.642  0.00  0.00    +0.000 N 
ATOM      6  C   UNL     1       1.081  10.821  19.048  0.00  0.00    +0.000 C 
ATOM      7  O   UNL     1       1.921  11.169  18.230  0.00  0.00    +0.000 OA
ATOM      8  S   UNL     1       1.912   7.229  20.289  0.00  0.00    +0.000 S 
ATOM      9  H   UNL     1       0.408   9.498  20.492  0.00  0.00    +0.000 HD
ENDROOT
BRANCH   6  10
ATOM     10  C   UNL     1       0.110  11.875  19.567  0.00  0.00    +0.000 A 
ATOM     11  N   UNL     1      -0.135  12.877  18.768  0.00  0.00    +0.000 NA
ATOM     12  N   UNL     1      -1.063  13.795  19.167  0.00  0.00    +0.000 N 
ATOM     13  C   UNL     1      -1.807  13.749  20.322  0.00  0.00    +0.000 A 
ATOM     14  O   UNL     1      -2.670  14.582  20.578  0.00  0.00    +0.000 OA
ATOM     15  C   UNL     1      -1.506  12.646  21.247  0.00  0.00    +0.000 A 
ATOM     16  C   UNL     1      -2.192  12.544  22.467  0.00  0.00    +0.000 A 
ATOM     17  C   UNL     1      -1.906  11.496  23.341  0.00  0.00    +0.000 A 
ATOM     18  C   UNL     1      -0.927  10.564  23.004  0.00  0.00    +0.000 A 
ATOM     19  C   UNL     1      -0.236  10.677  21.793  0.00  0.00    +0.000 A 
ATOM     20  C   UNL     1      -0.535  11.709  20.895  0.00  0.00    +0.000 A 
ATOM     21  H   UNL     1      -1.289  14.536  18.509  0.00  0.00    +0.000 HD
ENDBRANCH   6  10
BRANCH   1  22
ATOM     22  C   UNL     1       3.792   5.254  19.509  0.00  0.00    +0.000 C 
BRANCH  22  28
ATOM     23  C   UNL     1       6.251   3.694  15.277  0.00  0.00    +0.000 C 
ATOM     24  C   UNL     1       6.226   4.316  16.648  0.00  0.00    +0.000 A 
ATOM     25  C   UNL     1       7.435   4.743  17.217  0.00  0.00    +0.000 A 
ATOM     26  C   UNL     1       7.457   5.315  18.486  0.00  0.00    +0.000 A 
ATOM     27  C   UNL     1       6.273   5.471  19.205  0.00  0.00    +0.000 A 
ATOM     28  C   UNL     1       5.042   5.053  18.670  0.00  0.00    +0.000 A 
ATOM     29  C   UNL     1       5.030   4.477  17.381  0.00  0.00    +0.000 A 
ATOM     30 CL   UNL     1       3.539   3.929  16.678  0.00  0.00    +0.000 Cl
ENDBRANCH  22  28
ENDBRANCH   1  22
TORSDOF 3
ENDMDL
