MODEL 1
REMARK VINA RESULT:      -8.4      0.000      0.000
REMARK  Name = 
REMARK  6 active torsions:
REMARK  status: ('A' for Active; 'I' for Inactive)
REMARK    1  A    between atoms: C_1  and  N_2
REMARK    2  A    between atoms: C_7  and  C_8
REMARK    3  A    between atoms: N_10  and  C_11
REMARK    4  A    between atoms: N_20  and  C_21
REMARK    5  A    between atoms: C_21  and  C_22
REMARK    6  A    between atoms: N_29  and  C_30
REMARK                            x       y       z     vdW  Elec       q    Type
REMARK                         _______ _______ _______ _____ _____    ______ ____
ROOT
ATOM      1  C   UNL     1       1.678  16.798  18.318  0.00  0.00    +0.000 C 
ATOM      2  N   UNL     1       1.232  15.451  18.623  0.00  0.00    +0.000 N 
ATOM      3  C   UNL     1       2.103  14.404  18.358  0.00  0.00    +0.000 A 
ATOM      4  O   UNL     1       3.228  14.532  17.882  0.00  0.00    +0.000 OA
ATOM      5  C   UNL     1       1.572  13.104  18.677  0.00  0.00    +0.000 A 
ATOM      6  C   UNL     1       2.171  11.840  18.537  0.00  0.00    +0.000 A 
ATOM      7  C   UNL     1       1.270  10.876  18.962  0.00  0.00    +0.000 A 
ATOM      8  N   UNL     1       0.104  11.570  19.351  0.00  0.00    +0.000 N 
ATOM      9  C   UNL     1       0.326  12.940  19.230  0.00  0.00    +0.000 A 
ATOM     10  N   UNL     1      -0.482  14.033  19.556  0.00  0.00    +0.000 N 
ATOM     11  C   UNL     1      -1.731  14.005  20.295  0.00  0.00    +0.000 C 
ATOM     12  C   UNL     1      -0.045  15.325  19.180  0.00  0.00    +0.000 A 
ATOM     13  O   UNL     1      -0.760  16.318  19.347  0.00  0.00    +0.000 OA
ENDROOT
BRANCH   7  14
ATOM     14  C   UNL     1       1.485   9.427  19.021  0.00  0.00    +0.000 C 
ATOM     15  O   UNL     1       1.016   8.730  19.914  0.00  0.00    +0.000 OA
ATOM     16  N   UNL     1       2.219   8.921  17.956  0.00  0.00    +0.000 N 
ATOM     17  H   UNL     1       2.334   9.531  17.158  0.00  0.00    +0.000 HD
BRANCH  16  18
ATOM     18  C   UNL     1       2.720   7.608  17.804  0.00  0.00    +0.000 A 
ATOM     19  C   UNL     1       1.986   6.456  18.155  0.00  0.00    +0.000 A 
ATOM     20  C   UNL     1       2.544   5.175  18.022  0.00  0.00    +0.000 A 
ATOM     21  C   UNL     1       3.826   5.075  17.532  0.00  0.00    +0.000 A 
ATOM     22  C   UNL     1       4.551   6.191  17.189  0.00  0.00    +0.000 A 
ATOM     23  C   UNL     1       4.031   7.467  17.328  0.00  0.00    +0.000 A 
ATOM     24  O   UNL     1       5.788   5.881  16.719  0.00  0.00    +0.000 OA
ATOM     25  C   UNL     1       5.777   4.442  16.850  0.00  0.00    +0.000 C 
ATOM     26  O   UNL     1       4.521   3.924  17.334  0.00  0.00    +0.000 OA
ENDBRANCH  16  18
ENDBRANCH   7  14
BRANCH   8  27
ATOM     27  C   UNL     1      -1.193  10.899  19.547  0.00  0.00    +0.000 C 
BRANCH  27  28
ATOM     28  C   UNL     1      -2.077  10.754  18.326  0.00  0.00    +0.000 A 
ATOM     29  C   UNL     1      -1.757   9.957  17.218  0.00  0.00    +0.000 A 
ATOM     30  C   UNL     1      -2.571   9.956  16.081  0.00  0.00    +0.000 A 
ATOM     31  C   UNL     1      -3.726  10.736  16.040  0.00  0.00    +0.000 A 
ATOM     32  C   UNL     1      -4.085  11.496  17.148  0.00  0.00    +0.000 A 
ATOM     33  C   UNL     1      -3.271  11.499  18.283  0.00  0.00    +0.000 A 
ENDBRANCH  27  28
ENDBRANCH   8  27
TORSDOF 4
ENDMDL
MODEL 2
REMARK VINA RESULT:      -8.3      0.672      1.607
REMARK  Name = 
REMARK  6 active torsions:
REMARK  status: ('A' for Active; 'I' for Inactive)
REMARK    1  A    between atoms: C_1  and  N_2
REMARK    2  A    between atoms: C_7  and  C_8
REMARK    3  A    between atoms: N_10  and  C_11
REMARK    4  A    between atoms: N_20  and  C_21
REMARK    5  A    between atoms: C_21  and  C_22
REMARK    6  A    between atoms: N_29  and  C_30
REMARK                            x       y       z     vdW  Elec       q    Type
REMARK                         _______ _______ _______ _____ _____    ______ ____
ROOT
ATOM      1  C   UNL     1       1.584  16.830  18.326  0.00  0.00    +0.000 C 
ATOM      2  N   UNL     1       1.158  15.477  18.632  0.00  0.00    +0.000 N 
ATOM      3  C   UNL     1       2.057  14.445  18.403  0.00  0.00    +0.000 A 
ATOM      4  O   UNL     1       3.192  14.592  17.958  0.00  0.00    +0.000 OA
ATOM      5  C   UNL     1       1.544  13.138  18.720  0.00  0.00    +0.000 A 
ATOM      6  C   UNL     1       2.172  11.885  18.611  0.00  0.00    +0.000 A 
ATOM      7  C   UNL     1       1.279  10.907  19.019  0.00  0.00    +0.000 A 
ATOM      8  N   UNL     1       0.089  11.580  19.368  0.00  0.00    +0.000 N 
ATOM      9  C   UNL     1       0.286  12.954  19.239  0.00  0.00    +0.000 A 
ATOM     10  N   UNL     1      -0.553  14.033  19.530  0.00  0.00    +0.000 N 
ATOM     11  C   UNL     1      -1.822  13.986  20.234  0.00  0.00    +0.000 C 
ATOM     12  C   UNL     1      -0.132  15.329  19.154  0.00  0.00    +0.000 A 
ATOM     13  O   UNL     1      -0.872  16.310  19.290  0.00  0.00    +0.000 OA
ENDROOT
BRANCH   7  14
ATOM     14  C   UNL     1       1.522   9.463  19.100  0.00  0.00    +0.000 C 
ATOM     15  O   UNL     1       1.124   8.782  20.038  0.00  0.00    +0.000 OA
ATOM     16  N   UNL     1       2.194   8.942  18.003  0.00  0.00    +0.000 N 
ATOM     17  H   UNL     1       2.247   9.533  17.184  0.00  0.00    +0.000 HD
BRANCH  16  18
ATOM     18  C   UNL     1       2.707   7.633  17.850  0.00  0.00    +0.000 A 
ATOM     19  C   UNL     1       4.023   7.365  17.422  0.00  0.00    +0.000 A 
ATOM     20  C   UNL     1       4.472   6.046  17.248  0.00  0.00    +0.000 A 
ATOM     21  C   UNL     1       3.593   5.022  17.514  0.00  0.00    +0.000 A 
ATOM     22  C   UNL     1       2.307   5.272  17.930  0.00  0.00    +0.000 A 
ATOM     23  C   UNL     1       1.834   6.564  18.092  0.00  0.00    +0.000 A 
ATOM     24  O   UNL     1       1.603   4.131  18.149  0.00  0.00    +0.000 OA
ATOM     25  C   UNL     1       2.578   3.133  17.776  0.00  0.00    +0.000 C 
ATOM     26  O   UNL     1       3.853   3.693  17.405  0.00  0.00    +0.000 OA
ENDBRANCH  16  18
ENDBRANCH   7  14
BRANCH   8  27
ATOM     27  C   UNL     1      -1.200  10.885  19.533  0.00  0.00    +0.000 C 
BRANCH  27  28
ATOM     28  C   UNL     1      -2.111  10.841  18.326  0.00  0.00    +0.000 A 
ATOM     29  C   UNL     1      -3.342  11.509  18.248  0.00  0.00    +0.000 A 
ATOM     30  C   UNL     1      -4.179  11.335  17.141  0.00  0.00    +0.000 A 
ATOM     31  C   UNL     1      -3.793  10.507  16.088  0.00  0.00    +0.000 A 
ATOM     32  C   UNL     1      -2.555   9.874  16.126  0.00  0.00    +0.000 A 
ATOM     33  C   UNL     1      -1.719  10.046  17.231  0.00  0.00    +0.000 A 
ENDBRANCH  27  28
ENDBRANCH   8  27
TORSDOF 4
ENDMDL
MODEL 3
REMARK VINA RESULT:      -8.2      1.449      1.646
REMARK  Name = 
REMARK  6 active torsions:
REMARK  status: ('A' for Active; 'I' for Inactive)
REMARK    1  A    between atoms: C_1  and  N_2
REMARK    2  A    between atoms: C_7  and  C_8
REMARK    3  A    between atoms: N_10  and  C_11
REMARK    4  A    between atoms: N_20  and  C_21
REMARK    5  A    between atoms: C_21  and  C_22
REMARK    6  A    between atoms: N_29  and  C_30
REMARK                            x       y       z     vdW  Elec       q    Type
REMARK                         _______ _______ _______ _____ _____    ______ ____
ROOT
ATOM      1  C   UNL     1       0.314  16.529  20.380  0.00  0.00    +0.000 C 
ATOM      2  N   UNL     1       0.077  15.112  20.172  0.00  0.00    +0.000 N 
ATOM      3  C   UNL     1       1.125  14.343  19.688  0.00  0.00    +0.000 A 
ATOM      4  O   UNL     1       2.243  14.773  19.418  0.00  0.00    +0.000 OA
ATOM      5  C   UNL     1       0.795  12.954  19.498  0.00  0.00    +0.000 A 
ATOM      6  C   UNL     1       1.602  11.905  19.028  0.00  0.00    +0.000 A 
ATOM      7  C   UNL     1       0.845  10.743  19.002  0.00  0.00    +0.000 A 
ATOM      8  N   UNL     1      -0.443  11.102  19.453  0.00  0.00    +0.000 N 
ATOM      9  C   UNL     1      -0.442  12.449  19.813  0.00  0.00    +0.000 A 
ATOM     10  N   UNL     1      -1.440  13.248  20.378  0.00  0.00    +0.000 N 
ATOM     11  C   UNL     1      -2.715  12.805  20.911  0.00  0.00    +0.000 C 
ATOM     12  C   UNL     1      -1.197  14.636  20.500  0.00  0.00    +0.000 A 
ATOM     13  O   UNL     1      -2.076  15.409  20.894  0.00  0.00    +0.000 OA
ENDROOT
BRANCH   7  14
ATOM     14  C   UNL     1       1.292   9.402  18.611  0.00  0.00    +0.000 C 
ATOM     15  O   UNL     1       1.246   9.007  17.452  0.00  0.00    +0.000 OA
ATOM     16  N   UNL     1       1.810   8.653  19.659  0.00  0.00    +0.000 N 
ATOM     17  H   UNL     1       2.035   9.157  20.506  0.00  0.00    +0.000 HD
BRANCH  16  18
ATOM     18  C   UNL     1       2.177   7.287  19.641  0.00  0.00    +0.000 A 
ATOM     19  C   UNL     1       1.662   6.338  20.547  0.00  0.00    +0.000 A 
ATOM     20  C   UNL     1       2.088   5.001  20.513  0.00  0.00    +0.000 A 
ATOM     21  C   UNL     1       3.018   4.642  19.565  0.00  0.00    +0.000 A 
ATOM     22  C   UNL     1       3.528   5.559  18.679  0.00  0.00    +0.000 A 
ATOM     23  C   UNL     1       3.138   6.888  18.703  0.00  0.00    +0.000 A 
ATOM     24  O   UNL     1       4.424   5.007  17.819  0.00  0.00    +0.000 OA
ATOM     25  C   UNL     1       4.456   3.644  18.298  0.00  0.00    +0.000 C 
ATOM     26  O   UNL     1       3.540   3.400  19.384  0.00  0.00    +0.000 OA
ENDBRANCH  16  18
ENDBRANCH   7  14
BRANCH   8  27
ATOM     27  C   UNL     1      -1.622  10.240  19.261  0.00  0.00    +0.000 C 
BRANCH  27  28
ATOM     28  C   UNL     1      -2.403  10.428  17.978  0.00  0.00    +0.000 A 
ATOM     29  C   UNL     1      -2.014   9.899  16.739  0.00  0.00    +0.000 A 
ATOM     30  C   UNL     1      -2.730  10.205  15.577  0.00  0.00    +0.000 A 
ATOM     31  C   UNL     1      -3.853  11.028  15.636  0.00  0.00    +0.000 A 
ATOM     32  C   UNL     1      -4.281  11.524  16.862  0.00  0.00    +0.000 A 
ATOM     33  C   UNL     1      -3.567  11.220  18.024  0.00  0.00    +0.000 A 
ENDBRANCH  27  28
ENDBRANCH   8  27
TORSDOF 4
ENDMDL
MODEL 4
REMARK VINA RESULT:      -8.2      3.736      8.995
REMARK  Name = 
REMARK  6 active torsions:
REMARK  status: ('A' for Active; 'I' for Inactive)
REMARK    1  A    between atoms: C_1  and  N_2
REMARK    2  A    between atoms: C_7  and  C_8
REMARK    3  A    between atoms: N_10  and  C_11
REMARK    4  A    between atoms: N_20  and  C_21
REMARK    5  A    between atoms: C_21  and  C_22
REMARK    6  A    between atoms: N_29  and  C_30
REMARK                            x       y       z     vdW  Elec       q    Type
REMARK                         _______ _______ _______ _____ _____    ______ ____
ROOT
ATOM      1  C   UNL     1       7.513   4.845  15.865  0.00  0.00    +0.000 C 
ATOM      2  N   UNL     1       6.185   5.144  16.369  0.00  0.00    +0.000 N 
ATOM      3  C   UNL     1       5.940   6.428  16.832  0.00  0.00    +0.000 A 
ATOM      4  O   UNL     1       6.767   7.337  16.848  0.00  0.00    +0.000 OA
ATOM      5  C   UNL     1       4.603   6.629  17.327  0.00  0.00    +0.000 A 
ATOM      6  C   UNL     1       4.018   7.789  17.865  0.00  0.00    +0.000 A 
ATOM      7  C   UNL     1       2.710   7.499  18.221  0.00  0.00    +0.000 A 
ATOM      8  N   UNL     1       2.507   6.139  17.903  0.00  0.00    +0.000 N 
ATOM      9  C   UNL     1       3.657   5.634  17.298  0.00  0.00    +0.000 A 
ATOM     10  N   UNL     1       3.928   4.380  16.745  0.00  0.00    +0.000 N 
ATOM     11  C   UNL     1       2.977   3.311  16.498  0.00  0.00    +0.000 C 
ATOM     12  C   UNL     1       5.251   4.103  16.328  0.00  0.00    +0.000 A 
ATOM     13  O   UNL     1       5.576   2.980  15.927  0.00  0.00    +0.000 OA
ENDROOT
BRANCH   7  14
ATOM     14  C   UNL     1       1.721   8.420  18.788  0.00  0.00    +0.000 C 
ATOM     15  O   UNL     1       1.017   9.139  18.090  0.00  0.00    +0.000 OA
ATOM     16  N   UNL     1       1.626   8.363  20.173  0.00  0.00    +0.000 N 
ATOM     17  H   UNL     1       2.059   7.567  20.622  0.00  0.00    +0.000 HD
BRANCH  16  18
ATOM     18  C   UNL     1       0.888   9.220  21.021  0.00  0.00    +0.000 A 
ATOM     19  C   UNL     1       0.108   8.755  22.099  0.00  0.00    +0.000 A 
ATOM     20  C   UNL     1      -0.639   9.645  22.888  0.00  0.00    +0.000 A 
ATOM     21  C   UNL     1      -0.582  10.985  22.583  0.00  0.00    +0.000 A 
ATOM     22  C   UNL     1       0.174  11.449  21.533  0.00  0.00    +0.000 A 
ATOM     23  C   UNL     1       0.905  10.591  20.728  0.00  0.00    +0.000 A 
ATOM     24  O   UNL     1       0.105  12.800  21.403  0.00  0.00    +0.000 OA
ATOM     25  C   UNL     1      -0.819  13.129  22.463  0.00  0.00    +0.000 C 
ATOM     26  O   UNL     1      -1.232  11.984  23.235  0.00  0.00    +0.000 OA
ENDBRANCH  16  18
ENDBRANCH   7  14
BRANCH   8  27
ATOM     27  C   UNL     1       1.370   5.360  18.426  0.00  0.00    +0.000 C 
BRANCH  27  28
ATOM     28  C   UNL     1       1.648   4.455  19.607  0.00  0.00    +0.000 A 
ATOM     29  C   UNL     1       2.202   4.895  20.818  0.00  0.00    +0.000 A 
ATOM     30  C   UNL     1       2.530   3.982  21.825  0.00  0.00    +0.000 A 
ATOM     31  C   UNL     1       2.294   2.620  21.646  0.00  0.00    +0.000 A 
ATOM     32  C   UNL     1       1.702   2.170  20.471  0.00  0.00    +0.000 A 
ATOM     33  C   UNL     1       1.375   3.081  19.463  0.00  0.00    +0.000 A 
ENDBRANCH  27  28
ENDBRANCH   8  27
TORSDOF 4
ENDMDL
MODEL 5
REMARK VINA RESULT:      -8.1      2.817      8.977
REMARK  Name = 
REMARK  6 active torsions:
REMARK  status: ('A' for Active; 'I' for Inactive)
REMARK    1  A    between atoms: C_1  and  N_2
REMARK    2  A    between atoms: C_7  and  C_8
REMARK    3  A    between atoms: N_10  and  C_11
REMARK    4  A    between atoms: N_20  and  C_21
REMARK    5  A    between atoms: C_21  and  C_22
REMARK    6  A    between atoms: N_29  and  C_30
REMARK                            x       y       z     vdW  Elec       q    Type
REMARK                         _______ _______ _______ _____ _____    ______ ____
ROOT
ATOM      1  C   UNL     1       7.488   4.942  16.017  0.00  0.00    +0.000 C 
ATOM      2  N   UNL     1       6.150   5.224  16.504  0.00  0.00    +0.000 N 
ATOM      3  C   UNL     1       5.884   6.505  16.964  0.00  0.00    +0.000 A 
ATOM      4  O   UNL     1       6.700   7.423  16.991  0.00  0.00    +0.000 OA
ATOM      5  C   UNL     1       4.538   6.690  17.442  0.00  0.00    +0.000 A 
ATOM      6  C   UNL     1       3.933   7.842  17.972  0.00  0.00    +0.000 A 
ATOM      7  C   UNL     1       2.624   7.536  18.311  0.00  0.00    +0.000 A 
ATOM      8  N   UNL     1       2.441   6.174  17.990  0.00  0.00    +0.000 N 
ATOM      9  C   UNL     1       3.605   5.684  17.400  0.00  0.00    +0.000 A 
ATOM     10  N   UNL     1       3.898   4.433  16.850  0.00  0.00    +0.000 N 
ATOM     11  C   UNL     1       2.963   3.353  16.590  0.00  0.00    +0.000 C 
ATOM     12  C   UNL     1       5.229   4.172  16.450  0.00  0.00    +0.000 A 
ATOM     13  O   UNL     1       5.573   3.054  16.053  0.00  0.00    +0.000 OA
ENDROOT
BRANCH   7  14
ATOM     14  C   UNL     1       1.616   8.445  18.866  0.00  0.00    +0.000 C 
ATOM     15  O   UNL     1       1.409   8.538  20.070  0.00  0.00    +0.000 OA
ATOM     16  N   UNL     1       0.964   9.215  17.912  0.00  0.00    +0.000 N 
ATOM     17  H   UNL     1       1.384   9.245  16.993  0.00  0.00    +0.000 HD
BRANCH  16  18
ATOM     18  C   UNL     1      -0.151  10.063  18.106  0.00  0.00    +0.000 A 
ATOM     19  C   UNL     1      -0.116  11.207  18.929  0.00  0.00    +0.000 A 
ATOM     20  C   UNL     1      -1.261  11.995  19.121  0.00  0.00    +0.000 A 
ATOM     21  C   UNL     1      -2.418  11.622  18.477  0.00  0.00    +0.000 A 
ATOM     22  C   UNL     1      -2.465  10.508  17.675  0.00  0.00    +0.000 A 
ATOM     23  C   UNL     1      -1.353   9.704  17.483  0.00  0.00    +0.000 A 
ATOM     24  O   UNL     1      -3.692  10.317  17.124  0.00  0.00    +0.000 OA
ATOM     25  C   UNL     1      -4.428  11.413  17.711  0.00  0.00    +0.000 C 
ATOM     26  O   UNL     1      -3.615  12.264  18.543  0.00  0.00    +0.000 OA
ENDBRANCH  16  18
ENDBRANCH   7  14
BRANCH   8  27
ATOM     27  C   UNL     1       1.307   5.382  18.498  0.00  0.00    +0.000 C 
BRANCH  27  28
ATOM     28  C   UNL     1       1.569   4.516  19.712  0.00  0.00    +0.000 A 
ATOM     29  C   UNL     1       2.385   4.897  20.785  0.00  0.00    +0.000 A 
ATOM     30  C   UNL     1       2.666   4.001  21.822  0.00  0.00    +0.000 A 
ATOM     31  C   UNL     1       2.122   2.718  21.811  0.00  0.00    +0.000 A 
ATOM     32  C   UNL     1       1.271   2.338  20.779  0.00  0.00    +0.000 A 
ATOM     33  C   UNL     1       0.991   3.231  19.742  0.00  0.00    +0.000 A 
ENDBRANCH  27  28
ENDBRANCH   8  27
TORSDOF 4
ENDMDL
MODEL 6
REMARK VINA RESULT:      -8.0      1.228      1.884
REMARK  Name = 
REMARK  6 active torsions:
REMARK  status: ('A' for Active; 'I' for Inactive)
REMARK    1  A    between atoms: C_1  and  N_2
REMARK    2  A    between atoms: C_7  and  C_8
REMARK    3  A    between atoms: N_10  and  C_11
REMARK    4  A    between atoms: N_20  and  C_21
REMARK    5  A    between atoms: C_21  and  C_22
REMARK    6  A    between atoms: N_29  and  C_30
REMARK                            x       y       z     vdW  Elec       q    Type
REMARK                         _______ _______ _______ _____ _____    ______ ____
ROOT
ATOM      1  C   UNL     1       2.075  16.232  19.954  0.00  0.00    +0.000 C 
ATOM      2  N   UNL     1       1.621  14.862  19.798  0.00  0.00    +0.000 N 
ATOM      3  C   UNL     1       2.383  14.010  19.014  0.00  0.00    +0.000 A 
ATOM      4  O   UNL     1       3.420  14.330  18.437  0.00  0.00    +0.000 OA
ATOM      5  C   UNL     1       1.849  12.677  18.904  0.00  0.00    +0.000 A 
ATOM      6  C   UNL     1       2.355  11.573  18.198  0.00  0.00    +0.000 A 
ATOM      7  C   UNL     1       1.489  10.504  18.374  0.00  0.00    +0.000 A 
ATOM      8  N   UNL     1       0.439  10.977  19.189  0.00  0.00    +0.000 N 
ATOM      9  C   UNL     1       0.705  12.294  19.558  0.00  0.00    +0.000 A 
ATOM     10  N   UNL     1       0.016  13.166  20.405  0.00  0.00    +0.000 N 
ATOM     11  C   UNL     1      -1.094  12.838  21.280  0.00  0.00    +0.000 C 
ATOM     12  C   UNL     1       0.448  14.511  20.476  0.00  0.00    +0.000 A 
ATOM     13  O   UNL     1      -0.181  15.354  21.125  0.00  0.00    +0.000 OA
ENDROOT
BRANCH   7  14
ATOM     14  C   UNL     1       1.640   9.145  17.844  0.00  0.00    +0.000 C 
ATOM     15  O   UNL     1       0.779   8.609  17.156  0.00  0.00    +0.000 OA
ATOM     16  N   UNL     1       2.857   8.551  18.153  0.00  0.00    +0.000 N 
ATOM     17  H   UNL     1       3.584   9.164  18.499  0.00  0.00    +0.000 HD
BRANCH  16  18
ATOM     18  C   UNL     1       3.243   7.210  17.925  0.00  0.00    +0.000 A 
ATOM     19  C   UNL     1       4.329   6.849  17.102  0.00  0.00    +0.000 A 
ATOM     20  C   UNL     1       4.647   5.501  16.875  0.00  0.00    +0.000 A 
ATOM     21  C   UNL     1       3.872   4.541  17.484  0.00  0.00    +0.000 A 
ATOM     22  C   UNL     1       2.810   4.881  18.286  0.00  0.00    +0.000 A 
ATOM     23  C   UNL     1       2.464   6.204  18.512  0.00  0.00    +0.000 A 
ATOM     24  O   UNL     1       2.179   3.793  18.800  0.00  0.00    +0.000 OA
ATOM     25  C   UNL     1       2.937   2.725  18.190  0.00  0.00    +0.000 C 
ATOM     26  O   UNL     1       4.034   3.196  17.381  0.00  0.00    +0.000 OA
ENDBRANCH  16  18
ENDBRANCH   7  14
BRANCH   8  27
ATOM     27  C   UNL     1      -0.840  10.259  19.335  0.00  0.00    +0.000 C 
BRANCH  27  28
ATOM     28  C   UNL     1      -1.928  10.595  18.337  0.00  0.00    +0.000 A 
ATOM     29  C   UNL     1      -2.965  11.504  18.585  0.00  0.00    +0.000 A 
ATOM     30  C   UNL     1      -3.995  11.682  17.656  0.00  0.00    +0.000 A 
ATOM     31  C   UNL     1      -3.996  10.969  16.459  0.00  0.00    +0.000 A 
ATOM     32  C   UNL     1      -2.950  10.097  16.174  0.00  0.00    +0.000 A 
ATOM     33  C   UNL     1      -1.921   9.917  17.102  0.00  0.00    +0.000 A 
ENDBRANCH  27  28
ENDBRANCH   8  27
TORSDOF 4
ENDMDL
MODEL 7
REMARK VINA RESULT:      -7.9      1.142      1.418
REMARK  Name = 
REMARK  6 active torsions:
REMARK  status: ('A' for Active; 'I' for Inactive)
REMARK    1  A    between atoms: C_1  and  N_2
REMARK    2  A    between atoms: C_7  and  C_8
REMARK    3  A    between atoms: N_10  and  C_11
REMARK    4  A    between atoms: N_20  and  C_21
REMARK    5  A    between atoms: C_21  and  C_22
REMARK    6  A    between atoms: N_29  and  C_30
REMARK                            x       y       z     vdW  Elec       q    Type
REMARK                         _______ _______ _______ _____ _____    ______ ____
ROOT
ATOM      1  C   UNL     1       2.192  16.290  20.178  0.00  0.00    +0.000 C 
ATOM      2  N   UNL     1       1.730  14.925  20.007  0.00  0.00    +0.000 N 
ATOM      3  C   UNL     1       2.438  14.104  19.142  0.00  0.00    +0.000 A 
ATOM      4  O   UNL     1       3.431  14.447  18.506  0.00  0.00    +0.000 OA
ATOM      5  C   UNL     1       1.899  12.774  19.023  0.00  0.00    +0.000 A 
ATOM      6  C   UNL     1       2.356  11.696  18.245  0.00  0.00    +0.000 A 
ATOM      7  C   UNL     1       1.507  10.618  18.443  0.00  0.00    +0.000 A 
ATOM      8  N   UNL     1       0.515  11.058  19.345  0.00  0.00    +0.000 N 
ATOM      9  C   UNL     1       0.804  12.363  19.741  0.00  0.00    +0.000 A 
ATOM     10  N   UNL     1       0.174  13.202  20.664  0.00  0.00    +0.000 N 
ATOM     11  C   UNL     1      -0.872  12.839  21.602  0.00  0.00    +0.000 C 
ATOM     12  C   UNL     1       0.608  14.545  20.752  0.00  0.00    +0.000 A 
ATOM     13  O   UNL     1       0.024  15.363  21.472  0.00  0.00    +0.000 OA
ENDROOT
BRANCH   7  14
ATOM     14  C   UNL     1       1.623   9.279  17.857  0.00  0.00    +0.000 C 
ATOM     15  O   UNL     1       0.772   8.814  17.108  0.00  0.00    +0.000 OA
ATOM     16  N   UNL     1       2.798   8.617  18.190  0.00  0.00    +0.000 N 
ATOM     17  H   UNL     1       3.533   9.181  18.595  0.00  0.00    +0.000 HD
BRANCH  16  18
ATOM     18  C   UNL     1       3.135   7.272  17.915  0.00  0.00    +0.000 A 
ATOM     19  C   UNL     1       2.420   6.175  18.438  0.00  0.00    +0.000 A 
ATOM     20  C   UNL     1       2.819   4.857  18.168  0.00  0.00    +0.000 A 
ATOM     21  C   UNL     1       3.924   4.665  17.371  0.00  0.00    +0.000 A 
ATOM     22  C   UNL     1       4.630   5.727  16.858  0.00  0.00    +0.000 A 
ATOM     23  C   UNL     1       4.268   7.037  17.124  0.00  0.00    +0.000 A 
ATOM     24  O   UNL     1       5.679   5.329  16.091  0.00  0.00    +0.000 OA
ATOM     25  C   UNL     1       5.582   3.894  16.220  0.00  0.00    +0.000 C 
ATOM     26  O   UNL     1       4.450   3.467  17.004  0.00  0.00    +0.000 OA
ENDBRANCH  16  18
ENDBRANCH   7  14
BRANCH   8  27
ATOM     27  C   UNL     1      -0.749  10.331  19.555  0.00  0.00    +0.000 C 
BRANCH  27  28
ATOM     28  C   UNL     1      -1.889  10.661  18.615  0.00  0.00    +0.000 A 
ATOM     29  C   UNL     1      -2.867  11.631  18.880  0.00  0.00    +0.000 A 
ATOM     30  C   UNL     1      -3.951  11.805  18.014  0.00  0.00    +0.000 A 
ATOM     31  C   UNL     1      -4.067  11.028  16.863  0.00  0.00    +0.000 A 
ATOM     32  C   UNL     1      -3.082  10.094  16.559  0.00  0.00    +0.000 A 
ATOM     33  C   UNL     1      -1.999   9.918  17.424  0.00  0.00    +0.000 A 
ENDBRANCH  27  28
ENDBRANCH   8  27
TORSDOF 4
ENDMDL
MODEL 8
REMARK VINA RESULT:      -7.8      2.057      4.581
REMARK  Name = 
REMARK  6 active torsions:
REMARK  status: ('A' for Active; 'I' for Inactive)
REMARK    1  A    between atoms: C_1  and  N_2
REMARK    2  A    between atoms: C_7  and  C_8
REMARK    3  A    between atoms: N_10  and  C_11
REMARK    4  A    between atoms: N_20  and  C_21
REMARK    5  A    between atoms: C_21  and  C_22
REMARK    6  A    between atoms: N_29  and  C_30
REMARK                            x       y       z     vdW  Elec       q    Type
REMARK                         _______ _______ _______ _____ _____    ______ ____
ROOT
ATOM      1  C   UNL     1      -5.487  11.415  18.193  0.00  0.00    +0.000 C 
ATOM      2  N   UNL     1      -4.058  11.366  18.443  0.00  0.00    +0.000 N 
ATOM      3  C   UNL     1      -3.320  10.383  17.799  0.00  0.00    +0.000 A 
ATOM      4  O   UNL     1      -3.788   9.547  17.031  0.00  0.00    +0.000 OA
ATOM      5  C   UNL     1      -1.916  10.400  18.118  0.00  0.00    +0.000 A 
ATOM      6  C   UNL     1      -0.889   9.559  17.655  0.00  0.00    +0.000 A 
ATOM      7  C   UNL     1       0.301   9.947  18.250  0.00  0.00    +0.000 A 
ATOM      8  N   UNL     1      -0.017  11.032  19.095  0.00  0.00    +0.000 N 
ATOM      9  C   UNL     1      -1.369  11.339  18.956  0.00  0.00    +0.000 A 
ATOM     10  N   UNL     1      -2.140  12.361  19.516  0.00  0.00    +0.000 N 
ATOM     11  C   UNL     1      -1.659  13.504  20.270  0.00  0.00    +0.000 C 
ATOM     12  C   UNL     1      -3.539  12.336  19.307  0.00  0.00    +0.000 A 
ATOM     13  O   UNL     1      -4.285  13.151  19.860  0.00  0.00    +0.000 OA
ENDROOT
BRANCH   7  14
ATOM     14  C   UNL     1       1.631   9.370  18.032  0.00  0.00    +0.000 C 
ATOM     15  O   UNL     1       2.516   9.968  17.431  0.00  0.00    +0.000 OA
ATOM     16  N   UNL     1       1.804   8.118  18.607  0.00  0.00    +0.000 N 
ATOM     17  H   UNL     1       1.110   7.834  19.286  0.00  0.00    +0.000 HD
BRANCH  16  18
ATOM     18  C   UNL     1       2.903   7.243  18.449  0.00  0.00    +0.000 A 
ATOM     19  C   UNL     1       3.226   6.234  19.379  0.00  0.00    +0.000 A 
ATOM     20  C   UNL     1       4.352   5.415  19.196  0.00  0.00    +0.000 A 
ATOM     21  C   UNL     1       5.128   5.623  18.079  0.00  0.00    +0.000 A 
ATOM     22  C   UNL     1       4.824   6.605  17.168  0.00  0.00    +0.000 A 
ATOM     23  C   UNL     1       3.729   7.437  17.334  0.00  0.00    +0.000 A 
ATOM     24  O   UNL     1       5.705   6.642  16.133  0.00  0.00    +0.000 OA
ATOM     25  C   UNL     1       6.627   5.601  16.523  0.00  0.00    +0.000 C 
ATOM     26  O   UNL     1       6.246   4.929  17.740  0.00  0.00    +0.000 OA
ENDBRANCH  16  18
ENDBRANCH   7  14
BRANCH   8  27
ATOM     27  C   UNL     1       0.895  11.514  20.148  0.00  0.00    +0.000 C 
BRANCH  27  28
ATOM     28  C   UNL     1       1.765  12.704  19.804  0.00  0.00    +0.000 A 
ATOM     29  C   UNL     1       2.030  13.130  18.495  0.00  0.00    +0.000 A 
ATOM     30  C   UNL     1       2.930  14.172  18.252  0.00  0.00    +0.000 A 
ATOM     31  C   UNL     1       3.565  14.817  19.312  0.00  0.00    +0.000 A 
ATOM     32  C   UNL     1       3.279  14.441  20.620  0.00  0.00    +0.000 A 
ATOM     33  C   UNL     1       2.381  13.399  20.864  0.00  0.00    +0.000 A 
ENDBRANCH  27  28
ENDBRANCH   8  27
TORSDOF 4
ENDMDL
MODEL 9
REMARK VINA RESULT:      -7.8      2.588      4.648
REMARK  Name = 
REMARK  6 active torsions:
REMARK  status: ('A' for Active; 'I' for Inactive)
REMARK    1  A    between atoms: C_1  and  N_2
REMARK    2  A    between atoms: C_7  and  C_8
REMARK    3  A    between atoms: N_10  and  C_11
REMARK    4  A    between atoms: N_20  and  C_21
REMARK    5  A    between atoms: C_21  and  C_22
REMARK    6  A    between atoms: N_29  and  C_30
REMARK                            x       y       z     vdW  Elec       q    Type
REMARK                         _______ _______ _______ _____ _____    ______ ____
ROOT
ATOM      1  C   UNL     1      -5.896  11.365  17.810  0.00  0.00    +0.000 C 
ATOM      2  N   UNL     1      -4.480  11.364  18.128  0.00  0.00    +0.000 N 
ATOM      3  C   UNL     1      -3.671  10.436  17.489  0.00  0.00    +0.000 A 
ATOM      4  O   UNL     1      -4.066   9.610  16.670  0.00  0.00    +0.000 OA
ATOM      5  C   UNL     1      -2.286  10.497  17.878  0.00  0.00    +0.000 A 
ATOM      6  C   UNL     1      -1.204   9.716  17.438  0.00  0.00    +0.000 A 
ATOM      7  C   UNL     1      -0.061  10.130  18.105  0.00  0.00    +0.000 A 
ATOM      8  N   UNL     1      -0.465  11.170  18.970  0.00  0.00    +0.000 N 
ATOM      9  C   UNL     1      -1.820  11.427  18.774  0.00  0.00    +0.000 A 
ATOM     10  N   UNL     1      -2.660  12.396  19.329  0.00  0.00    +0.000 N 
ATOM     11  C   UNL     1      -2.264  13.530  20.146  0.00  0.00    +0.000 C 
ATOM     12  C   UNL     1      -4.044  12.322  19.050  0.00  0.00    +0.000 A 
ATOM     13  O   UNL     1      -4.850  13.086  19.593  0.00  0.00    +0.000 OA
ENDROOT
BRANCH   7  14
ATOM     14  C   UNL     1       1.301   9.616  17.934  0.00  0.00    +0.000 C 
ATOM     15  O   UNL     1       2.201  10.289  17.446  0.00  0.00    +0.000 OA
ATOM     16  N   UNL     1       1.482   8.326  18.418  0.00  0.00    +0.000 N 
ATOM     17  H   UNL     1       0.755   7.965  19.022  0.00  0.00    +0.000 HD
BRANCH  16  18
ATOM     18  C   UNL     1       2.621   7.502  18.266  0.00  0.00    +0.000 A 
ATOM     19  C   UNL     1       3.592   7.705  17.264  0.00  0.00    +0.000 A 
ATOM     20  C   UNL     1       4.685   6.835  17.130  0.00  0.00    +0.000 A 
ATOM     21  C   UNL     1       4.785   5.782  18.010  0.00  0.00    +0.000 A 
ATOM     22  C   UNL     1       3.844   5.573  18.988  0.00  0.00    +0.000 A 
ATOM     23  C   UNL     1       2.746   6.407  19.131  0.00  0.00    +0.000 A 
ATOM     24  O   UNL     1       4.127   4.490  19.758  0.00  0.00    +0.000 OA
ATOM     25  C   UNL     1       5.332   4.010  19.120  0.00  0.00    +0.000 C 
ATOM     26  O   UNL     1       5.772   4.847  18.032  0.00  0.00    +0.000 OA
ENDBRANCH  16  18
ENDBRANCH   7  14
BRANCH   8  27
ATOM     27  C   UNL     1       0.373  11.650  20.083  0.00  0.00    +0.000 C 
BRANCH  27  28
ATOM     28  C   UNL     1       0.340  10.839  21.361  0.00  0.00    +0.000 A 
ATOM     29  C   UNL     1       1.235   9.801  21.654  0.00  0.00    +0.000 A 
ATOM     30  C   UNL     1       1.075   9.026  22.808  0.00  0.00    +0.000 A 
ATOM     31  C   UNL     1       0.031   9.287  23.693  0.00  0.00    +0.000 A 
ATOM     32  C   UNL     1      -0.838  10.343  23.444  0.00  0.00    +0.000 A 
ATOM     33  C   UNL     1      -0.681  11.117  22.292  0.00  0.00    +0.000 A 
ENDBRANCH  27  28
ENDBRANCH   8  27
TORSDOF 4
ENDMDL
