MODEL 1
REMARK VINA RESULT:      -8.8      0.000      0.000
REMARK  Name = 
REMARK  4 active torsions:
REMARK  status: ('A' for Active; 'I' for Inactive)
REMARK    1  A    between atoms: C_4  and  C_5
REMARK    2  A    between atoms: N_7  and  C_8
REMARK    3  A    between atoms: N_12  and  C_13
REMARK    4  A    between atoms: C_13  and  C_14
REMARK                            x       y       z     vdW  Elec       q    Type
REMARK                         _______ _______ _______ _____ _____    ______ ____
ROOT
ATOM      1  C   UNL     1       2.962   5.809  18.045  0.00  0.00    +0.000 C 
ATOM      2  O   UNL     1       1.835   5.339  17.931  0.00  0.00    +0.000 OA
ATOM      3  N   UNL     1       3.180   6.958  18.909  0.00  0.00    +0.000 N 
ATOM      4  H   UNL     1       4.101   7.385  18.932  0.00  0.00    +0.000 HD
ENDROOT
BRANCH   1   8
ATOM      5  O   UNL     1       4.055   2.247  19.193  0.00  0.00    +0.000 OA
ATOM      6  C   UNL     1       4.529   3.247  18.666  0.00  0.00    +0.000 C 
ATOM      7  C   UNL     1       4.103   3.724  17.295  0.00  0.00    +0.000 C 
ATOM      8  C   UNL     1       4.128   5.251  17.229  0.00  0.00    +0.000 C 
ATOM      9  C   UNL     1       5.498   5.729  17.632  0.00  0.00    +0.000 A 
ATOM     10  C   UNL     1       6.116   6.819  17.010  0.00  0.00    +0.000 A 
ATOM     11  C   UNL     1       7.370   7.245  17.449  0.00  0.00    +0.000 A 
ATOM     12  C   UNL     1       7.999   6.599  18.516  0.00  0.00    +0.000 A 
ATOM     13  C   UNL     1       7.386   5.512  19.143  0.00  0.00    +0.000 A 
ATOM     14  C   UNL     1       6.152   5.066  18.679  0.00  0.00    +0.000 A 
ATOM     15  N   UNL     1       5.546   3.950  19.258  0.00  0.00    +0.000 N 
ATOM     16  H   UNL     1       5.935   3.531  20.097  0.00  0.00    +0.000 HD
ENDBRANCH   1   8
BRANCH   3  17
ATOM     17  C   UNL     1       2.180   7.493  19.736  0.00  0.00    +0.000 A 
ATOM     18  C   UNL     1       1.672   6.938  20.895  0.00  0.00    +0.000 A 
ATOM     19  C   UNL     1       0.686   7.828  21.350  0.00  0.00    +0.000 A 
ATOM     20  N   UNL     1       0.572   8.895  20.564  0.00  0.00    +0.000 NA
ATOM     21  N   UNL     1       1.487   8.687  19.587  0.00  0.00    +0.000 N 
BRANCH  21  22
ATOM     22  C   UNL     1       1.433   9.577  18.434  0.00  0.00    +0.000 C 
BRANCH  22  23
ATOM     23  C   UNL     1       0.209  10.469  18.413  0.00  0.00    +0.000 A 
ATOM     24  C   UNL     1      -0.985  10.006  17.830  0.00  0.00    +0.000 A 
ATOM     25  C   UNL     1      -2.103  10.842  17.723  0.00  0.00    +0.000 A 
ATOM     26  C   UNL     1      -2.054  12.151  18.194  0.00  0.00    +0.000 A 
ATOM     27  C   UNL     1      -0.891  12.622  18.798  0.00  0.00    +0.000 A 
ATOM     28 CL   UNL     1      -0.883  14.257  19.365  0.00  0.00    +0.000 Cl
ATOM     29  C   UNL     1       0.228  11.781  18.917  0.00  0.00    +0.000 A 
ATOM     30 CL   UNL     1       1.657  12.341  19.679  0.00  0.00    +0.000 Cl
ENDBRANCH  22  23
ENDBRANCH  21  22
ENDBRANCH   3  17
TORSDOF 4
ENDMDL
MODEL 2
REMARK VINA RESULT:      -8.6      2.212      3.179
REMARK  Name = 
REMARK  4 active torsions:
REMARK  status: ('A' for Active; 'I' for Inactive)
REMARK    1  A    between atoms: C_4  and  C_5
REMARK    2  A    between atoms: N_7  and  C_8
REMARK    3  A    between atoms: N_12  and  C_13
REMARK    4  A    between atoms: C_13  and  C_14
REMARK                            x       y       z     vdW  Elec       q    Type
REMARK                         _______ _______ _______ _____ _____    ______ ____
ROOT
ATOM      1  C   UNL     1       2.199   7.980  18.461  0.00  0.00    +0.000 C 
ATOM      2  O   UNL     1       2.139   8.081  19.681  0.00  0.00    +0.000 OA
ATOM      3  N   UNL     1       1.814   9.106  17.625  0.00  0.00    +0.000 N 
ATOM      4  H   UNL     1       1.793   8.983  16.617  0.00  0.00    +0.000 HD
ENDROOT
BRANCH   1   8
ATOM      5  O   UNL     1       1.624   4.897  20.776  0.00  0.00    +0.000 OA
ATOM      6  C   UNL     1       2.349   5.253  19.855  0.00  0.00    +0.000 C 
ATOM      7  C   UNL     1       1.824   5.516  18.460  0.00  0.00    +0.000 C 
ATOM      8  C   UNL     1       2.599   6.660  17.805  0.00  0.00    +0.000 C 
ATOM      9  C   UNL     1       4.069   6.328  17.840  0.00  0.00    +0.000 A 
ATOM     10  C   UNL     1       4.926   6.644  16.781  0.00  0.00    +0.000 A 
ATOM     11  C   UNL     1       6.286   6.351  16.882  0.00  0.00    +0.000 A 
ATOM     12  C   UNL     1       6.794   5.759  18.041  0.00  0.00    +0.000 A 
ATOM     13  C   UNL     1       5.944   5.444  19.103  0.00  0.00    +0.000 A 
ATOM     14  C   UNL     1       4.582   5.704  18.985  0.00  0.00    +0.000 A 
ATOM     15  N   UNL     1       3.707   5.350  20.013  0.00  0.00    +0.000 N 
ATOM     16  H   UNL     1       4.067   5.016  20.902  0.00  0.00    +0.000 HD
ENDBRANCH   1   8
BRANCH   3  17
ATOM     17  C   UNL     1       1.492  10.369  18.144  0.00  0.00    +0.000 A 
ATOM     18  C   UNL     1       2.348  11.439  18.325  0.00  0.00    +0.000 A 
ATOM     19  C   UNL     1       1.571  12.465  18.886  0.00  0.00    +0.000 A 
ATOM     20  N   UNL     1       0.301  12.106  19.041  0.00  0.00    +0.000 NA
ATOM     21  N   UNL     1       0.258  10.832  18.583  0.00  0.00    +0.000 N 
BRANCH  21  22
ATOM     22  C   UNL     1      -0.961  10.077  18.846  0.00  0.00    +0.000 C 
BRANCH  22  23
ATOM     23  C   UNL     1      -2.035  10.276  17.798  0.00  0.00    +0.000 A 
ATOM     24  C   UNL     1      -1.936   9.614  16.560  0.00  0.00    +0.000 A 
ATOM     25  C   UNL     1      -2.870   9.847  15.544  0.00  0.00    +0.000 A 
ATOM     26  C   UNL     1      -3.919  10.740  15.740  0.00  0.00    +0.000 A 
ATOM     27  C   UNL     1      -4.052  11.387  16.966  0.00  0.00    +0.000 A 
ATOM     28 CL   UNL     1      -5.373  12.488  17.157  0.00  0.00    +0.000 Cl
ATOM     29  C   UNL     1      -3.122  11.146  17.991  0.00  0.00    +0.000 A 
ATOM     30 CL   UNL     1      -3.288  11.917  19.512  0.00  0.00    +0.000 Cl
ENDBRANCH  22  23
ENDBRANCH  21  22
ENDBRANCH   3  17
TORSDOF 4
ENDMDL
MODEL 3
REMARK VINA RESULT:      -8.5      0.890      1.026
REMARK  Name = 
REMARK  4 active torsions:
REMARK  status: ('A' for Active; 'I' for Inactive)
REMARK    1  A    between atoms: C_4  and  C_5
REMARK    2  A    between atoms: N_7  and  C_8
REMARK    3  A    between atoms: N_12  and  C_13
REMARK    4  A    between atoms: C_13  and  C_14
REMARK                            x       y       z     vdW  Elec       q    Type
REMARK                         _______ _______ _______ _____ _____    ______ ____
ROOT
ATOM      1  C   UNL     1       2.469   5.038  18.537  0.00  0.00    +0.000 C 
ATOM      2  O   UNL     1       1.461   4.571  19.056  0.00  0.00    +0.000 OA
ATOM      3  N   UNL     1       2.815   6.432  18.763  0.00  0.00    +0.000 N 
ATOM      4  H   UNL     1       3.606   6.828  18.264  0.00  0.00    +0.000 HD
ENDROOT
BRANCH   1   8
ATOM      5  O   UNL     1       4.256   2.077  20.334  0.00  0.00    +0.000 OA
ATOM      6  C   UNL     1       4.409   2.814  19.367  0.00  0.00    +0.000 C 
ATOM      7  C   UNL     1       3.482   2.790  18.171  0.00  0.00    +0.000 C 
ATOM      8  C   UNL     1       3.324   4.197  17.591  0.00  0.00    +0.000 C 
ATOM      9  C   UNL     1       4.691   4.745  17.279  0.00  0.00    +0.000 A 
ATOM     10  C   UNL     1       4.935   5.529  16.146  0.00  0.00    +0.000 A 
ATOM     11  C   UNL     1       6.212   6.046  15.925  0.00  0.00    +0.000 A 
ATOM     12  C   UNL     1       7.240   5.797  16.839  0.00  0.00    +0.000 A 
ATOM     13  C   UNL     1       7.002   5.017  17.973  0.00  0.00    +0.000 A 
ATOM     14  C   UNL     1       5.736   4.473  18.172  0.00  0.00    +0.000 A 
ATOM     15  N   UNL     1       5.491   3.650  19.271  0.00  0.00    +0.000 N 
ATOM     16  H   UNL     1       6.191   3.541  19.998  0.00  0.00    +0.000 HD
ENDBRANCH   1   8
BRANCH   3  17
ATOM     17  C   UNL     1       2.120   7.257  19.661  0.00  0.00    +0.000 A 
ATOM     18  C   UNL     1       1.766   6.959  20.964  0.00  0.00    +0.000 A 
ATOM     19  C   UNL     1       1.073   8.082  21.442  0.00  0.00    +0.000 A 
ATOM     20  N   UNL     1       0.997   9.050  20.534  0.00  0.00    +0.000 NA
ATOM     21  N   UNL     1       1.640   8.544  19.455  0.00  0.00    +0.000 N 
BRANCH  21  22
ATOM     22  C   UNL     1       1.516   9.286  18.206  0.00  0.00    +0.000 C 
BRANCH  22  23
ATOM     23  C   UNL     1       0.347  10.248  18.186  0.00  0.00    +0.000 A 
ATOM     24  C   UNL     1      -0.923   9.798  17.782  0.00  0.00    +0.000 A 
ATOM     25  C   UNL     1      -1.999  10.687  17.673  0.00  0.00    +0.000 A 
ATOM     26  C   UNL     1      -1.832  12.037  17.966  0.00  0.00    +0.000 A 
ATOM     27  C   UNL     1      -0.590  12.500  18.395  0.00  0.00    +0.000 A 
ATOM     28 CL   UNL     1      -0.437  14.187  18.745  0.00  0.00    +0.000 Cl
ATOM     29  C   UNL     1       0.487  11.607  18.515  0.00  0.00    +0.000 A 
ATOM     30 CL   UNL     1       2.014  12.160  19.062  0.00  0.00    +0.000 Cl
ENDBRANCH  22  23
ENDBRANCH  21  22
ENDBRANCH   3  17
TORSDOF 4
ENDMDL
MODEL 4
REMARK VINA RESULT:      -8.4      1.253      1.570
REMARK  Name = 
REMARK  4 active torsions:
REMARK  status: ('A' for Active; 'I' for Inactive)
REMARK    1  A    between atoms: C_4  and  C_5
REMARK    2  A    between atoms: N_7  and  C_8
REMARK    3  A    between atoms: N_12  and  C_13
REMARK    4  A    between atoms: C_13  and  C_14
REMARK                            x       y       z     vdW  Elec       q    Type
REMARK                         _______ _______ _______ _____ _____    ______ ____
ROOT
ATOM      1  C   UNL     1       2.896   5.873  18.223  0.00  0.00    +0.000 C 
ATOM      2  O   UNL     1       1.881   5.208  18.403  0.00  0.00    +0.000 OA
ATOM      3  N   UNL     1       3.005   7.195  18.819  0.00  0.00    +0.000 N 
ATOM      4  H   UNL     1       3.816   7.766  18.597  0.00  0.00    +0.000 HD
ENDROOT
BRANCH   1   8
ATOM      5  O   UNL     1       4.056   2.262  19.125  0.00  0.00    +0.000 OA
ATOM      6  C   UNL     1       4.498   3.290  18.624  0.00  0.00    +0.000 C 
ATOM      7  C   UNL     1       3.996   3.834  17.305  0.00  0.00    +0.000 C 
ATOM      8  C   UNL     1       4.015   5.363  17.316  0.00  0.00    +0.000 C 
ATOM      9  C   UNL     1       5.405   5.826  17.666  0.00  0.00    +0.000 A 
ATOM     10  C   UNL     1       5.986   6.948  17.068  0.00  0.00    +0.000 A 
ATOM     11  C   UNL     1       7.262   7.357  17.457  0.00  0.00    +0.000 A 
ATOM     12  C   UNL     1       7.951   6.660  18.453  0.00  0.00    +0.000 A 
ATOM     13  C   UNL     1       7.375   5.539  19.057  0.00  0.00    +0.000 A 
ATOM     14  C   UNL     1       6.117   5.113  18.640  0.00  0.00    +0.000 A 
ATOM     15  N   UNL     1       5.546   3.966  19.194  0.00  0.00    +0.000 N 
ATOM     16  H   UNL     1       5.982   3.507  19.987  0.00  0.00    +0.000 HD
ENDBRANCH   1   8
BRANCH   3  17
ATOM     17  C   UNL     1       2.053   7.714  19.710  0.00  0.00    +0.000 A 
ATOM     18  C   UNL     1       1.602   7.131  20.879  0.00  0.00    +0.000 A 
ATOM     19  C   UNL     1       0.646   8.015  21.407  0.00  0.00    +0.000 A 
ATOM     20  N   UNL     1       0.499   9.102  20.656  0.00  0.00    +0.000 NA
ATOM     21  N   UNL     1       1.361   8.915  19.628  0.00  0.00    +0.000 N 
BRANCH  21  22
ATOM     22  C   UNL     1       1.253   9.835  18.503  0.00  0.00    +0.000 C 
BRANCH  22  23
ATOM     23  C   UNL     1       0.271  10.964  18.734  0.00  0.00    +0.000 A 
ATOM     24  C   UNL     1       0.666  12.093  19.475  0.00  0.00    +0.000 A 
ATOM     25  C   UNL     1      -0.248  13.111  19.775  0.00  0.00    +0.000 A 
ATOM     26  C   UNL     1      -1.568  13.024  19.342  0.00  0.00    +0.000 A 
ATOM     27  C   UNL     1      -1.973  11.929  18.583  0.00  0.00    +0.000 A 
ATOM     28 CL   UNL     1      -3.625  11.871  18.071  0.00  0.00    +0.000 Cl
ATOM     29  C   UNL     1      -1.055  10.913  18.272  0.00  0.00    +0.000 A 
ATOM     30 CL   UNL     1      -1.535   9.571  17.321  0.00  0.00    +0.000 Cl
ENDBRANCH  22  23
ENDBRANCH  21  22
ENDBRANCH   3  17
TORSDOF 4
ENDMDL
MODEL 5
REMARK VINA RESULT:      -8.4      1.165      1.718
REMARK  Name = 
REMARK  4 active torsions:
REMARK  status: ('A' for Active; 'I' for Inactive)
REMARK    1  A    between atoms: C_4  and  C_5
REMARK    2  A    between atoms: N_7  and  C_8
REMARK    3  A    between atoms: N_12  and  C_13
REMARK    4  A    between atoms: C_13  and  C_14
REMARK                            x       y       z     vdW  Elec       q    Type
REMARK                         _______ _______ _______ _____ _____    ______ ____
ROOT
ATOM      1  C   UNL     1       2.771   5.947  18.501  0.00  0.00    +0.000 C 
ATOM      2  O   UNL     1       1.910   5.219  18.982  0.00  0.00    +0.000 OA
ATOM      3  N   UNL     1       2.751   7.373  18.786  0.00  0.00    +0.000 N 
ATOM      4  H   UNL     1       3.422   7.975  18.318  0.00  0.00    +0.000 HD
ENDROOT
BRANCH   1   8
ATOM      5  O   UNL     1       3.989   2.379  19.491  0.00  0.00    +0.000 OA
ATOM      6  C   UNL     1       4.395   3.379  18.909  0.00  0.00    +0.000 C 
ATOM      7  C   UNL     1       3.799   3.860  17.605  0.00  0.00    +0.000 C 
ATOM      8  C   UNL     1       3.820   5.388  17.540  0.00  0.00    +0.000 C 
ATOM      9  C   UNL     1       5.233   5.860  17.764  0.00  0.00    +0.000 A 
ATOM     10  C   UNL     1       5.770   6.949  17.070  0.00  0.00    +0.000 A 
ATOM     11  C   UNL     1       7.071   7.370  17.345  0.00  0.00    +0.000 A 
ATOM     12  C   UNL     1       7.830   6.719  18.321  0.00  0.00    +0.000 A 
ATOM     13  C   UNL     1       7.299   5.632  19.019  0.00  0.00    +0.000 A 
ATOM     14  C   UNL     1       6.014   5.192  18.717  0.00  0.00    +0.000 A 
ATOM     15  N   UNL     1       5.483   4.077  19.367  0.00  0.00    +0.000 N 
ATOM     16  H   UNL     1       5.975   3.654  20.148  0.00  0.00    +0.000 HD
ENDBRANCH   1   8
BRANCH   3  17
ATOM     17  C   UNL     1       1.862   7.958  19.700  0.00  0.00    +0.000 A 
ATOM     18  C   UNL     1       1.593   7.533  20.988  0.00  0.00    +0.000 A 
ATOM     19  C   UNL     1       0.629   8.421  21.494  0.00  0.00    +0.000 A 
ATOM     20  N   UNL     1       0.309   9.367  20.616  0.00  0.00    +0.000 NA
ATOM     21  N   UNL     1       1.066   9.082  19.530  0.00  0.00    +0.000 N 
BRANCH  21  22
ATOM     22  C   UNL     1       0.758   9.808  18.304  0.00  0.00    +0.000 C 
BRANCH  22  23
ATOM     23  C   UNL     1       1.087  11.285  18.374  0.00  0.00    +0.000 A 
ATOM     24  C   UNL     1       2.404  11.720  18.139  0.00  0.00    +0.000 A 
ATOM     25  C   UNL     1       2.751  13.069  18.282  0.00  0.00    +0.000 A 
ATOM     26  C   UNL     1       1.795  14.007  18.658  0.00  0.00    +0.000 A 
ATOM     27  C   UNL     1       0.479  13.603  18.870  0.00  0.00    +0.000 A 
ATOM     28 CL   UNL     1      -0.669  14.811  19.337  0.00  0.00    +0.000 Cl
ATOM     29  C   UNL     1       0.127  12.253  18.716  0.00  0.00    +0.000 A 
ATOM     30 CL   UNL     1      -1.493  11.746  18.951  0.00  0.00    +0.000 Cl
ENDBRANCH  22  23
ENDBRANCH  21  22
ENDBRANCH   3  17
TORSDOF 4
ENDMDL
MODEL 6
REMARK VINA RESULT:      -8.2      1.540      1.944
REMARK  Name = 
REMARK  4 active torsions:
REMARK  status: ('A' for Active; 'I' for Inactive)
REMARK    1  A    between atoms: C_4  and  C_5
REMARK    2  A    between atoms: N_7  and  C_8
REMARK    3  A    between atoms: N_12  and  C_13
REMARK    4  A    between atoms: C_13  and  C_14
REMARK                            x       y       z     vdW  Elec       q    Type
REMARK                         _______ _______ _______ _____ _____    ______ ____
ROOT
ATOM      1  C   UNL     1       2.413   6.872  19.189  0.00  0.00    +0.000 C 
ATOM      2  O   UNL     1       2.351   6.270  20.255  0.00  0.00    +0.000 OA
ATOM      3  N   UNL     1       1.839   8.204  19.079  0.00  0.00    +0.000 N 
ATOM      4  H   UNL     1       1.827   8.658  18.170  0.00  0.00    +0.000 HD
ENDROOT
BRANCH   1   8
ATOM      5  O   UNL     1       2.379   2.979  19.381  0.00  0.00    +0.000 OA
ATOM      6  C   UNL     1       3.024   3.885  18.867  0.00  0.00    +0.000 C 
ATOM      7  C   UNL     1       2.445   4.797  17.808  0.00  0.00    +0.000 C 
ATOM      8  C   UNL     1       3.015   6.209  17.950  0.00  0.00    +0.000 C 
ATOM      9  C   UNL     1       4.519   6.128  17.916  0.00  0.00    +0.000 A 
ATOM     10  C   UNL     1       5.299   7.096  17.275  0.00  0.00    +0.000 A 
ATOM     11  C   UNL     1       6.690   6.995  17.307  0.00  0.00    +0.000 A 
ATOM     12  C   UNL     1       7.303   5.940  17.989  0.00  0.00    +0.000 A 
ATOM     13  C   UNL     1       6.529   4.972  18.633  0.00  0.00    +0.000 A 
ATOM     14  C   UNL     1       5.142   5.056  18.568  0.00  0.00    +0.000 A 
ATOM     15  N   UNL     1       4.350   4.071  19.160  0.00  0.00    +0.000 N 
ATOM     16  H   UNL     1       4.772   3.356  19.746  0.00  0.00    +0.000 HD
ENDBRANCH   1   8
BRANCH   3  17
ATOM     17  C   UNL     1       1.322   8.906  20.177  0.00  0.00    +0.000 A 
ATOM     18  C   UNL     1       1.212   8.454  21.479  0.00  0.00    +0.000 A 
ATOM     19  C   UNL     1       0.619   9.502  22.203  0.00  0.00    +0.000 A 
ATOM     20  N   UNL     1       0.381  10.566  21.442  0.00  0.00    +0.000 NA
ATOM     21  N   UNL     1       0.814  10.199  20.213  0.00  0.00    +0.000 N 
BRANCH  21  22
ATOM     22  C   UNL     1       0.465  11.075  19.102  0.00  0.00    +0.000 C 
BRANCH  22  23
ATOM     23  C   UNL     1      -0.926  10.834  18.554  0.00  0.00    +0.000 A 
ATOM     24  C   UNL     1      -1.121   9.887  17.532  0.00  0.00    +0.000 A 
ATOM     25  C   UNL     1      -2.382   9.707  16.950  0.00  0.00    +0.000 A 
ATOM     26  C   UNL     1      -3.470  10.463  17.375  0.00  0.00    +0.000 A 
ATOM     27  C   UNL     1      -3.306  11.388  18.404  0.00  0.00    +0.000 A 
ATOM     28 CL   UNL     1      -4.691  12.302  18.893  0.00  0.00    +0.000 Cl
ATOM     29  C   UNL     1      -2.045  11.561  18.996  0.00  0.00    +0.000 A 
ATOM     30 CL   UNL     1      -1.835  12.679  20.278  0.00  0.00    +0.000 Cl
ENDBRANCH  22  23
ENDBRANCH  21  22
ENDBRANCH   3  17
TORSDOF 4
ENDMDL
MODEL 7
REMARK VINA RESULT:      -8.1      1.012      1.124
REMARK  Name = 
REMARK  4 active torsions:
REMARK  status: ('A' for Active; 'I' for Inactive)
REMARK    1  A    between atoms: C_4  and  C_5
REMARK    2  A    between atoms: N_7  and  C_8
REMARK    3  A    between atoms: N_12  and  C_13
REMARK    4  A    between atoms: C_13  and  C_14
REMARK                            x       y       z     vdW  Elec       q    Type
REMARK                         _______ _______ _______ _____ _____    ______ ____
ROOT
ATOM      1  C   UNL     1       2.849   6.099  18.572  0.00  0.00    +0.000 C 
ATOM      2  O   UNL     1       2.214   5.272  19.218  0.00  0.00    +0.000 OA
ATOM      3  N   UNL     1       2.613   7.517  18.790  0.00  0.00    +0.000 N 
ATOM      4  H   UNL     1       3.086   8.190  18.194  0.00  0.00    +0.000 HD
ENDROOT
BRANCH   1   8
ATOM      5  O   UNL     1       3.869   2.349  18.875  0.00  0.00    +0.000 OA
ATOM      6  C   UNL     1       4.319   3.411  18.459  0.00  0.00    +0.000 C 
ATOM      7  C   UNL     1       3.712   4.147  17.285  0.00  0.00    +0.000 C 
ATOM      8  C   UNL     1       3.828   5.659  17.485  0.00  0.00    +0.000 C 
ATOM      9  C   UNL     1       5.275   6.003  17.727  0.00  0.00    +0.000 A 
ATOM     10  C   UNL     1       5.857   7.165  17.211  0.00  0.00    +0.000 A 
ATOM     11  C   UNL     1       7.191   7.456  17.498  0.00  0.00    +0.000 A 
ATOM     12  C   UNL     1       7.938   6.601  18.312  0.00  0.00    +0.000 A 
ATOM     13  C   UNL     1       7.361   5.441  18.833  0.00  0.00    +0.000 A 
ATOM     14  C   UNL     1       6.042   5.135  18.515  0.00  0.00    +0.000 A 
ATOM     15  N   UNL     1       5.462   3.954  18.983  0.00  0.00    +0.000 N 
ATOM     16  H   UNL     1       5.952   3.374  19.657  0.00  0.00    +0.000 HD
ENDBRANCH   1   8
BRANCH   3  17
ATOM     17  C   UNL     1       1.777   8.007  19.805  0.00  0.00    +0.000 A 
ATOM     18  C   UNL     1       1.472   7.390  21.004  0.00  0.00    +0.000 A 
ATOM     19  C   UNL     1       0.588   8.253  21.670  0.00  0.00    +0.000 A 
ATOM     20  N   UNL     1       0.349   9.361  20.974  0.00  0.00    +0.000 NA
ATOM     21  N   UNL     1       1.079   9.207  19.844  0.00  0.00    +0.000 N 
BRANCH  21  22
ATOM     22  C   UNL     1       0.833  10.158  18.766  0.00  0.00    +0.000 C 
BRANCH  22  23
ATOM     23  C   UNL     1      -0.636  10.394  18.488  0.00  0.00    +0.000 A 
ATOM     24  C   UNL     1      -1.289   9.643  17.494  0.00  0.00    +0.000 A 
ATOM     25  C   UNL     1      -2.624   9.901  17.160  0.00  0.00    +0.000 A 
ATOM     26  C   UNL     1      -3.333  10.908  17.809  0.00  0.00    +0.000 A 
ATOM     27  C   UNL     1      -2.714  11.645  18.816  0.00  0.00    +0.000 A 
ATOM     28 CL   UNL     1      -3.640  12.885  19.590  0.00  0.00    +0.000 Cl
ATOM     29  C   UNL     1      -1.379  11.380  19.160  0.00  0.00    +0.000 A 
ATOM     30 CL   UNL     1      -0.614  12.265  20.412  0.00  0.00    +0.000 Cl
ENDBRANCH  22  23
ENDBRANCH  21  22
ENDBRANCH   3  17
TORSDOF 4
ENDMDL
MODEL 8
REMARK VINA RESULT:      -8.1      0.879      1.033
REMARK  Name = 
REMARK  4 active torsions:
REMARK  status: ('A' for Active; 'I' for Inactive)
REMARK    1  A    between atoms: C_4  and  C_5
REMARK    2  A    between atoms: N_7  and  C_8
REMARK    3  A    between atoms: N_12  and  C_13
REMARK    4  A    between atoms: C_13  and  C_14
REMARK                            x       y       z     vdW  Elec       q    Type
REMARK                         _______ _______ _______ _____ _____    ______ ____
ROOT
ATOM      1  C   UNL     1       2.848   5.963  18.385  0.00  0.00    +0.000 C 
ATOM      2  O   UNL     1       1.924   5.242  18.746  0.00  0.00    +0.000 OA
ATOM      3  N   UNL     1       2.878   7.357  18.799  0.00  0.00    +0.000 N 
ATOM      4  H   UNL     1       3.605   7.962  18.429  0.00  0.00    +0.000 HD
ENDROOT
BRANCH   1   8
ATOM      5  O   UNL     1       4.028   2.359  19.286  0.00  0.00    +0.000 OA
ATOM      6  C   UNL     1       4.455   3.378  18.755  0.00  0.00    +0.000 C 
ATOM      7  C   UNL     1       3.903   3.908  17.450  0.00  0.00    +0.000 C 
ATOM      8  C   UNL     1       3.928   5.437  17.442  0.00  0.00    +0.000 C 
ATOM      9  C   UNL     1       5.333   5.897  17.731  0.00  0.00    +0.000 A 
ATOM     10  C   UNL     1       5.895   7.010  17.096  0.00  0.00    +0.000 A 
ATOM     11  C   UNL     1       7.186   7.418  17.430  0.00  0.00    +0.000 A 
ATOM     12  C   UNL     1       7.911   6.730  18.406  0.00  0.00    +0.000 A 
ATOM     13  C   UNL     1       7.355   5.619  19.046  0.00  0.00    +0.000 A 
ATOM     14  C   UNL     1       6.080   5.194  18.684  0.00  0.00    +0.000 A 
ATOM     15  N   UNL     1       5.527   4.056  19.274  0.00  0.00    +0.000 N 
ATOM     16  H   UNL     1       5.992   3.605  20.056  0.00  0.00    +0.000 HD
ENDBRANCH   1   8
BRANCH   3  17
ATOM     17  C   UNL     1       1.961   7.904  19.709  0.00  0.00    +0.000 A 
ATOM     18  C   UNL     1       1.604   7.392  20.943  0.00  0.00    +0.000 A 
ATOM     19  C   UNL     1       0.647   8.276  21.466  0.00  0.00    +0.000 A 
ATOM     20  N   UNL     1       0.411   9.300  20.652  0.00  0.00    +0.000 NA
ATOM     21  N   UNL     1       1.217   9.070  19.588  0.00  0.00    +0.000 N 
BRANCH  21  22
ATOM     22  C   UNL     1       1.005   9.902  18.409  0.00  0.00    +0.000 C 
BRANCH  22  23
ATOM     23  C   UNL     1       0.359  11.237  18.717  0.00  0.00    +0.000 A 
ATOM     24  C   UNL     1      -1.007  11.292  19.052  0.00  0.00    +0.000 A 
ATOM     25  C   UNL     1      -1.646  12.521  19.258  0.00  0.00    +0.000 A 
ATOM     26  C   UNL     1      -0.940  13.714  19.135  0.00  0.00    +0.000 A 
ATOM     27  C   UNL     1       0.419  13.681  18.830  0.00  0.00    +0.000 A 
ATOM     28 CL   UNL     1       1.249  15.193  18.689  0.00  0.00    +0.000 Cl
ATOM     29  C   UNL     1       1.064  12.449  18.635  0.00  0.00    +0.000 A 
ATOM     30 CL   UNL     1       2.740  12.395  18.282  0.00  0.00    +0.000 Cl
ENDBRANCH  22  23
ENDBRANCH  21  22
ENDBRANCH   3  17
TORSDOF 4
ENDMDL
MODEL 9
REMARK VINA RESULT:      -7.9      1.346      1.736
REMARK  Name = 
REMARK  4 active torsions:
REMARK  status: ('A' for Active; 'I' for Inactive)
REMARK    1  A    between atoms: C_4  and  C_5
REMARK    2  A    between atoms: N_7  and  C_8
REMARK    3  A    between atoms: N_12  and  C_13
REMARK    4  A    between atoms: C_13  and  C_14
REMARK                            x       y       z     vdW  Elec       q    Type
REMARK                         _______ _______ _______ _____ _____    ______ ____
ROOT
ATOM      1  C   UNL     1       2.562   5.130  18.143  0.00  0.00    +0.000 C 
ATOM      2  O   UNL     1       1.392   4.791  18.286  0.00  0.00    +0.000 OA
ATOM      3  N   UNL     1       3.031   6.369  18.740  0.00  0.00    +0.000 N 
ATOM      4  H   UNL     1       3.980   6.677  18.548  0.00  0.00    +0.000 HD
ENDROOT
BRANCH   1   8
ATOM      5  O   UNL     1       4.044   2.054  20.023  0.00  0.00    +0.000 OA
ATOM      6  C   UNL     1       4.334   2.825  19.116  0.00  0.00    +0.000 C 
ATOM      7  C   UNL     1       3.568   2.873  17.813  0.00  0.00    +0.000 C 
ATOM      8  C   UNL     1       3.514   4.305  17.278  0.00  0.00    +0.000 C 
ATOM      9  C   UNL     1       4.921   4.831  17.166  0.00  0.00    +0.000 A 
ATOM     10  C   UNL     1       5.324   5.653  16.109  0.00  0.00    +0.000 A 
ATOM     11  C   UNL     1       6.629   6.146  16.075  0.00  0.00    +0.000 A 
ATOM     12  C   UNL     1       7.525   5.835  17.101  0.00  0.00    +0.000 A 
ATOM     13  C   UNL     1       7.128   5.016  18.161  0.00  0.00    +0.000 A 
ATOM     14  C   UNL     1       5.837   4.497  18.173  0.00  0.00    +0.000 A 
ATOM     15  N   UNL     1       5.436   3.636  19.196  0.00  0.00    +0.000 N 
ATOM     16  H   UNL     1       6.035   3.481  20.000  0.00  0.00    +0.000 HD
ENDBRANCH   1   8
BRANCH   3  17
ATOM     17  C   UNL     1       2.242   7.154  19.595  0.00  0.00    +0.000 A 
ATOM     18  C   UNL     1       1.788   6.813  20.856  0.00  0.00    +0.000 A 
ATOM     19  C   UNL     1       1.027   7.907  21.301  0.00  0.00    +0.000 A 
ATOM     20  N   UNL     1       1.003   8.896  20.412  0.00  0.00    +0.000 NA
ATOM     21  N   UNL     1       1.748   8.433  19.380  0.00  0.00    +0.000 N 
BRANCH  21  22
ATOM     22  C   UNL     1       1.709   9.203  18.143  0.00  0.00    +0.000 C 
BRANCH  22  23
ATOM     23  C   UNL     1       1.083  10.574  18.300  0.00  0.00    +0.000 A 
ATOM     24  C   UNL     1       1.900  11.690  18.560  0.00  0.00    +0.000 A 
ATOM     25  C   UNL     1       1.339  12.951  18.794  0.00  0.00    +0.000 A 
ATOM     26  C   UNL     1      -0.042  13.125  18.772  0.00  0.00    +0.000 A 
ATOM     27  C   UNL     1      -0.868  12.039  18.491  0.00  0.00    +0.000 A 
ATOM     28 CL   UNL     1      -2.577  12.310  18.477  0.00  0.00    +0.000 Cl
ATOM     29  C   UNL     1      -0.306  10.776  18.245  0.00  0.00    +0.000 A 
ATOM     30 CL   UNL     1      -1.310   9.437  17.876  0.00  0.00    +0.000 Cl
ENDBRANCH  22  23
ENDBRANCH  21  22
ENDBRANCH   3  17
TORSDOF 4
ENDMDL
