MODEL 1
REMARK VINA RESULT:      -8.6      0.000      0.000
REMARK  Name = 
REMARK  8 active torsions:
REMARK  status: ('A' for Active; 'I' for Inactive)
REMARK    1  A    between atoms: C_2  and  C_3
REMARK    2  A    between atoms: C_3  and  O_4
REMARK    3  A    between atoms: O_4  and  C_5
REMARK    4  A    between atoms: N_13  and  C_14
REMARK    5  A    between atoms: N_20  and  C_21
REMARK    6  A    between atoms: C_21  and  C_22
REMARK    7  A    between atoms: C_22  and  C_23
REMARK    8  A    between atoms: C_23  and  C_24
REMARK                            x       y       z     vdW  Elec       q    Type
REMARK                         _______ _______ _______ _____ _____    ______ ____
ROOT
ATOM      1  O   UNL     1       4.409   4.980  17.249  0.00  0.00    +0.000 OA
ENDROOT
BRANCH   1   2
ATOM      2  C   UNL     1       3.636   5.295  18.346  0.00  0.00    +0.000 A 
ATOM      3  N   UNL     1       3.361   4.355  19.276  0.00  0.00    +0.000 NA
ATOM      4  C   UNL     1       2.590   4.713  20.314  0.00  0.00    +0.000 A 
ATOM      5  N   UNL     1       2.031   5.907  20.550  0.00  0.00    +0.000 NA
ATOM      6  C   UNL     1       2.321   6.817  19.597  0.00  0.00    +0.000 A 
ATOM      7  C   UNL     1       3.104   6.574  18.482  0.00  0.00    +0.000 A 
ATOM      8  C   UNL     1       3.110   7.784  17.775  0.00  0.00    +0.000 A 
ATOM      9  N   UNL     1       2.381   8.733  18.363  0.00  0.00    +0.000 NA
ATOM     10  N   UNL     1       1.902   8.145  19.505  0.00  0.00    +0.000 N 
BRANCH  10  11
ATOM     11  C   UNL     1       1.076   8.885  20.406  0.00  0.00    +0.000 A 
ATOM     12  C   UNL     1       1.225   8.710  21.790  0.00  0.00    +0.000 A 
ATOM     13  C   UNL     1       0.436   9.442  22.683  0.00  0.00    +0.000 A 
ATOM     14  C   UNL     1      -0.511  10.341  22.199  0.00  0.00    +0.000 A 
ATOM     15  C   UNL     1      -0.673  10.515  20.828  0.00  0.00    +0.000 A 
ATOM     16  C   UNL     1       0.115   9.791  19.936  0.00  0.00    +0.000 A 
ENDBRANCH  10  11
ENDBRANCH   1   2
BRANCH   1  17
ATOM     17  C   UNL     1       5.720   4.550  17.605  0.00  0.00    +0.000 C 
BRANCH  17  19
ATOM     18  O   UNL     1       7.364   5.242  15.974  0.00  0.00    +0.000 OA
ATOM     19  C   UNL     1       6.725   5.516  16.986  0.00  0.00    +0.000 C 
ATOM     20  N   UNL     1       6.859   6.711  17.664  0.00  0.00    +0.000 N 
ATOM     21  H   UNL     1       6.318   6.863  18.506  0.00  0.00    +0.000 HD
BRANCH  20  22
ATOM     22  C   UNL     1       7.768   7.752  17.223  0.00  0.00    +0.000 C 
BRANCH  22  23
ATOM     23  C   UNL     1       8.384   8.514  18.397  0.00  0.00    +0.000 C 
BRANCH  23  24
ATOM     24  C   UNL     1       8.302  10.026  18.172  0.00  0.00    +0.000 C 
BRANCH  24  25
ATOM     25  C   UNL     1       9.473  10.773  18.766  0.00  0.00    +0.000 A 
ATOM     26  C   UNL     1       9.518  11.060  20.138  0.00  0.00    +0.000 A 
ATOM     27  C   UNL     1      10.613  11.734  20.685  0.00  0.00    +0.000 A 
ATOM     28  C   UNL     1      11.669  12.132  19.868  0.00  0.00    +0.000 A 
ATOM     29  C   UNL     1      11.629  11.859  18.502  0.00  0.00    +0.000 A 
ATOM     30  C   UNL     1      10.537  11.186  17.954  0.00  0.00    +0.000 A 
ENDBRANCH  24  25
ENDBRANCH  23  24
ENDBRANCH  22  23
ENDBRANCH  20  22
ENDBRANCH  17  19
ENDBRANCH   1  17
TORSDOF 8
ENDMDL
MODEL 2
REMARK VINA RESULT:      -8.1      3.309      5.892
REMARK  Name = 
REMARK  8 active torsions:
REMARK  status: ('A' for Active; 'I' for Inactive)
REMARK    1  A    between atoms: C_2  and  C_3
REMARK    2  A    between atoms: C_3  and  O_4
REMARK    3  A    between atoms: O_4  and  C_5
REMARK    4  A    between atoms: N_13  and  C_14
REMARK    5  A    between atoms: N_20  and  C_21
REMARK    6  A    between atoms: C_21  and  C_22
REMARK    7  A    between atoms: C_22  and  C_23
REMARK    8  A    between atoms: C_23  and  C_24
REMARK                            x       y       z     vdW  Elec       q    Type
REMARK                         _______ _______ _______ _____ _____    ______ ____
ROOT
ATOM      1  O   UNL     1       1.809   7.846  20.429  0.00  0.00    +0.000 OA
ENDROOT
BRANCH   1   2
ATOM      2  C   UNL     1       1.042   8.988  20.331  0.00  0.00    +0.000 A 
ATOM      3  N   UNL     1       0.854   9.578  19.131  0.00  0.00    +0.000 NA
ATOM      4  C   UNL     1       0.112  10.697  19.097  0.00  0.00    +0.000 A 
ATOM      5  N   UNL     1      -0.470  11.328  20.124  0.00  0.00    +0.000 NA
ATOM      6  C   UNL     1      -0.253  10.714  21.305  0.00  0.00    +0.000 A 
ATOM      7  C   UNL     1       0.489   9.558  21.473  0.00  0.00    +0.000 A 
ATOM      8  C   UNL     1       0.459   9.306  22.852  0.00  0.00    +0.000 A 
ATOM      9  N   UNL     1      -0.226  10.226  23.533  0.00  0.00    +0.000 NA
ATOM     10  N   UNL     1      -0.687  11.094  22.577  0.00  0.00    +0.000 N 
BRANCH  10  11
ATOM     11  C   UNL     1      -1.487  12.218  22.948  0.00  0.00    +0.000 A 
ATOM     12  C   UNL     1      -2.823  12.026  23.333  0.00  0.00    +0.000 A 
ATOM     13  C   UNL     1      -3.611  13.115  23.716  0.00  0.00    +0.000 A 
ATOM     14  C   UNL     1      -3.073  14.400  23.707  0.00  0.00    +0.000 A 
ATOM     15  C   UNL     1      -1.753  14.603  23.318  0.00  0.00    +0.000 A 
ATOM     16  C   UNL     1      -0.963  13.519  22.940  0.00  0.00    +0.000 A 
ENDBRANCH  10  11
ENDBRANCH   1   2
BRANCH   1  17
ATOM     17  C   UNL     1       2.391   7.466  19.185  0.00  0.00    +0.000 C 
BRANCH  17  19
ATOM     18  O   UNL     1       2.555   5.258  20.157  0.00  0.00    +0.000 OA
ATOM     19  C   UNL     1       2.471   5.943  19.141  0.00  0.00    +0.000 C 
ATOM     20  N   UNL     1       2.451   5.407  17.868  0.00  0.00    +0.000 N 
ATOM     21  H   UNL     1       2.404   6.031  17.073  0.00  0.00    +0.000 HD
BRANCH  20  22
ATOM     22  C   UNL     1       2.519   3.979  17.630  0.00  0.00    +0.000 C 
BRANCH  22  23
ATOM     23  C   UNL     1       3.961   3.475  17.554  0.00  0.00    +0.000 C 
BRANCH  23  24
ATOM     24  C   UNL     1       4.754   4.242  16.492  0.00  0.00    +0.000 C 
BRANCH  24  25
ATOM     25  C   UNL     1       5.806   5.149  17.086  0.00  0.00    +0.000 A 
ATOM     26  C   UNL     1       5.847   6.512  16.754  0.00  0.00    +0.000 A 
ATOM     27  C   UNL     1       6.811   7.350  17.321  0.00  0.00    +0.000 A 
ATOM     28  C   UNL     1       7.745   6.836  18.219  0.00  0.00    +0.000 A 
ATOM     29  C   UNL     1       7.717   5.482  18.547  0.00  0.00    +0.000 A 
ATOM     30  C   UNL     1       6.756   4.643  17.982  0.00  0.00    +0.000 A 
ENDBRANCH  24  25
ENDBRANCH  23  24
ENDBRANCH  22  23
ENDBRANCH  20  22
ENDBRANCH  17  19
ENDBRANCH   1  17
TORSDOF 8
ENDMDL
MODEL 3
REMARK VINA RESULT:      -8.1      3.140      5.717
REMARK  Name = 
REMARK  8 active torsions:
REMARK  status: ('A' for Active; 'I' for Inactive)
REMARK    1  A    between atoms: C_2  and  C_3
REMARK    2  A    between atoms: C_3  and  O_4
REMARK    3  A    between atoms: O_4  and  C_5
REMARK    4  A    between atoms: N_13  and  C_14
REMARK    5  A    between atoms: N_20  and  C_21
REMARK    6  A    between atoms: C_21  and  C_22
REMARK    7  A    between atoms: C_22  and  C_23
REMARK    8  A    between atoms: C_23  and  C_24
REMARK                            x       y       z     vdW  Elec       q    Type
REMARK                         _______ _______ _______ _____ _____    ______ ____
ROOT
ATOM      1  O   UNL     1       1.783   7.909  20.323  0.00  0.00    +0.000 OA
ENDROOT
BRANCH   1   2
ATOM      2  C   UNL     1       1.000   9.043  20.257  0.00  0.00    +0.000 A 
ATOM      3  N   UNL     1       0.782   9.648  19.069  0.00  0.00    +0.000 NA
ATOM      4  C   UNL     1       0.026  10.757  19.067  0.00  0.00    +0.000 A 
ATOM      5  N   UNL     1      -0.545  11.366  20.113  0.00  0.00    +0.000 NA
ATOM      6  C   UNL     1      -0.298  10.738  21.281  0.00  0.00    +0.000 A 
ATOM      7  C   UNL     1       0.462   9.589  21.418  0.00  0.00    +0.000 A 
ATOM      8  C   UNL     1       0.461   9.316  22.793  0.00  0.00    +0.000 A 
ATOM      9  N   UNL     1      -0.222  10.217  23.501  0.00  0.00    +0.000 NA
ATOM     10  N   UNL     1      -0.712  11.093  22.567  0.00  0.00    +0.000 N 
BRANCH  10  11
ATOM     11  C   UNL     1      -1.519  12.201  22.969  0.00  0.00    +0.000 A 
ATOM     12  C   UNL     1      -0.991  13.501  22.925  0.00  0.00    +0.000 A 
ATOM     13  C   UNL     1      -1.777  14.595  23.299  0.00  0.00    +0.000 A 
ATOM     14  C   UNL     1      -3.087  14.397  23.728  0.00  0.00    +0.000 A 
ATOM     15  C   UNL     1      -3.616  13.112  23.786  0.00  0.00    +0.000 A 
ATOM     16  C   UNL     1      -2.838  12.019  23.409  0.00  0.00    +0.000 A 
ENDBRANCH  10  11
ENDBRANCH   1   2
BRANCH   1  17
ATOM     17  C   UNL     1       2.341   7.552  19.062  0.00  0.00    +0.000 C 
BRANCH  17  19
ATOM     18  O   UNL     1       2.864   5.430  20.097  0.00  0.00    +0.000 OA
ATOM     19  C   UNL     1       2.610   6.050  19.067  0.00  0.00    +0.000 C 
ATOM     20  N   UNL     1       2.554   5.456  17.822  0.00  0.00    +0.000 N 
ATOM     21  H   UNL     1       2.362   6.031  17.011  0.00  0.00    +0.000 HD
BRANCH  20  22
ATOM     22  C   UNL     1       2.782   4.037  17.632  0.00  0.00    +0.000 C 
BRANCH  22  23
ATOM     23  C   UNL     1       4.272   3.698  17.559  0.00  0.00    +0.000 C 
BRANCH  23  24
ATOM     24  C   UNL     1       5.003   4.646  16.605  0.00  0.00    +0.000 C 
BRANCH  24  25
ATOM     25  C   UNL     1       6.063   5.472  17.295  0.00  0.00    +0.000 A 
ATOM     26  C   UNL     1       6.708   4.993  18.446  0.00  0.00    +0.000 A 
ATOM     27  C   UNL     1       7.702   5.753  19.068  0.00  0.00    +0.000 A 
ATOM     28  C   UNL     1       8.057   6.998  18.553  0.00  0.00    +0.000 A 
ATOM     29  C   UNL     1       7.416   7.486  17.416  0.00  0.00    +0.000 A 
ATOM     30  C   UNL     1       6.423   6.728  16.792  0.00  0.00    +0.000 A 
ENDBRANCH  24  25
ENDBRANCH  23  24
ENDBRANCH  22  23
ENDBRANCH  20  22
ENDBRANCH  17  19
ENDBRANCH   1  17
TORSDOF 8
ENDMDL
MODEL 4
REMARK VINA RESULT:      -8.1      3.217      4.975
REMARK  Name = 
REMARK  8 active torsions:
REMARK  status: ('A' for Active; 'I' for Inactive)
REMARK    1  A    between atoms: C_2  and  C_3
REMARK    2  A    between atoms: C_3  and  O_4
REMARK    3  A    between atoms: O_4  and  C_5
REMARK    4  A    between atoms: N_13  and  C_14
REMARK    5  A    between atoms: N_20  and  C_21
REMARK    6  A    between atoms: C_21  and  C_22
REMARK    7  A    between atoms: C_22  and  C_23
REMARK    8  A    between atoms: C_23  and  C_24
REMARK                            x       y       z     vdW  Elec       q    Type
REMARK                         _______ _______ _______ _____ _____    ______ ____
ROOT
ATOM      1  O   UNL     1       2.545   5.612  20.436  0.00  0.00    +0.000 OA
ENDROOT
BRANCH   1   2
ATOM      2  C   UNL     1       2.420   6.717  19.620  0.00  0.00    +0.000 A 
ATOM      3  N   UNL     1       3.001   6.730  18.401  0.00  0.00    +0.000 NA
ATOM      4  C   UNL     1       2.860   7.838  17.656  0.00  0.00    +0.000 A 
ATOM      5  N   UNL     1       2.213   8.966  17.975  0.00  0.00    +0.000 NA
ATOM      6  C   UNL     1       1.653   8.919  19.202  0.00  0.00    +0.000 A 
ATOM      7  C   UNL     1       1.724   7.838  20.064  0.00  0.00    +0.000 A 
ATOM      8  C   UNL     1       1.028   8.243  21.210  0.00  0.00    +0.000 A 
ATOM      9  N   UNL     1       0.556   9.488  21.118  0.00  0.00    +0.000 NA
ATOM     10  N   UNL     1       0.925   9.908  19.866  0.00  0.00    +0.000 N 
BRANCH  10  11
ATOM     11  C   UNL     1       0.571  11.213  19.409  0.00  0.00    +0.000 A 
ATOM     12  C   UNL     1      -0.637  11.407  18.721  0.00  0.00    +0.000 A 
ATOM     13  C   UNL     1      -1.004  12.683  18.285  0.00  0.00    +0.000 A 
ATOM     14  C   UNL     1      -0.164  13.768  18.523  0.00  0.00    +0.000 A 
ATOM     15  C   UNL     1       1.040  13.586  19.195  0.00  0.00    +0.000 A 
ATOM     16  C   UNL     1       1.407  12.316  19.636  0.00  0.00    +0.000 A 
ENDBRANCH  10  11
ENDBRANCH   1   2
BRANCH   1  17
ATOM     17  C   UNL     1       1.590   4.598  20.138  0.00  0.00    +0.000 C 
BRANCH  17  19
ATOM     18  O   UNL     1       1.223   3.573  17.980  0.00  0.00    +0.000 OA
ATOM     19  C   UNL     1       2.022   3.897  18.855  0.00  0.00    +0.000 C 
ATOM     20  N   UNL     1       3.378   3.652  18.766  0.00  0.00    +0.000 N 
ATOM     21  H   UNL     1       3.978   3.924  19.535  0.00  0.00    +0.000 HD
BRANCH  20  22
ATOM     22  C   UNL     1       3.972   2.994  17.619  0.00  0.00    +0.000 C 
BRANCH  22  23
ATOM     23  C   UNL     1       4.305   3.980  16.499  0.00  0.00    +0.000 C 
BRANCH  23  24
ATOM     24  C   UNL     1       5.810   4.005  16.219  0.00  0.00    +0.000 C 
BRANCH  24  25
ATOM     25  C   UNL     1       6.541   5.051  17.028  0.00  0.00    +0.000 A 
ATOM     26  C   UNL     1       7.310   4.686  18.144  0.00  0.00    +0.000 A 
ATOM     27  C   UNL     1       7.999   5.656  18.877  0.00  0.00    +0.000 A 
ATOM     28  C   UNL     1       7.923   6.997  18.507  0.00  0.00    +0.000 A 
ATOM     29  C   UNL     1       7.155   7.370  17.406  0.00  0.00    +0.000 A 
ATOM     30  C   UNL     1       6.466   6.403  16.673  0.00  0.00    +0.000 A 
ENDBRANCH  24  25
ENDBRANCH  23  24
ENDBRANCH  22  23
ENDBRANCH  20  22
ENDBRANCH  17  19
ENDBRANCH   1  17
TORSDOF 8
ENDMDL
MODEL 5
REMARK VINA RESULT:      -8.0      4.474      7.389
REMARK  Name = 
REMARK  8 active torsions:
REMARK  status: ('A' for Active; 'I' for Inactive)
REMARK    1  A    between atoms: C_2  and  C_3
REMARK    2  A    between atoms: C_3  and  O_4
REMARK    3  A    between atoms: O_4  and  C_5
REMARK    4  A    between atoms: N_13  and  C_14
REMARK    5  A    between atoms: N_20  and  C_21
REMARK    6  A    between atoms: C_21  and  C_22
REMARK    7  A    between atoms: C_22  and  C_23
REMARK    8  A    between atoms: C_23  and  C_24
REMARK                            x       y       z     vdW  Elec       q    Type
REMARK                         _______ _______ _______ _____ _____    ______ ____
ROOT
ATOM      1  O   UNL     1       1.578   8.614  19.570  0.00  0.00    +0.000 OA
ENDROOT
BRANCH   1   2
ATOM      2  C   UNL     1       0.730   9.689  19.736  0.00  0.00    +0.000 A 
ATOM      3  N   UNL     1       0.350  10.424  18.668  0.00  0.00    +0.000 NA
ATOM      4  C   UNL     1      -0.463  11.470  18.891  0.00  0.00    +0.000 A 
ATOM      5  N   UNL     1      -0.949  11.898  20.062  0.00  0.00    +0.000 NA
ATOM      6  C   UNL     1      -0.542  11.145  21.104  0.00  0.00    +0.000 A 
ATOM      7  C   UNL     1       0.292  10.043  21.008  0.00  0.00    +0.000 A 
ATOM      8  C   UNL     1       0.457   9.598  22.327  0.00  0.00    +0.000 A 
ATOM      9  N   UNL     1      -0.195  10.351  23.214  0.00  0.00    +0.000 NA
ATOM     10  N   UNL     1      -0.833  11.303  22.460  0.00  0.00    +0.000 N 
BRANCH  10  11
ATOM     11  C   UNL     1      -1.651  12.291  23.087  0.00  0.00    +0.000 A 
ATOM     12  C   UNL     1      -1.149  13.586  23.291  0.00  0.00    +0.000 A 
ATOM     13  C   UNL     1      -1.947  14.567  23.887  0.00  0.00    +0.000 A 
ATOM     14  C   UNL     1      -3.244  14.258  24.291  0.00  0.00    +0.000 A 
ATOM     15  C   UNL     1      -3.748  12.976  24.103  0.00  0.00    +0.000 A 
ATOM     16  C   UNL     1      -2.957  11.996  23.505  0.00  0.00    +0.000 A 
ENDBRANCH  10  11
ENDBRANCH   1   2
BRANCH   1  17
ATOM     17  C   UNL     1       2.181   8.583  18.279  0.00  0.00    +0.000 C 
BRANCH  17  19
ATOM     18  O   UNL     1       1.974   6.201  17.920  0.00  0.00    +0.000 OA
ATOM     19  C   UNL     1       2.714   7.175  18.035  0.00  0.00    +0.000 C 
ATOM     20  N   UNL     1       4.090   7.090  17.965  0.00  0.00    +0.000 N 
ATOM     21  H   UNL     1       4.642   7.929  18.092  0.00  0.00    +0.000 HD
BRANCH  20  22
ATOM     22  C   UNL     1       4.777   5.833  17.739  0.00  0.00    +0.000 C 
BRANCH  22  23
ATOM     23  C   UNL     1       5.234   5.182  19.045  0.00  0.00    +0.000 C 
BRANCH  23  24
ATOM     24  C   UNL     1       4.860   3.698  19.078  0.00  0.00    +0.000 C 
BRANCH  24  25
ATOM     25  C   UNL     1       3.393   3.468  19.356  0.00  0.00    +0.000 A 
ATOM     26  C   UNL     1       2.627   2.638  18.523  0.00  0.00    +0.000 A 
ATOM     27  C   UNL     1       1.275   2.413  18.797  0.00  0.00    +0.000 A 
ATOM     28  C   UNL     1       0.675   3.018  19.899  0.00  0.00    +0.000 A 
ATOM     29  C   UNL     1       1.424   3.851  20.727  0.00  0.00    +0.000 A 
ATOM     30  C   UNL     1       2.775   4.077  20.455  0.00  0.00    +0.000 A 
ENDBRANCH  24  25
ENDBRANCH  23  24
ENDBRANCH  22  23
ENDBRANCH  20  22
ENDBRANCH  17  19
ENDBRANCH   1  17
TORSDOF 8
ENDMDL
MODEL 6
REMARK VINA RESULT:      -8.0      3.567      5.391
REMARK  Name = 
REMARK  8 active torsions:
REMARK  status: ('A' for Active; 'I' for Inactive)
REMARK    1  A    between atoms: C_2  and  C_3
REMARK    2  A    between atoms: C_3  and  O_4
REMARK    3  A    between atoms: O_4  and  C_5
REMARK    4  A    between atoms: N_13  and  C_14
REMARK    5  A    between atoms: N_20  and  C_21
REMARK    6  A    between atoms: C_21  and  C_22
REMARK    7  A    between atoms: C_22  and  C_23
REMARK    8  A    between atoms: C_23  and  C_24
REMARK                            x       y       z     vdW  Elec       q    Type
REMARK                         _______ _______ _______ _____ _____    ______ ____
ROOT
ATOM      1  O   UNL     1       8.139   8.150  17.262  0.00  0.00    +0.000 OA
ENDROOT
BRANCH   1   2
ATOM      2  C   UNL     1       7.520   7.110  17.924  0.00  0.00    +0.000 A 
ATOM      3  N   UNL     1       8.123   6.525  18.982  0.00  0.00    +0.000 NA
ATOM      4  C   UNL     1       7.483   5.506  19.577  0.00  0.00    +0.000 A 
ATOM      5  N   UNL     1       6.301   4.971  19.245  0.00  0.00    +0.000 NA
ATOM      6  C   UNL     1       5.735   5.576  18.181  0.00  0.00    +0.000 A 
ATOM      7  C   UNL     1       6.290   6.634  17.482  0.00  0.00    +0.000 A 
ATOM      8  C   UNL     1       5.372   6.914  16.460  0.00  0.00    +0.000 A 
ATOM      9  N   UNL     1       4.316   6.099  16.473  0.00  0.00    +0.000 NA
ATOM     10  N   UNL     1       4.525   5.276  17.551  0.00  0.00    +0.000 N 
BRANCH  10  11
ATOM     11  C   UNL     1       3.571   4.268  17.885  0.00  0.00    +0.000 A 
ATOM     12  C   UNL     1       3.893   2.915  17.700  0.00  0.00    +0.000 A 
ATOM     13  C   UNL     1       2.975   1.917  18.041  0.00  0.00    +0.000 A 
ATOM     14  C   UNL     1       1.728   2.266  18.555  0.00  0.00    +0.000 A 
ATOM     15  C   UNL     1       1.395   3.604  18.733  0.00  0.00    +0.000 A 
ATOM     16  C   UNL     1       2.310   4.601  18.400  0.00  0.00    +0.000 A 
ENDBRANCH  10  11
ENDBRANCH   1   2
BRANCH   1  17
ATOM     17  C   UNL     1       7.762   9.426  17.770  0.00  0.00    +0.000 C 
BRANCH  17  19
ATOM     18  O   UNL     1       9.338   9.751  19.575  0.00  0.00    +0.000 OA
ATOM     19  C   UNL     1       8.982  10.053  18.439  0.00  0.00    +0.000 C 
ATOM     20  N   UNL     1       9.639  10.989  17.665  0.00  0.00    +0.000 N 
ATOM     21  H   UNL     1       9.277  11.207  16.745  0.00  0.00    +0.000 HD
BRANCH  20  22
ATOM     22  C   UNL     1      10.819  11.689  18.133  0.00  0.00    +0.000 C 
BRANCH  22  23
ATOM     23  C   UNL     1      10.466  12.970  18.889  0.00  0.00    +0.000 C 
BRANCH  23  24
ATOM     24  C   UNL     1      11.069  12.960  20.297  0.00  0.00    +0.000 C 
BRANCH  24  25
ATOM     25  C   UNL     1      10.070  13.333  21.366  0.00  0.00    +0.000 A 
ATOM     26  C   UNL     1       9.218  12.366  21.920  0.00  0.00    +0.000 A 
ATOM     27  C   UNL     1       8.309  12.715  22.923  0.00  0.00    +0.000 A 
ATOM     28  C   UNL     1       8.239  14.029  23.378  0.00  0.00    +0.000 A 
ATOM     29  C   UNL     1       9.075  14.999  22.828  0.00  0.00    +0.000 A 
ATOM     30  C   UNL     1       9.983  14.654  21.826  0.00  0.00    +0.000 A 
ENDBRANCH  24  25
ENDBRANCH  23  24
ENDBRANCH  22  23
ENDBRANCH  20  22
ENDBRANCH  17  19
ENDBRANCH   1  17
TORSDOF 8
ENDMDL
MODEL 7
REMARK VINA RESULT:      -7.9      4.469      7.291
REMARK  Name = 
REMARK  8 active torsions:
REMARK  status: ('A' for Active; 'I' for Inactive)
REMARK    1  A    between atoms: C_2  and  C_3
REMARK    2  A    between atoms: C_3  and  O_4
REMARK    3  A    between atoms: O_4  and  C_5
REMARK    4  A    between atoms: N_13  and  C_14
REMARK    5  A    between atoms: N_20  and  C_21
REMARK    6  A    between atoms: C_21  and  C_22
REMARK    7  A    between atoms: C_22  and  C_23
REMARK    8  A    between atoms: C_23  and  C_24
REMARK                            x       y       z     vdW  Elec       q    Type
REMARK                         _______ _______ _______ _____ _____    ______ ____
ROOT
ATOM      1  O   UNL     1       1.713   8.368  19.953  0.00  0.00    +0.000 OA
ENDROOT
BRANCH   1   2
ATOM      2  C   UNL     1       0.902   9.482  20.016  0.00  0.00    +0.000 A 
ATOM      3  N   UNL     1       0.649  10.201  18.901  0.00  0.00    +0.000 NA
ATOM      4  C   UNL     1      -0.133  11.285  19.025  0.00  0.00    +0.000 A 
ATOM      5  N   UNL     1      -0.700  11.767  20.137  0.00  0.00    +0.000 NA
ATOM      6  C   UNL     1      -0.419  11.028  21.230  0.00  0.00    +0.000 A 
ATOM      7  C   UNL     1       0.371   9.891  21.235  0.00  0.00    +0.000 A 
ATOM      8  C   UNL     1       0.400   9.478  22.574  0.00  0.00    +0.000 A 
ATOM      9  N   UNL     1      -0.293  10.283  23.382  0.00  0.00    +0.000 NA
ATOM     10  N   UNL     1      -0.819  11.238  22.551  0.00  0.00    +0.000 N 
BRANCH  10  11
ATOM     11  C   UNL     1      -1.645  12.277  23.078  0.00  0.00    +0.000 A 
ATOM     12  C   UNL     1      -2.970  11.995  23.446  0.00  0.00    +0.000 A 
ATOM     13  C   UNL     1      -3.784  12.999  23.980  0.00  0.00    +0.000 A 
ATOM     14  C   UNL     1      -3.283  14.288  24.140  0.00  0.00    +0.000 A 
ATOM     15  C   UNL     1      -1.974  14.581  23.769  0.00  0.00    +0.000 A 
ATOM     16  C   UNL     1      -1.159  13.582  23.241  0.00  0.00    +0.000 A 
ENDBRANCH  10  11
ENDBRANCH   1   2
BRANCH   1  17
ATOM     17  C   UNL     1       2.188   8.108  18.636  0.00  0.00    +0.000 C 
BRANCH  17  19
ATOM     18  O   UNL     1       3.112   6.102  19.620  0.00  0.00    +0.000 OA
ATOM     19  C   UNL     1       3.133   6.912  18.696  0.00  0.00    +0.000 C 
ATOM     20  N   UNL     1       4.014   6.826  17.636  0.00  0.00    +0.000 N 
ATOM     21  H   UNL     1       3.992   7.541  16.920  0.00  0.00    +0.000 HD
BRANCH  20  22
ATOM     22  C   UNL     1       4.986   5.756  17.524  0.00  0.00    +0.000 C 
BRANCH  22  23
ATOM     23  C   UNL     1       4.778   4.919  16.261  0.00  0.00    +0.000 C 
BRANCH  23  24
ATOM     24  C   UNL     1       4.598   3.439  16.609  0.00  0.00    +0.000 C 
BRANCH  24  25
ATOM     25  C   UNL     1       3.555   3.209  17.678  0.00  0.00    +0.000 A 
ATOM     26  C   UNL     1       2.204   3.497  17.434  0.00  0.00    +0.000 A 
ATOM     27  C   UNL     1       1.241   3.264  18.420  0.00  0.00    +0.000 A 
ATOM     28  C   UNL     1       1.618   2.748  19.658  0.00  0.00    +0.000 A 
ATOM     29  C   UNL     1       2.959   2.468  19.913  0.00  0.00    +0.000 A 
ATOM     30  C   UNL     1       3.922   2.700  18.930  0.00  0.00    +0.000 A 
ENDBRANCH  24  25
ENDBRANCH  23  24
ENDBRANCH  22  23
ENDBRANCH  20  22
ENDBRANCH  17  19
ENDBRANCH   1  17
TORSDOF 8
ENDMDL
MODEL 8
REMARK VINA RESULT:      -7.9      4.244      9.342
REMARK  Name = 
REMARK  8 active torsions:
REMARK  status: ('A' for Active; 'I' for Inactive)
REMARK    1  A    between atoms: C_2  and  C_3
REMARK    2  A    between atoms: C_3  and  O_4
REMARK    3  A    between atoms: O_4  and  C_5
REMARK    4  A    between atoms: N_13  and  C_14
REMARK    5  A    between atoms: N_20  and  C_21
REMARK    6  A    between atoms: C_21  and  C_22
REMARK    7  A    between atoms: C_22  and  C_23
REMARK    8  A    between atoms: C_23  and  C_24
REMARK                            x       y       z     vdW  Elec       q    Type
REMARK                         _______ _______ _______ _____ _____    ______ ____
ROOT
ATOM      1  O   UNL     1       0.813   8.056  21.135  0.00  0.00    +0.000 OA
ENDROOT
BRANCH   1   2
ATOM      2  C   UNL     1       1.568   8.034  19.981  0.00  0.00    +0.000 A 
ATOM      3  N   UNL     1       1.447   9.025  19.072  0.00  0.00    +0.000 NA
ATOM      4  C   UNL     1       2.194   8.943  17.960  0.00  0.00    +0.000 A 
ATOM      5  N   UNL     1       3.057   7.979  17.618  0.00  0.00    +0.000 NA
ATOM      6  C   UNL     1       3.145   7.004  18.546  0.00  0.00    +0.000 A 
ATOM      7  C   UNL     1       2.431   6.972  19.732  0.00  0.00    +0.000 A 
ATOM      8  C   UNL     1       2.824   5.781  20.358  0.00  0.00    +0.000 A 
ATOM      9  N   UNL     1       3.703   5.081  19.639  0.00  0.00    +0.000 NA
ATOM     10  N   UNL     1       3.921   5.843  18.520  0.00  0.00    +0.000 N 
BRANCH  10  11
ATOM     11  C   UNL     1       4.834   5.403  17.514  0.00  0.00    +0.000 A 
ATOM     12  C   UNL     1       4.471   4.357  16.652  0.00  0.00    +0.000 A 
ATOM     13  C   UNL     1       5.349   3.929  15.651  0.00  0.00    +0.000 A 
ATOM     14  C   UNL     1       6.595   4.536  15.513  0.00  0.00    +0.000 A 
ATOM     15  C   UNL     1       6.969   5.566  16.369  0.00  0.00    +0.000 A 
ATOM     16  C   UNL     1       6.095   5.999  17.364  0.00  0.00    +0.000 A 
ENDBRANCH  10  11
ENDBRANCH   1   2
BRANCH   1  17
ATOM     17  C   UNL     1       1.263   9.035  22.068  0.00  0.00    +0.000 C 
BRANCH  17  19
ATOM     18  O   UNL     1      -0.651  10.212  22.961  0.00  0.00    +0.000 OA
ATOM     19  C   UNL     1       0.235  10.161  22.111  0.00  0.00    +0.000 C 
ATOM     20  N   UNL     1       0.380  11.106  21.115  0.00  0.00    +0.000 N 
ATOM     21  H   UNL     1       1.119  10.990  20.432  0.00  0.00    +0.000 HD
BRANCH  20  22
ATOM     22  C   UNL     1      -0.505  12.248  20.997  0.00  0.00    +0.000 C 
BRANCH  22  23
ATOM     23  C   UNL     1      -1.714  11.951  20.110  0.00  0.00    +0.000 C 
BRANCH  23  24
ATOM     24  C   UNL     1      -1.437  10.762  19.186  0.00  0.00    +0.000 C 
BRANCH  24  25
ATOM     25  C   UNL     1      -2.330  10.744  17.968  0.00  0.00    +0.000 A 
ATOM     26  C   UNL     1      -1.955  10.036  16.815  0.00  0.00    +0.000 A 
ATOM     27  C   UNL     1      -2.794  10.008  15.698  0.00  0.00    +0.000 A 
ATOM     28  C   UNL     1      -4.010  10.688  15.718  0.00  0.00    +0.000 A 
ATOM     29  C   UNL     1      -4.386  11.401  16.855  0.00  0.00    +0.000 A 
ATOM     30  C   UNL     1      -3.550  11.432  17.971  0.00  0.00    +0.000 A 
ENDBRANCH  24  25
ENDBRANCH  23  24
ENDBRANCH  22  23
ENDBRANCH  20  22
ENDBRANCH  17  19
ENDBRANCH   1  17
TORSDOF 8
ENDMDL
MODEL 9
REMARK VINA RESULT:      -7.9      3.418      5.341
REMARK  Name = 
REMARK  8 active torsions:
REMARK  status: ('A' for Active; 'I' for Inactive)
REMARK    1  A    between atoms: C_2  and  C_3
REMARK    2  A    between atoms: C_3  and  O_4
REMARK    3  A    between atoms: O_4  and  C_5
REMARK    4  A    between atoms: N_13  and  C_14
REMARK    5  A    between atoms: N_20  and  C_21
REMARK    6  A    between atoms: C_21  and  C_22
REMARK    7  A    between atoms: C_22  and  C_23
REMARK    8  A    between atoms: C_23  and  C_24
REMARK                            x       y       z     vdW  Elec       q    Type
REMARK                         _______ _______ _______ _____ _____    ______ ____
ROOT
ATOM      1  O   UNL     1       8.121   8.066  17.239  0.00  0.00    +0.000 OA
ENDROOT
BRANCH   1   2
ATOM      2  C   UNL     1       7.491   7.053  17.931  0.00  0.00    +0.000 A 
ATOM      3  N   UNL     1       8.112   6.454  18.970  0.00  0.00    +0.000 NA
ATOM      4  C   UNL     1       7.457   5.463  19.597  0.00  0.00    +0.000 A 
ATOM      5  N   UNL     1       6.246   4.969  19.313  0.00  0.00    +0.000 NA
ATOM      6  C   UNL     1       5.662   5.587  18.266  0.00  0.00    +0.000 A 
ATOM      7  C   UNL     1       6.228   6.620  17.539  0.00  0.00    +0.000 A 
ATOM      8  C   UNL     1       5.283   6.927  16.550  0.00  0.00    +0.000 A 
ATOM      9  N   UNL     1       4.199   6.151  16.609  0.00  0.00    +0.000 NA
ATOM     10  N   UNL     1       4.419   5.328  17.684  0.00  0.00    +0.000 N 
BRANCH  10  11
ATOM     11  C   UNL     1       3.443   4.357  18.061  0.00  0.00    +0.000 A 
ATOM     12  C   UNL     1       2.462   4.687  19.010  0.00  0.00    +0.000 A 
ATOM     13  C   UNL     1       1.489   3.751  19.374  0.00  0.00    +0.000 A 
ATOM     14  C   UNL     1       1.496   2.481  18.802  0.00  0.00    +0.000 A 
ATOM     15  C   UNL     1       2.470   2.141  17.869  0.00  0.00    +0.000 A 
ATOM     16  C   UNL     1       3.438   3.072  17.499  0.00  0.00    +0.000 A 
ENDBRANCH  10  11
ENDBRANCH   1   2
BRANCH   1  17
ATOM     17  C   UNL     1       7.736   9.362  17.689  0.00  0.00    +0.000 C 
BRANCH  17  19
ATOM     18  O   UNL     1       9.283   9.541  19.539  0.00  0.00    +0.000 OA
ATOM     19  C   UNL     1       8.910   9.971  18.451  0.00  0.00    +0.000 C 
ATOM     20  N   UNL     1       9.505  11.044  17.818  0.00  0.00    +0.000 N 
ATOM     21  H   UNL     1       9.133  11.362  16.932  0.00  0.00    +0.000 HD
BRANCH  20  22
ATOM     22  C   UNL     1      10.635  11.750  18.392  0.00  0.00    +0.000 C 
BRANCH  22  23
ATOM     23  C   UNL     1      10.197  12.928  19.261  0.00  0.00    +0.000 C 
BRANCH  23  24
ATOM     24  C   UNL     1      10.350  12.598  20.749  0.00  0.00    +0.000 C 
BRANCH  24  25
ATOM     25  C   UNL     1       9.060  12.752  21.520  0.00  0.00    +0.000 A 
ATOM     26  C   UNL     1       8.291  13.920  21.406  0.00  0.00    +0.000 A 
ATOM     27  C   UNL     1       7.089  14.049  22.107  0.00  0.00    +0.000 A 
ATOM     28  C   UNL     1       6.647  13.017  22.932  0.00  0.00    +0.000 A 
ATOM     29  C   UNL     1       7.408  11.856  23.059  0.00  0.00    +0.000 A 
ATOM     30  C   UNL     1       8.609  11.726  22.360  0.00  0.00    +0.000 A 
ENDBRANCH  24  25
ENDBRANCH  23  24
ENDBRANCH  22  23
ENDBRANCH  20  22
ENDBRANCH  17  19
ENDBRANCH   1  17
TORSDOF 8
ENDMDL
