MODEL 1
REMARK VINA RESULT:      -8.4      0.000      0.000
REMARK  Name = 
REMARK  4 active torsions:
REMARK  status: ('A' for Active; 'I' for Inactive)
REMARK    1  A    between atoms: C_2  and  C_12
REMARK    2  A    between atoms: N_3  and  C_4
REMARK    3  A    between atoms: C_16  and  N_17
REMARK    4  A    between atoms: C_21  and  C_22
REMARK                            x       y       z     vdW  Elec       q    Type
REMARK                         _______ _______ _______ _____ _____    ______ ____
ROOT
ATOM      1  C   UNL     1       2.620   7.667  18.312  0.00  0.00    +0.000 A 
ATOM      2  C   UNL     1       3.745   7.486  17.496  0.00  0.00    +0.000 A 
ATOM      3  C   UNL     1       4.459   6.289  17.544  0.00  0.00    +0.000 A 
ATOM      4  C   UNL     1       4.036   5.263  18.388  0.00  0.00    +0.000 A 
ATOM      5  C   UNL     1       2.866   5.407  19.154  0.00  0.00    +0.000 A 
ATOM      6  C   UNL     1       2.167   6.620  19.130  0.00  0.00    +0.000 A 
ENDROOT
BRANCH   5   7
ATOM      7  N   UNL     1       2.454   4.325  19.979  0.00  0.00    +0.000 N 
ATOM      8  N   UNL     1       2.884   4.308  21.271  0.00  0.00    +0.000 NA
ATOM      9  C   UNL     1       2.145   3.374  21.867  0.00  0.00    +0.000 A 
ATOM     10  C   UNL     1       1.341   2.685  20.957  0.00  0.00    +0.000 A 
ATOM     11  C   UNL     1       1.616   3.259  19.727  0.00  0.00    +0.000 A 
BRANCH  11  12
ATOM     12  C   UNL     1       1.210   2.792  18.394  0.00  0.00    +0.000 C 
ATOM     13  F   UNL     1       0.881   3.770  17.519  0.00  0.00    +0.000 F 
ATOM     14  F   UNL     1       2.212   2.088  17.804  0.00  0.00    +0.000 F 
ATOM     15  F   UNL     1       0.146   1.956  18.473  0.00  0.00    +0.000 F 
ENDBRANCH  11  12
ENDBRANCH   5   7
BRANCH   1  17
ATOM     16  O   UNL     1       2.132   9.765  17.354  0.00  0.00    +0.000 OA
ATOM     17  C   UNL     1       1.931   8.984  18.280  0.00  0.00    +0.000 C 
ATOM     18  N   UNL     1       1.122   9.277  19.356  0.00  0.00    +0.000 N 
ATOM     19  H   UNL     1       1.180   8.720  20.203  0.00  0.00    +0.000 HD
BRANCH  18  20
ATOM     20  C   UNL     1       0.517  10.601  19.503  0.00  0.00    +0.000 C 
ATOM     21  C   UNL     1      -0.952  10.565  19.072  0.00  0.00    +0.000 C 
ATOM     22  C   UNL     1      -1.484  11.933  18.647  0.00  0.00    +0.000 C 
ATOM     23  C   UNL     1      -1.600  12.952  19.779  0.00  0.00    +0.000 C 
ATOM     24  C   UNL     1      -0.271  13.292  20.442  0.00  0.00    +0.000 C 
ATOM     25  N   UNL     1       0.194  12.256  21.338  0.00  0.00    +0.000 N 
ATOM     26  C   UNL     1       0.662  11.025  20.975  0.00  0.00    +0.000 C 
ATOM     27  O   UNL     1       1.181  10.297  21.824  0.00  0.00    +0.000 OA
ATOM     28  H   UNL     1       0.362  12.487  22.311  0.00  0.00    +0.000 HD
ENDBRANCH  18  20
ENDBRANCH   1  17
TORSDOF 4
ENDMDL
MODEL 2
REMARK VINA RESULT:      -8.4      2.888      4.100
REMARK  Name = 
REMARK  4 active torsions:
REMARK  status: ('A' for Active; 'I' for Inactive)
REMARK    1  A    between atoms: C_2  and  C_12
REMARK    2  A    between atoms: N_3  and  C_4
REMARK    3  A    between atoms: C_16  and  N_17
REMARK    4  A    between atoms: C_21  and  C_22
REMARK                            x       y       z     vdW  Elec       q    Type
REMARK                         _______ _______ _______ _____ _____    ______ ____
ROOT
ATOM      1  C   UNL     1       2.627   7.201  18.737  0.00  0.00    +0.000 A 
ATOM      2  C   UNL     1       2.199   6.462  19.848  0.00  0.00    +0.000 A 
ATOM      3  C   UNL     1       2.728   5.196  20.093  0.00  0.00    +0.000 A 
ATOM      4  C   UNL     1       3.703   4.676  19.241  0.00  0.00    +0.000 A 
ATOM      5  C   UNL     1       4.193   5.439  18.169  0.00  0.00    +0.000 A 
ATOM      6  C   UNL     1       3.640   6.698  17.904  0.00  0.00    +0.000 A 
ENDROOT
BRANCH   5   7
ATOM      7  N   UNL     1       5.208   4.883  17.343  0.00  0.00    +0.000 N 
ATOM      8  N   UNL     1       4.823   4.089  16.306  0.00  0.00    +0.000 NA
ATOM      9  C   UNL     1       5.917   3.943  15.560  0.00  0.00    +0.000 A 
ATOM     10  C   UNL     1       7.040   4.510  16.166  0.00  0.00    +0.000 A 
ATOM     11  C   UNL     1       6.578   5.041  17.357  0.00  0.00    +0.000 A 
BRANCH  11  12
ATOM     12  C   UNL     1       7.361   5.572  18.482  0.00  0.00    +0.000 C 
ATOM     13  F   UNL     1       6.719   5.589  19.672  0.00  0.00    +0.000 F 
ATOM     14  F   UNL     1       8.486   4.833  18.677  0.00  0.00    +0.000 F 
ATOM     15  F   UNL     1       7.772   6.840  18.235  0.00  0.00    +0.000 F 
ENDBRANCH  11  12
ENDBRANCH   5   7
BRANCH   1  17
ATOM     16  O   UNL     1       2.186   9.101  17.413  0.00  0.00    +0.000 OA
ATOM     17  C   UNL     1       1.985   8.516  18.475  0.00  0.00    +0.000 C 
ATOM     18  N   UNL     1       1.222   9.039  19.495  0.00  0.00    +0.000 N 
ATOM     19  H   UNL     1       1.286   8.648  20.430  0.00  0.00    +0.000 HD
BRANCH  18  20
ATOM     20  C   UNL     1       0.671  10.391  19.405  0.00  0.00    +0.000 C 
ATOM     21  C   UNL     1      -0.780  10.343  18.914  0.00  0.00    +0.000 C 
ATOM     22  C   UNL     1      -1.231  11.646  18.257  0.00  0.00    +0.000 C 
ATOM     23  C   UNL     1      -1.349  12.834  19.209  0.00  0.00    +0.000 C 
ATOM     24  C   UNL     1      -0.034  13.224  19.874  0.00  0.00    +0.000 C 
ATOM     25  N   UNL     1       0.346  12.325  20.942  0.00  0.00    +0.000 N 
ATOM     26  C   UNL     1       0.774  11.036  20.798  0.00  0.00    +0.000 C 
ATOM     27  O   UNL     1       1.224  10.433  21.773  0.00  0.00    +0.000 OA
ATOM     28  H   UNL     1       0.483  12.701  21.873  0.00  0.00    +0.000 HD
ENDBRANCH  18  20
ENDBRANCH   1  17
TORSDOF 4
ENDMDL
MODEL 3
REMARK VINA RESULT:      -8.3      1.651      2.057
REMARK  Name = 
REMARK  4 active torsions:
REMARK  status: ('A' for Active; 'I' for Inactive)
REMARK    1  A    between atoms: C_2  and  C_12
REMARK    2  A    between atoms: N_3  and  C_4
REMARK    3  A    between atoms: C_16  and  N_17
REMARK    4  A    between atoms: C_21  and  C_22
REMARK                            x       y       z     vdW  Elec       q    Type
REMARK                         _______ _______ _______ _____ _____    ______ ____
ROOT
ATOM      1  C   UNL     1       2.739   7.582  17.946  0.00  0.00    +0.000 A 
ATOM      2  C   UNL     1       4.027   7.668  17.400  0.00  0.00    +0.000 A 
ATOM      3  C   UNL     1       4.789   6.515  17.220  0.00  0.00    +0.000 A 
ATOM      4  C   UNL     1       4.257   5.272  17.563  0.00  0.00    +0.000 A 
ATOM      5  C   UNL     1       2.940   5.168  18.040  0.00  0.00    +0.000 A 
ATOM      6  C   UNL     1       2.185   6.328  18.250  0.00  0.00    +0.000 A 
ENDROOT
BRANCH   5   7
ATOM      7  N   UNL     1       2.426   3.879  18.350  0.00  0.00    +0.000 N 
ATOM      8  N   UNL     1       2.312   2.977  17.337  0.00  0.00    +0.000 NA
ATOM      9  C   UNL     1       2.082   1.811  17.938  0.00  0.00    +0.000 A 
ATOM     10  C   UNL     1       1.903   1.961  19.315  0.00  0.00    +0.000 A 
ATOM     11  C   UNL     1       2.047   3.317  19.551  0.00  0.00    +0.000 A 
BRANCH  11  12
ATOM     12  C   UNL     1       1.758   4.062  20.785  0.00  0.00    +0.000 C 
ATOM     13  F   UNL     1       2.728   4.919  21.180  0.00  0.00    +0.000 F 
ATOM     14  F   UNL     1       0.634   4.813  20.642  0.00  0.00    +0.000 F 
ATOM     15  F   UNL     1       1.528   3.219  21.821  0.00  0.00    +0.000 F 
ENDBRANCH  11  12
ENDBRANCH   5   7
BRANCH   1  17
ATOM     16  O   UNL     1       2.088   9.780  17.396  0.00  0.00    +0.000 OA
ATOM     17  C   UNL     1       1.989   8.843  18.185  0.00  0.00    +0.000 C 
ATOM     18  N   UNL     1       1.245   8.902  19.342  0.00  0.00    +0.000 N 
ATOM     19  H   UNL     1       1.389   8.214  20.075  0.00  0.00    +0.000 HD
BRANCH  18  20
ATOM     20  C   UNL     1       0.591  10.145  19.753  0.00  0.00    +0.000 C 
ATOM     21  C   UNL     1      -0.827  10.214  19.178  0.00  0.00    +0.000 C 
ATOM     22  C   UNL     1      -1.354  11.644  19.057  0.00  0.00    +0.000 C 
ATOM     23  C   UNL     1      -1.609  12.345  20.390  0.00  0.00    +0.000 C 
ATOM     24  C   UNL     1      -0.362  12.510  21.249  0.00  0.00    +0.000 C 
ATOM     25  N   UNL     1       0.042  11.284  21.901  0.00  0.00    +0.000 N 
ATOM     26  C   UNL     1       0.579  10.186  21.291  0.00  0.00    +0.000 C 
ATOM     27  O   UNL     1       1.033   9.269  21.979  0.00  0.00    +0.000 OA
ATOM     28  H   UNL     1       0.107  11.264  22.912  0.00  0.00    +0.000 HD
ENDBRANCH  18  20
ENDBRANCH   1  17
TORSDOF 4
ENDMDL
MODEL 4
REMARK VINA RESULT:      -8.3      2.845      4.400
REMARK  Name = 
REMARK  4 active torsions:
REMARK  status: ('A' for Active; 'I' for Inactive)
REMARK    1  A    between atoms: C_2  and  C_12
REMARK    2  A    between atoms: N_3  and  C_4
REMARK    3  A    between atoms: C_16  and  N_17
REMARK    4  A    between atoms: C_21  and  C_22
REMARK                            x       y       z     vdW  Elec       q    Type
REMARK                         _______ _______ _______ _____ _____    ______ ____
ROOT
ATOM      1  C   UNL     1       2.635   4.869  20.265  0.00  0.00    +0.000 A 
ATOM      2  C   UNL     1       2.459   3.553  20.712  0.00  0.00    +0.000 A 
ATOM      3  C   UNL     1       3.384   2.568  20.369  0.00  0.00    +0.000 A 
ATOM      4  C   UNL     1       4.498   2.901  19.599  0.00  0.00    +0.000 A 
ATOM      5  C   UNL     1       4.723   4.232  19.210  0.00  0.00    +0.000 A 
ATOM      6  C   UNL     1       3.779   5.216  19.528  0.00  0.00    +0.000 A 
ENDROOT
BRANCH   5   7
ATOM      7  N   UNL     1       5.886   4.534  18.450  0.00  0.00    +0.000 N 
ATOM      8  N   UNL     1       7.039   4.796  19.126  0.00  0.00    +0.000 NA
ATOM      9  C   UNL     1       7.995   4.767  18.199  0.00  0.00    +0.000 A 
ATOM     10  C   UNL     1       7.470   4.632  16.913  0.00  0.00    +0.000 A 
ATOM     11  C   UNL     1       6.098   4.566  17.088  0.00  0.00    +0.000 A 
BRANCH  11  12
ATOM     12  C   UNL     1       5.046   4.629  16.064  0.00  0.00    +0.000 C 
ATOM     13  F   UNL     1       4.000   3.794  16.264  0.00  0.00    +0.000 F 
ATOM     14  F   UNL     1       4.515   5.879  15.994  0.00  0.00    +0.000 F 
ATOM     15  F   UNL     1       5.544   4.352  14.834  0.00  0.00    +0.000 F 
ENDBRANCH  11  12
ENDBRANCH   5   7
BRANCH   1  17
ATOM     16  O   UNL     1       0.408   5.538  20.652  0.00  0.00    +0.000 OA
ATOM     17  C   UNL     1       1.589   5.872  20.596  0.00  0.00    +0.000 C 
ATOM     18  N   UNL     1       2.019   7.168  20.775  0.00  0.00    +0.000 N 
ATOM     19  H   UNL     1       2.951   7.441  20.478  0.00  0.00    +0.000 HD
BRANCH  18  20
ATOM     20  C   UNL     1       1.061   8.260  20.953  0.00  0.00    +0.000 C 
ATOM     21  C   UNL     1       1.357   9.021  22.249  0.00  0.00    +0.000 C 
ATOM     22  C   UNL     1       0.138   9.758  22.801  0.00  0.00    +0.000 C 
ATOM     23  C   UNL     1      -0.339  10.931  21.947  0.00  0.00    +0.000 C 
ATOM     24  C   UNL     1      -0.785  10.533  20.546  0.00  0.00    +0.000 C 
ATOM     25  N   UNL     1       0.323  10.257  19.658  0.00  0.00    +0.000 N 
ATOM     26  C   UNL     1       1.160   9.179  19.724  0.00  0.00    +0.000 C 
ATOM     27  O   UNL     1       1.961   8.976  18.809  0.00  0.00    +0.000 OA
ATOM     28  H   UNL     1       0.412  10.793  18.802  0.00  0.00    +0.000 HD
ENDBRANCH  18  20
ENDBRANCH   1  17
TORSDOF 4
ENDMDL
MODEL 5
REMARK VINA RESULT:      -8.1      1.360      1.481
REMARK  Name = 
REMARK  4 active torsions:
REMARK  status: ('A' for Active; 'I' for Inactive)
REMARK    1  A    between atoms: C_2  and  C_12
REMARK    2  A    between atoms: N_3  and  C_4
REMARK    3  A    between atoms: C_16  and  N_17
REMARK    4  A    between atoms: C_21  and  C_22
REMARK                            x       y       z     vdW  Elec       q    Type
REMARK                         _______ _______ _______ _____ _____    ______ ____
ROOT
ATOM      1  C   UNL     1       3.059   7.419  17.914  0.00  0.00    +0.000 A 
ATOM      2  C   UNL     1       4.000   7.510  16.880  0.00  0.00    +0.000 A 
ATOM      3  C   UNL     1       4.843   6.436  16.603  0.00  0.00    +0.000 A 
ATOM      4  C   UNL     1       4.733   5.259  17.344  0.00  0.00    +0.000 A 
ATOM      5  C   UNL     1       3.743   5.130  18.333  0.00  0.00    +0.000 A 
ATOM      6  C   UNL     1       2.916   6.220  18.632  0.00  0.00    +0.000 A 
ENDROOT
BRANCH   5   7
ATOM      7  N   UNL     1       3.645   3.903  19.044  0.00  0.00    +0.000 N 
ATOM      8  N   UNL     1       4.800   3.296  19.432  0.00  0.00    +0.000 NA
ATOM      9  C   UNL     1       4.421   2.352  20.292  0.00  0.00    +0.000 A 
ATOM     10  C   UNL     1       3.031   2.240  20.363  0.00  0.00    +0.000 A 
ATOM     11  C   UNL     1       2.547   3.195  19.486  0.00  0.00    +0.000 A 
BRANCH  11  12
ATOM     12  C   UNL     1       1.168   3.379  19.011  0.00  0.00    +0.000 C 
ATOM     13  F   UNL     1       1.053   3.931  17.781  0.00  0.00    +0.000 F 
ATOM     14  F   UNL     1       0.517   2.187  18.946  0.00  0.00    +0.000 F 
ATOM     15  F   UNL     1       0.459   4.159  19.863  0.00  0.00    +0.000 F 
ENDBRANCH  11  12
ENDBRANCH   5   7
BRANCH   1  17
ATOM     16  O   UNL     1       2.179   9.551  17.429  0.00  0.00    +0.000 OA
ATOM     17  C   UNL     1       2.228   8.612  18.221  0.00  0.00    +0.000 C 
ATOM     18  N   UNL     1       1.584   8.614  19.438  0.00  0.00    +0.000 N 
ATOM     19  H   UNL     1       1.848   7.944  20.154  0.00  0.00    +0.000 HD
BRANCH  18  20
ATOM     20  C   UNL     1       0.865   9.798  19.907  0.00  0.00    +0.000 C 
ATOM     21  C   UNL     1      -0.508   9.888  19.234  0.00  0.00    +0.000 C 
ATOM     22  C   UNL     1      -1.066  11.310  19.201  0.00  0.00    +0.000 C 
ATOM     23  C   UNL     1      -1.440  11.880  20.567  0.00  0.00    +0.000 C 
ATOM     24  C   UNL     1      -0.266  11.995  21.531  0.00  0.00    +0.000 C 
ATOM     25  N   UNL     1       0.125  10.724  22.099  0.00  0.00    +0.000 N 
ATOM     26  C   UNL     1       0.738   9.698  21.437  0.00  0.00    +0.000 C 
ATOM     27  O   UNL     1       1.166   8.734  22.073  0.00  0.00    +0.000 OA
ATOM     28  H   UNL     1       0.116  10.614  23.107  0.00  0.00    +0.000 HD
ENDBRANCH  18  20
ENDBRANCH   1  17
TORSDOF 4
ENDMDL
MODEL 6
REMARK VINA RESULT:      -7.9      2.389      3.540
REMARK  Name = 
REMARK  4 active torsions:
REMARK  status: ('A' for Active; 'I' for Inactive)
REMARK    1  A    between atoms: C_2  and  C_12
REMARK    2  A    between atoms: N_3  and  C_4
REMARK    3  A    between atoms: C_16  and  N_17
REMARK    4  A    between atoms: C_21  and  C_22
REMARK                            x       y       z     vdW  Elec       q    Type
REMARK                         _______ _______ _______ _____ _____    ______ ____
ROOT
ATOM      1  C   UNL     1       2.634   7.256  18.859  0.00  0.00    +0.000 A 
ATOM      2  C   UNL     1       2.008   6.351  19.726  0.00  0.00    +0.000 A 
ATOM      3  C   UNL     1       2.610   5.128  20.016  0.00  0.00    +0.000 A 
ATOM      4  C   UNL     1       3.851   4.817  19.460  0.00  0.00    +0.000 A 
ATOM      5  C   UNL     1       4.521   5.749  18.650  0.00  0.00    +0.000 A 
ATOM      6  C   UNL     1       3.903   6.964  18.333  0.00  0.00    +0.000 A 
ENDROOT
BRANCH   5   7
ATOM      7  N   UNL     1       5.798   5.404  18.126  0.00  0.00    +0.000 N 
ATOM      8  N   UNL     1       6.891   5.631  18.906  0.00  0.00    +0.000 NA
ATOM      9  C   UNL     1       7.883   4.978  18.306  0.00  0.00    +0.000 A 
ATOM     10  C   UNL     1       7.490   4.448  17.076  0.00  0.00    +0.000 A 
ATOM     11  C   UNL     1       6.160   4.805  16.938  0.00  0.00    +0.000 A 
BRANCH  11  12
ATOM     12  C   UNL     1       5.304   4.688  15.748  0.00  0.00    +0.000 C 
ATOM     13  F   UNL     1       5.857   4.026  14.706  0.00  0.00    +0.000 F 
ATOM     14  F   UNL     1       4.156   4.022  16.044  0.00  0.00    +0.000 F 
ATOM     15  F   UNL     1       4.934   5.909  15.292  0.00  0.00    +0.000 F 
ENDBRANCH  11  12
ENDBRANCH   5   7
BRANCH   1  17
ATOM     16  O   UNL     1       2.046   9.017  17.406  0.00  0.00    +0.000 OA
ATOM     17  C   UNL     1       1.924   8.518  18.522  0.00  0.00    +0.000 C 
ATOM     18  N   UNL     1       1.189   9.095  19.534  0.00  0.00    +0.000 N 
ATOM     19  H   UNL     1       1.316   8.789  20.494  0.00  0.00    +0.000 HD
BRANCH  18  20
ATOM     20  C   UNL     1       0.576  10.412  19.361  0.00  0.00    +0.000 C 
ATOM     21  C   UNL     1      -0.883  10.265  18.918  0.00  0.00    +0.000 C 
ATOM     22  C   UNL     1      -1.411  11.494  18.180  0.00  0.00    +0.000 C 
ATOM     23  C   UNL     1      -1.556  12.745  19.045  0.00  0.00    +0.000 C 
ATOM     24  C   UNL     1      -0.244  13.239  19.641  0.00  0.00    +0.000 C 
ATOM     25  N   UNL     1       0.205  12.440  20.760  0.00  0.00    +0.000 N 
ATOM     26  C   UNL     1       0.686  11.163  20.699  0.00  0.00    +0.000 C 
ATOM     27  O   UNL     1       1.188  10.655  21.703  0.00  0.00    +0.000 OA
ATOM     28  H   UNL     1       0.350  12.890  21.657  0.00  0.00    +0.000 HD
ENDBRANCH  18  20
ENDBRANCH   1  17
TORSDOF 4
ENDMDL
MODEL 7
REMARK VINA RESULT:      -7.9      3.529      7.972
REMARK  Name = 
REMARK  4 active torsions:
REMARK  status: ('A' for Active; 'I' for Inactive)
REMARK    1  A    between atoms: C_2  and  C_12
REMARK    2  A    between atoms: N_3  and  C_4
REMARK    3  A    between atoms: C_16  and  N_17
REMARK    4  A    between atoms: C_21  and  C_22
REMARK                            x       y       z     vdW  Elec       q    Type
REMARK                         _______ _______ _______ _____ _____    ______ ____
ROOT
ATOM      1  C   UNL     1       1.816   8.080  19.322  0.00  0.00    +0.000 A 
ATOM      2  C   UNL     1       2.461   8.620  18.201  0.00  0.00    +0.000 A 
ATOM      3  C   UNL     1       2.230   9.943  17.830  0.00  0.00    +0.000 A 
ATOM      4  C   UNL     1       1.373  10.737  18.593  0.00  0.00    +0.000 A 
ATOM      5  C   UNL     1       0.782  10.228  19.761  0.00  0.00    +0.000 A 
ATOM      6  C   UNL     1       0.988   8.890  20.116  0.00  0.00    +0.000 A 
ENDROOT
BRANCH   5   7
ATOM      7  N   UNL     1      -0.062  11.080  20.526  0.00  0.00    +0.000 N 
ATOM      8  N   UNL     1       0.281  11.323  21.821  0.00  0.00    +0.000 NA
ATOM      9  C   UNL     1      -0.495  12.337  22.198  0.00  0.00    +0.000 A 
ATOM     10  C   UNL     1      -1.435  12.666  21.219  0.00  0.00    +0.000 A 
ATOM     11  C   UNL     1      -1.193  11.787  20.177  0.00  0.00    +0.000 A 
BRANCH  11  12
ATOM     12  C   UNL     1      -2.013  11.548  18.981  0.00  0.00    +0.000 C 
ATOM     13  F   UNL     1      -2.123  10.251  18.611  0.00  0.00    +0.000 F 
ATOM     14  F   UNL     1      -3.284  11.990  19.171  0.00  0.00    +0.000 F 
ATOM     15  F   UNL     1      -1.525  12.225  17.912  0.00  0.00    +0.000 F 
ENDBRANCH  11  12
ENDBRANCH   5   7
BRANCH   1  17
ATOM     16  O   UNL     1       1.793   6.217  20.766  0.00  0.00    +0.000 OA
ATOM     17  C   UNL     1       2.037   6.645  19.640  0.00  0.00    +0.000 C 
ATOM     18  N   UNL     1       2.568   5.870  18.634  0.00  0.00    +0.000 N 
ATOM     19  H   UNL     1       2.981   6.309  17.817  0.00  0.00    +0.000 HD
BRANCH  18  20
ATOM     20  C   UNL     1       2.967   4.484  18.883  0.00  0.00    +0.000 C 
ATOM     21  C   UNL     1       2.521   3.586  17.725  0.00  0.00    +0.000 C 
ATOM     22  C   UNL     1       2.369   2.120  18.130  0.00  0.00    +0.000 C 
ATOM     23  C   UNL     1       3.678   1.416  18.478  0.00  0.00    +0.000 C 
ATOM     24  C   UNL     1       4.411   2.026  19.667  0.00  0.00    +0.000 C 
ATOM     25  N   UNL     1       5.090   3.260  19.339  0.00  0.00    +0.000 N 
ATOM     26  C   UNL     1       4.495   4.458  19.060  0.00  0.00    +0.000 C 
ATOM     27  O   UNL     1       5.189   5.471  18.958  0.00  0.00    +0.000 OA
ATOM     28  H   UNL     1       6.090   3.323  19.487  0.00  0.00    +0.000 HD
ENDBRANCH  18  20
ENDBRANCH   1  17
TORSDOF 4
ENDMDL
MODEL 8
REMARK VINA RESULT:      -7.9      2.623      3.716
REMARK  Name = 
REMARK  4 active torsions:
REMARK  status: ('A' for Active; 'I' for Inactive)
REMARK    1  A    between atoms: C_2  and  C_12
REMARK    2  A    between atoms: N_3  and  C_4
REMARK    3  A    between atoms: C_16  and  N_17
REMARK    4  A    between atoms: C_21  and  C_22
REMARK                            x       y       z     vdW  Elec       q    Type
REMARK                         _______ _______ _______ _____ _____    ______ ____
ROOT
ATOM      1  C   UNL     1       2.499   7.276  18.181  0.00  0.00    +0.000 A 
ATOM      2  C   UNL     1       1.632   6.209  18.450  0.00  0.00    +0.000 A 
ATOM      3  C   UNL     1       2.103   4.897  18.411  0.00  0.00    +0.000 A 
ATOM      4  C   UNL     1       3.446   4.651  18.126  0.00  0.00    +0.000 A 
ATOM      5  C   UNL     1       4.339   5.718  17.930  0.00  0.00    +0.000 A 
ATOM      6  C   UNL     1       3.861   7.034  17.938  0.00  0.00    +0.000 A 
ENDROOT
BRANCH   5   7
ATOM      7  N   UNL     1       5.706   5.424  17.671  0.00  0.00    +0.000 N 
ATOM      8  N   UNL     1       6.577   5.462  18.717  0.00  0.00    +0.000 NA
ATOM      9  C   UNL     1       7.689   4.892  18.261  0.00  0.00    +0.000 A 
ATOM     10  C   UNL     1       7.608   4.610  16.896  0.00  0.00    +0.000 A 
ATOM     11  C   UNL     1       6.349   5.038  16.514  0.00  0.00    +0.000 A 
BRANCH  11  12
ATOM     12  C   UNL     1       5.807   5.174  15.154  0.00  0.00    +0.000 C 
ATOM     13  F   UNL     1       5.128   6.320  14.918  0.00  0.00    +0.000 F 
ATOM     14  F   UNL     1       6.806   5.137  14.231  0.00  0.00    +0.000 F 
ATOM     15  F   UNL     1       4.971   4.149  14.857  0.00  0.00    +0.000 F 
ENDBRANCH  11  12
ENDBRANCH   5   7
BRANCH   1  17
ATOM     16  O   UNL     1       2.171   9.404  17.221  0.00  0.00    +0.000 OA
ATOM     17  C   UNL     1       1.939   8.653  18.165  0.00  0.00    +0.000 C 
ATOM     18  N   UNL     1       1.214   9.031  19.273  0.00  0.00    +0.000 N 
ATOM     19  H   UNL     1       1.257   8.478  20.123  0.00  0.00    +0.000 HD
BRANCH  18  20
ATOM     20  C   UNL     1       0.747  10.409  19.432  0.00  0.00    +0.000 C 
ATOM     21  C   UNL     1      -0.688  10.548  18.912  0.00  0.00    +0.000 C 
ATOM     22  C   UNL     1      -1.041  11.978  18.507  0.00  0.00    +0.000 C 
ATOM     23  C   UNL     1      -1.118  12.969  19.666  0.00  0.00    +0.000 C 
ATOM     24  C   UNL     1       0.196  13.141  20.419  0.00  0.00    +0.000 C 
ATOM     25  N   UNL     1       0.488  12.034  21.303  0.00  0.00    +0.000 N 
ATOM     26  C   UNL     1       0.843  10.771  20.924  0.00  0.00    +0.000 C 
ATOM     27  O   UNL     1       1.225   9.966  21.775  0.00  0.00    +0.000 OA
ATOM     28  H   UNL     1       0.618  12.217  22.292  0.00  0.00    +0.000 HD
ENDBRANCH  18  20
ENDBRANCH   1  17
TORSDOF 4
ENDMDL
MODEL 9
REMARK VINA RESULT:      -7.9      2.550      4.088
REMARK  Name = 
REMARK  4 active torsions:
REMARK  status: ('A' for Active; 'I' for Inactive)
REMARK    1  A    between atoms: C_2  and  C_12
REMARK    2  A    between atoms: N_3  and  C_4
REMARK    3  A    between atoms: C_16  and  N_17
REMARK    4  A    between atoms: C_21  and  C_22
REMARK                            x       y       z     vdW  Elec       q    Type
REMARK                         _______ _______ _______ _____ _____    ______ ____
ROOT
ATOM      1  C   UNL     1       2.513   5.782  20.147  0.00  0.00    +0.000 A 
ATOM      2  C   UNL     1       2.098   4.531  20.623  0.00  0.00    +0.000 A 
ATOM      3  C   UNL     1       2.863   3.395  20.366  0.00  0.00    +0.000 A 
ATOM      4  C   UNL     1       4.057   3.510  19.654  0.00  0.00    +0.000 A 
ATOM      5  C   UNL     1       4.520   4.770  19.238  0.00  0.00    +0.000 A 
ATOM      6  C   UNL     1       3.736   5.907  19.469  0.00  0.00    +0.000 A 
ENDROOT
BRANCH   5   7
ATOM      7  N   UNL     1       5.757   4.846  18.541  0.00  0.00    +0.000 N 
ATOM      8  N   UNL     1       6.887   5.067  19.267  0.00  0.00    +0.000 NA
ATOM      9  C   UNL     1       7.889   4.818  18.428  0.00  0.00    +0.000 A 
ATOM     10  C   UNL     1       7.436   4.577  17.130  0.00  0.00    +0.000 A 
ATOM     11  C   UNL     1       6.057   4.682  17.205  0.00  0.00    +0.000 A 
BRANCH  11  12
ATOM     12  C   UNL     1       5.086   4.725  16.102  0.00  0.00    +0.000 C 
ATOM     13  F   UNL     1       4.013   3.914  16.250  0.00  0.00    +0.000 F 
ATOM     14  F   UNL     1       4.585   5.980  15.950  0.00  0.00    +0.000 F 
ATOM     15  F   UNL     1       5.671   4.399  14.924  0.00  0.00    +0.000 F 
ENDBRANCH  11  12
ENDBRANCH   5   7
BRANCH   1  17
ATOM     16  O   UNL     1       0.719   6.888  21.204  0.00  0.00    +0.000 OA
ATOM     17  C   UNL     1       1.632   6.956  20.384  0.00  0.00    +0.000 C 
ATOM     18  N   UNL     1       1.869   8.066  19.606  0.00  0.00    +0.000 N 
ATOM     19  H   UNL     1       2.459   7.994  18.782  0.00  0.00    +0.000 HD
BRANCH  18  20
ATOM     20  C   UNL     1       0.970   9.219  19.647  0.00  0.00    +0.000 C 
ATOM     21  C   UNL     1       1.217  10.042  20.916  0.00  0.00    +0.000 C 
ATOM     22  C   UNL     1       0.008  10.879  21.329  0.00  0.00    +0.000 C 
ATOM     23  C   UNL     1      -0.333  12.023  20.376  0.00  0.00    +0.000 C 
ATOM     24  C   UNL     1      -0.698  11.565  18.969  0.00  0.00    +0.000 C 
ATOM     25  N   UNL     1       0.453  11.171  18.186  0.00  0.00    +0.000 N 
ATOM     26  C   UNL     1       1.215  10.054  18.378  0.00  0.00    +0.000 C 
ATOM     27  O   UNL     1       2.066   9.749  17.541  0.00  0.00    +0.000 OA
ATOM     28  H   UNL     1       0.636  11.648  17.311  0.00  0.00    +0.000 HD
ENDBRANCH  18  20
ENDBRANCH   1  17
TORSDOF 4
ENDMDL
