MODEL 1
REMARK VINA RESULT:      -8.8      0.000      0.000
REMARK  Name = 
REMARK  4 active torsions:
REMARK  status: ('A' for Active; 'I' for Inactive)
REMARK    1  A    between atoms: C_2  and  C_16
REMARK    2  A    between atoms: N_3  and  C_4
REMARK    3  A    between atoms: C_9  and  C_10
REMARK    4  A    between atoms: C_20  and  C_21
REMARK                            x       y       z     vdW  Elec       q    Type
REMARK                         _______ _______ _______ _____ _____    ______ ____
ROOT
ATOM      1  O   UNL     1       1.459   4.768  18.678  0.00  0.00    +0.000 OA
ATOM      2  C   UNL     1       2.420   5.030  19.389  0.00  0.00    +0.000 C 
ATOM      3  N   UNL     1       2.782   6.289  19.854  0.00  0.00    +0.000 N 
ATOM      4  H   UNL     1       3.677   6.356  20.325  0.00  0.00    +0.000 HD
ENDROOT
BRANCH   3   5
ATOM      5  C   UNL     1       2.163   7.509  19.492  0.00  0.00    +0.000 A 
ATOM      6  C   UNL     1       2.322   8.084  18.225  0.00  0.00    +0.000 A 
ATOM      7  C   UNL     1       1.819   9.347  17.906  0.00  0.00    +0.000 A 
ATOM      8  C   UNL     1       1.140  10.015  18.916  0.00  0.00    +0.000 A 
ATOM      9  N   UNL     1       0.584  11.261  18.968  0.00  0.00    +0.000 N 
ATOM     10  C   UNL     1       0.044  11.438  20.217  0.00  0.00    +0.000 A 
ATOM     11  N   UNL     1       0.206  10.356  20.959  0.00  0.00    +0.000 NA
ATOM     12  C   UNL     1       0.904   9.467  20.170  0.00  0.00    +0.000 A 
ATOM     13  C   UNL     1       1.399   8.183  20.465  0.00  0.00    +0.000 A 
ATOM     14  H   UNL     1       0.600  11.953  18.231  0.00  0.00    +0.000 HD
BRANCH  10  15
ATOM     15  C   UNL     1      -0.593  12.736  20.572  0.00  0.00    +0.000 C 
ATOM     16  F   UNL     1      -1.649  12.991  19.748  0.00  0.00    +0.000 F 
ATOM     17  F   UNL     1      -1.119  12.683  21.828  0.00  0.00    +0.000 F 
ENDBRANCH  10  15
ENDBRANCH   3   5
BRANCH   2  18
ATOM     18  C   UNL     1       3.342   3.975  19.776  0.00  0.00    +0.000 A 
ATOM     19  C   UNL     1       3.106   2.980  20.704  0.00  0.00    +0.000 A 
ATOM     20  N   UNL     1       4.183   2.153  20.647  0.00  0.00    +0.000 N 
ATOM     21  N   UNL     1       5.142   2.578  19.818  0.00  0.00    +0.000 NA
ATOM     22  C   UNL     1       4.645   3.688  19.242  0.00  0.00    +0.000 A 
ATOM     23  H   UNL     1       4.337   1.284  21.147  0.00  0.00    +0.000 HD
BRANCH  22  24
ATOM     24  C   UNL     1       5.440   4.438  18.261  0.00  0.00    +0.000 A 
ATOM     25  C   UNL     1       6.507   5.258  18.653  0.00  0.00    +0.000 A 
ATOM     26  F   UNL     1       6.874   5.359  19.940  0.00  0.00    +0.000 F 
ATOM     27  C   UNL     1       7.238   6.006  17.722  0.00  0.00    +0.000 A 
ATOM     28  C   UNL     1       6.935   5.929  16.367  0.00  0.00    +0.000 A 
ATOM     29  C   UNL     1       5.883   5.118  15.952  0.00  0.00    +0.000 A 
ATOM     30  C   UNL     1       5.137   4.404  16.893  0.00  0.00    +0.000 A 
ATOM     31  F   UNL     1       4.078   3.718  16.439  0.00  0.00    +0.000 F 
ENDBRANCH  22  24
ENDBRANCH   2  18
TORSDOF 4
ENDMDL
MODEL 2
REMARK VINA RESULT:      -8.7      0.356      1.603
REMARK  Name = 
REMARK  4 active torsions:
REMARK  status: ('A' for Active; 'I' for Inactive)
REMARK    1  A    between atoms: C_2  and  C_16
REMARK    2  A    between atoms: N_3  and  C_4
REMARK    3  A    between atoms: C_9  and  C_10
REMARK    4  A    between atoms: C_20  and  C_21
REMARK                            x       y       z     vdW  Elec       q    Type
REMARK                         _______ _______ _______ _____ _____    ______ ____
ROOT
ATOM      1  O   UNL     1       1.541   4.841  18.540  0.00  0.00    +0.000 OA
ATOM      2  C   UNL     1       2.439   5.068  19.340  0.00  0.00    +0.000 C 
ATOM      3  N   UNL     1       2.730   6.295  19.924  0.00  0.00    +0.000 N 
ATOM      4  H   UNL     1       3.586   6.345  20.466  0.00  0.00    +0.000 HD
ENDROOT
BRANCH   3   5
ATOM      5  C   UNL     1       2.107   7.526  19.607  0.00  0.00    +0.000 A 
ATOM      6  C   UNL     1       2.233   8.130  18.350  0.00  0.00    +0.000 A 
ATOM      7  C   UNL     1       1.728   9.402  18.075  0.00  0.00    +0.000 A 
ATOM      8  C   UNL     1       1.080  10.048  19.118  0.00  0.00    +0.000 A 
ATOM      9  N   UNL     1       0.531  11.295  19.215  0.00  0.00    +0.000 N 
ATOM     10  C   UNL     1       0.027  11.446  20.482  0.00  0.00    +0.000 A 
ATOM     11  N   UNL     1       0.205  10.346  21.193  0.00  0.00    +0.000 NA
ATOM     12  C   UNL     1       0.877   9.473  20.366  0.00  0.00    +0.000 A 
ATOM     13  C   UNL     1       1.374   8.180  20.616  0.00  0.00    +0.000 A 
ATOM     14  H   UNL     1       0.529  12.003  18.493  0.00  0.00    +0.000 HD
BRANCH  10  15
ATOM     15  C   UNL     1      -0.594  12.738  20.884  0.00  0.00    +0.000 C 
ATOM     16  F   UNL     1      -1.948  12.609  20.973  0.00  0.00    +0.000 F 
ATOM     17  F   UNL     1      -0.181  13.098  22.132  0.00  0.00    +0.000 F 
ENDBRANCH  10  15
ENDBRANCH   3   5
BRANCH   2  18
ATOM     18  C   UNL     1       3.358   4.007  19.717  0.00  0.00    +0.000 A 
ATOM     19  C   UNL     1       3.111   2.991  20.620  0.00  0.00    +0.000 A 
ATOM     20  N   UNL     1       4.192   2.169  20.560  0.00  0.00    +0.000 N 
ATOM     21  N   UNL     1       5.160   2.613  19.753  0.00  0.00    +0.000 NA
ATOM     22  C   UNL     1       4.668   3.734  19.194  0.00  0.00    +0.000 A 
ATOM     23  H   UNL     1       4.340   1.289  21.043  0.00  0.00    +0.000 HD
BRANCH  22  24
ATOM     24  C   UNL     1       5.475   4.506  18.241  0.00  0.00    +0.000 A 
ATOM     25  C   UNL     1       5.248   4.436  16.859  0.00  0.00    +0.000 A 
ATOM     26  F   UNL     1       4.253   3.691  16.352  0.00  0.00    +0.000 F 
ATOM     27  C   UNL     1       6.044   5.141  15.948  0.00  0.00    +0.000 A 
ATOM     28  C   UNL     1       7.075   5.957  16.401  0.00  0.00    +0.000 A 
ATOM     29  C   UNL     1       7.317   6.048  17.768  0.00  0.00    +0.000 A 
ATOM     30  C   UNL     1       6.539   5.313  18.667  0.00  0.00    +0.000 A 
ATOM     31  F   UNL     1       6.886   5.369  19.961  0.00  0.00    +0.000 F 
ENDBRANCH  22  24
ENDBRANCH   2  18
TORSDOF 4
ENDMDL
MODEL 3
REMARK VINA RESULT:      -8.7      3.522      7.705
REMARK  Name = 
REMARK  4 active torsions:
REMARK  status: ('A' for Active; 'I' for Inactive)
REMARK    1  A    between atoms: C_2  and  C_16
REMARK    2  A    between atoms: N_3  and  C_4
REMARK    3  A    between atoms: C_9  and  C_10
REMARK    4  A    between atoms: C_20  and  C_21
REMARK                            x       y       z     vdW  Elec       q    Type
REMARK                         _______ _______ _______ _____ _____    ______ ____
ROOT
ATOM      1  O   UNL     1       3.045   7.880  17.478  0.00  0.00    +0.000 OA
ATOM      2  C   UNL     1       3.229   7.160  18.450  0.00  0.00    +0.000 C 
ATOM      3  N   UNL     1       4.243   6.222  18.600  0.00  0.00    +0.000 N 
ATOM      4  H   UNL     1       4.180   5.616  19.410  0.00  0.00    +0.000 HD
ENDROOT
BRANCH   3   5
ATOM      5  C   UNL     1       5.178   5.855  17.603  0.00  0.00    +0.000 A 
ATOM      6  C   UNL     1       6.491   6.341  17.590  0.00  0.00    +0.000 A 
ATOM      7  C   UNL     1       7.376   6.084  16.542  0.00  0.00    +0.000 A 
ATOM      8  C   UNL     1       6.890   5.307  15.500  0.00  0.00    +0.000 A 
ATOM      9  N   UNL     1       7.450   4.920  14.315  0.00  0.00    +0.000 N 
ATOM     10  C   UNL     1       6.530   4.166  13.631  0.00  0.00    +0.000 A 
ATOM     11  N   UNL     1       5.417   4.031  14.332  0.00  0.00    +0.000 NA
ATOM     12  C   UNL     1       5.617   4.752  15.489  0.00  0.00    +0.000 A 
ATOM     13  C   UNL     1       4.747   5.005  16.566  0.00  0.00    +0.000 A 
ATOM     14  H   UNL     1       8.368   5.176  13.978  0.00  0.00    +0.000 HD
BRANCH  10  15
ATOM     15  C   UNL     1       6.859   3.646  12.276  0.00  0.00    +0.000 C 
ATOM     16  F   UNL     1       5.731   3.220  11.641  0.00  0.00    +0.000 F 
ATOM     17  F   UNL     1       7.362   4.641  11.492  0.00  0.00    +0.000 F 
ENDBRANCH  10  15
ENDBRANCH   3   5
BRANCH   2  18
ATOM     18  C   UNL     1       2.300   7.203  19.568  0.00  0.00    +0.000 A 
ATOM     19  C   UNL     1       1.857   8.336  20.222  0.00  0.00    +0.000 A 
ATOM     20  N   UNL     1       0.914   7.913  21.104  0.00  0.00    +0.000 N 
ATOM     21  N   UNL     1       0.768   6.584  21.137  0.00  0.00    +0.000 NA
ATOM     22  C   UNL     1       1.590   6.115  20.181  0.00  0.00    +0.000 A 
ATOM     23  H   UNL     1       0.331   8.471  21.719  0.00  0.00    +0.000 HD
BRANCH  22  24
ATOM     24  C   UNL     1       1.697   4.671  19.933  0.00  0.00    +0.000 A 
ATOM     25  C   UNL     1       2.135   3.785  20.927  0.00  0.00    +0.000 A 
ATOM     26  F   UNL     1       2.435   4.214  22.162  0.00  0.00    +0.000 F 
ATOM     27  C   UNL     1       2.275   2.414  20.678  0.00  0.00    +0.000 A 
ATOM     28  C   UNL     1       1.955   1.891  19.429  0.00  0.00    +0.000 A 
ATOM     29  C   UNL     1       1.513   2.750  18.428  0.00  0.00    +0.000 A 
ATOM     30  C   UNL     1       1.410   4.121  18.676  0.00  0.00    +0.000 A 
ATOM     31  F   UNL     1       1.072   4.905  17.642  0.00  0.00    +0.000 F 
ENDBRANCH  22  24
ENDBRANCH   2  18
TORSDOF 4
ENDMDL
MODEL 4
REMARK VINA RESULT:      -8.7      3.540      7.820
REMARK  Name = 
REMARK  4 active torsions:
REMARK  status: ('A' for Active; 'I' for Inactive)
REMARK    1  A    between atoms: C_2  and  C_16
REMARK    2  A    between atoms: N_3  and  C_4
REMARK    3  A    between atoms: C_9  and  C_10
REMARK    4  A    between atoms: C_20  and  C_21
REMARK                            x       y       z     vdW  Elec       q    Type
REMARK                         _______ _______ _______ _____ _____    ______ ____
ROOT
ATOM      1  O   UNL     1       3.058   7.932  17.557  0.00  0.00    +0.000 OA
ATOM      2  C   UNL     1       3.229   7.175  18.504  0.00  0.00    +0.000 C 
ATOM      3  N   UNL     1       4.227   6.217  18.622  0.00  0.00    +0.000 N 
ATOM      4  H   UNL     1       4.154   5.583  19.411  0.00  0.00    +0.000 HD
ENDROOT
BRANCH   3   5
ATOM      5  C   UNL     1       5.159   5.870  17.614  0.00  0.00    +0.000 A 
ATOM      6  C   UNL     1       6.459   6.389  17.582  0.00  0.00    +0.000 A 
ATOM      7  C   UNL     1       7.336   6.151  16.523  0.00  0.00    +0.000 A 
ATOM      8  C   UNL     1       6.856   5.357  15.490  0.00  0.00    +0.000 A 
ATOM      9  N   UNL     1       7.410   4.980  14.300  0.00  0.00    +0.000 N 
ATOM     10  C   UNL     1       6.501   4.200  13.631  0.00  0.00    +0.000 A 
ATOM     11  N   UNL     1       5.401   4.039  14.347  0.00  0.00    +0.000 NA
ATOM     12  C   UNL     1       5.597   4.770  15.498  0.00  0.00    +0.000 A 
ATOM     13  C   UNL     1       4.736   5.005  16.586  0.00  0.00    +0.000 A 
ATOM     14  H   UNL     1       8.317   5.258  13.950  0.00  0.00    +0.000 HD
BRANCH  10  15
ATOM     15  C   UNL     1       6.825   3.683  12.273  0.00  0.00    +0.000 C 
ATOM     16  F   UNL     1       5.683   3.415  11.578  0.00  0.00    +0.000 F 
ATOM     17  F   UNL     1       7.479   4.631  11.544  0.00  0.00    +0.000 F 
ENDBRANCH  10  15
ENDBRANCH   3   5
BRANCH   2  18
ATOM     18  C   UNL     1       2.299   7.194  19.621  0.00  0.00    +0.000 A 
ATOM     19  C   UNL     1       1.847   8.314  20.292  0.00  0.00    +0.000 A 
ATOM     20  N   UNL     1       0.906   7.869  21.167  0.00  0.00    +0.000 N 
ATOM     21  N   UNL     1       0.770   6.540  21.178  0.00  0.00    +0.000 NA
ATOM     22  C   UNL     1       1.597   6.091  20.216  0.00  0.00    +0.000 A 
ATOM     23  H   UNL     1       0.319   8.414  21.789  0.00  0.00    +0.000 HD
BRANCH  22  24
ATOM     24  C   UNL     1       1.713   4.652  19.946  0.00  0.00    +0.000 A 
ATOM     25  C   UNL     1       1.413   4.114  18.687  0.00  0.00    +0.000 A 
ATOM     26  F   UNL     1       1.046   4.898  17.662  0.00  0.00    +0.000 F 
ATOM     27  C   UNL     1       1.484   2.737  18.441  0.00  0.00    +0.000 A 
ATOM     28  C   UNL     1       1.886   1.865  19.447  0.00  0.00    +0.000 A 
ATOM     29  C   UNL     1       2.195   2.375  20.704  0.00  0.00    +0.000 A 
ATOM     30  C   UNL     1       2.086   3.747  20.949  0.00  0.00    +0.000 A 
ATOM     31  F   UNL     1       2.304   4.162  22.205  0.00  0.00    +0.000 F 
ENDBRANCH  22  24
ENDBRANCH   2  18
TORSDOF 4
ENDMDL
MODEL 5
REMARK VINA RESULT:      -8.5      1.027      1.115
REMARK  Name = 
REMARK  4 active torsions:
REMARK  status: ('A' for Active; 'I' for Inactive)
REMARK    1  A    between atoms: C_2  and  C_16
REMARK    2  A    between atoms: N_3  and  C_4
REMARK    3  A    between atoms: C_9  and  C_10
REMARK    4  A    between atoms: C_20  and  C_21
REMARK                            x       y       z     vdW  Elec       q    Type
REMARK                         _______ _______ _______ _____ _____    ______ ____
ROOT
ATOM      1  O   UNL     1       2.161   5.722  18.084  0.00  0.00    +0.000 OA
ATOM      2  C   UNL     1       2.511   5.606  19.251  0.00  0.00    +0.000 C 
ATOM      3  N   UNL     1       2.306   6.530  20.268  0.00  0.00    +0.000 N 
ATOM      4  H   UNL     1       2.770   6.341  21.150  0.00  0.00    +0.000 HD
ENDROOT
BRANCH   3   5
ATOM      5  C   UNL     1       1.754   7.824  20.106  0.00  0.00    +0.000 A 
ATOM      6  C   UNL     1       1.780   8.502  18.881  0.00  0.00    +0.000 A 
ATOM      7  C   UNL     1       1.353   9.825  18.748  0.00  0.00    +0.000 A 
ATOM      8  C   UNL     1       0.890  10.444  19.901  0.00  0.00    +0.000 A 
ATOM      9  N   UNL     1       0.462  11.719  20.140  0.00  0.00    +0.000 N 
ATOM     10  C   UNL     1       0.126  11.817  21.466  0.00  0.00    +0.000 A 
ATOM     11  N   UNL     1       0.294  10.660  22.083  0.00  0.00    +0.000 NA
ATOM     12  C   UNL     1       0.789   9.799  21.127  0.00  0.00    +0.000 A 
ATOM     13  C   UNL     1       1.203   8.459  21.236  0.00  0.00    +0.000 A 
ATOM     14  H   UNL     1       0.434  12.474  19.468  0.00  0.00    +0.000 HD
BRANCH  10  15
ATOM     15  C   UNL     1      -0.333  13.121  22.019  0.00  0.00    +0.000 C 
ATOM     16  F   UNL     1      -0.827  12.958  23.279  0.00  0.00    +0.000 F 
ATOM     17  F   UNL     1       0.716  13.981  22.150  0.00  0.00    +0.000 F 
ENDBRANCH  10  15
ENDBRANCH   3   5
BRANCH   2  18
ATOM     18  C   UNL     1       3.264   4.434  19.666  0.00  0.00    +0.000 A 
ATOM     19  C   UNL     1       2.870   3.495  20.599  0.00  0.00    +0.000 A 
ATOM     20  N   UNL     1       3.819   2.522  20.573  0.00  0.00    +0.000 N 
ATOM     21  N   UNL     1       4.843   2.794  19.758  0.00  0.00    +0.000 NA
ATOM     22  C   UNL     1       4.521   3.956  19.161  0.00  0.00    +0.000 A 
ATOM     23  H   UNL     1       3.836   1.646  21.083  0.00  0.00    +0.000 HD
BRANCH  22  24
ATOM     24  C   UNL     1       5.434   4.572  18.190  0.00  0.00    +0.000 A 
ATOM     25  C   UNL     1       6.538   5.334  18.598  0.00  0.00    +0.000 A 
ATOM     26  F   UNL     1       6.832   5.496  19.898  0.00  0.00    +0.000 F 
ATOM     27  C   UNL     1       7.384   5.955  17.672  0.00  0.00    +0.000 A 
ATOM     28  C   UNL     1       7.159   5.808  16.307  0.00  0.00    +0.000 A 
ATOM     29  C   UNL     1       6.073   5.053  15.876  0.00  0.00    +0.000 A 
ATOM     30  C   UNL     1       5.215   4.466  16.810  0.00  0.00    +0.000 A 
ATOM     31  F   UNL     1       4.133   3.834  16.331  0.00  0.00    +0.000 F 
ENDBRANCH  22  24
ENDBRANCH   2  18
TORSDOF 4
ENDMDL
MODEL 6
REMARK VINA RESULT:      -8.4      2.321      3.942
REMARK  Name = 
REMARK  4 active torsions:
REMARK  status: ('A' for Active; 'I' for Inactive)
REMARK    1  A    between atoms: C_2  and  C_16
REMARK    2  A    between atoms: N_3  and  C_4
REMARK    3  A    between atoms: C_9  and  C_10
REMARK    4  A    between atoms: C_20  and  C_21
REMARK                            x       y       z     vdW  Elec       q    Type
REMARK                         _______ _______ _______ _____ _____    ______ ____
ROOT
ATOM      1  O   UNL     1       5.283   7.659  17.467  0.00  0.00    +0.000 OA
ATOM      2  C   UNL     1       4.559   6.711  17.192  0.00  0.00    +0.000 C 
ATOM      3  N   UNL     1       3.195   6.617  17.443  0.00  0.00    +0.000 N 
ATOM      4  H   UNL     1       2.766   5.714  17.271  0.00  0.00    +0.000 HD
ENDROOT
BRANCH   3   5
ATOM      5  C   UNL     1       2.424   7.558  18.166  0.00  0.00    +0.000 A 
ATOM      6  C   UNL     1       2.040   8.790  17.623  0.00  0.00    +0.000 A 
ATOM      7  C   UNL     1       1.391   9.772  18.374  0.00  0.00    +0.000 A 
ATOM      8  C   UNL     1       1.135   9.464  19.703  0.00  0.00    +0.000 A 
ATOM      9  N   UNL     1       0.584  10.196  20.716  0.00  0.00    +0.000 N 
ATOM     10  C   UNL     1       0.574   9.421  21.849  0.00  0.00    +0.000 A 
ATOM     11  N   UNL     1       1.069   8.220  21.603  0.00  0.00    +0.000 NA
ATOM     12  C   UNL     1       1.442   8.237  20.277  0.00  0.00    +0.000 A 
ATOM     13  C   UNL     1       2.076   7.252  19.496  0.00  0.00    +0.000 A 
ATOM     14  H   UNL     1       0.273  11.156  20.658  0.00  0.00    +0.000 HD
BRANCH  10  15
ATOM     15  C   UNL     1       0.066   9.987  23.129  0.00  0.00    +0.000 C 
ATOM     16  F   UNL     1      -1.288  10.137  23.080  0.00  0.00    +0.000 F 
ATOM     17  F   UNL     1       0.298   9.124  24.158  0.00  0.00    +0.000 F 
ENDBRANCH  10  15
ENDBRANCH   3   5
BRANCH   2  18
ATOM     18  C   UNL     1       5.128   5.517  16.591  0.00  0.00    +0.000 A 
ATOM     19  C   UNL     1       6.069   5.477  15.580  0.00  0.00    +0.000 A 
ATOM     20  N   UNL     1       6.398   4.167  15.428  0.00  0.00    +0.000 N 
ATOM     21  N   UNL     1       5.684   3.342  16.201  0.00  0.00    +0.000 NA
ATOM     22  C   UNL     1       4.908   4.144  16.953  0.00  0.00    +0.000 A 
ATOM     23  H   UNL     1       7.097   3.760  14.816  0.00  0.00    +0.000 HD
BRANCH  22  24
ATOM     24  C   UNL     1       3.972   3.573  17.930  0.00  0.00    +0.000 A 
ATOM     25  C   UNL     1       2.721   3.073  17.544  0.00  0.00    +0.000 A 
ATOM     26  F   UNL     1       2.342   3.056  16.256  0.00  0.00    +0.000 F 
ATOM     27  C   UNL     1       1.812   2.566  18.481  0.00  0.00    +0.000 A 
ATOM     28  C   UNL     1       2.146   2.523  19.830  0.00  0.00    +0.000 A 
ATOM     29  C   UNL     1       3.385   3.009  20.238  0.00  0.00    +0.000 A 
ATOM     30  C   UNL     1       4.270   3.545  19.299  0.00  0.00    +0.000 A 
ATOM     31  F   UNL     1       5.405   4.084  19.768  0.00  0.00    +0.000 F 
ENDBRANCH  22  24
ENDBRANCH   2  18
TORSDOF 4
ENDMDL
MODEL 7
REMARK VINA RESULT:      -8.3      1.899      3.669
REMARK  Name = 
REMARK  4 active torsions:
REMARK  status: ('A' for Active; 'I' for Inactive)
REMARK    1  A    between atoms: C_2  and  C_16
REMARK    2  A    between atoms: N_3  and  C_4
REMARK    3  A    between atoms: C_9  and  C_10
REMARK    4  A    between atoms: C_20  and  C_21
REMARK                            x       y       z     vdW  Elec       q    Type
REMARK                         _______ _______ _______ _____ _____    ______ ____
ROOT
ATOM      1  O   UNL     1       3.626   7.387  17.255  0.00  0.00    +0.000 OA
ATOM      2  C   UNL     1       3.603   6.766  18.310  0.00  0.00    +0.000 C 
ATOM      3  N   UNL     1       2.769   7.013  19.393  0.00  0.00    +0.000 N 
ATOM      4  H   UNL     1       2.964   6.491  20.241  0.00  0.00    +0.000 HD
ENDROOT
BRANCH   3   5
ATOM      5  C   UNL     1       1.873   8.103  19.511  0.00  0.00    +0.000 A 
ATOM      6  C   UNL     1       1.679   9.029  18.479  0.00  0.00    +0.000 A 
ATOM      7  C   UNL     1       0.895  10.174  18.637  0.00  0.00    +0.000 A 
ATOM      8  C   UNL     1       0.305  10.352  19.880  0.00  0.00    +0.000 A 
ATOM      9  N   UNL     1      -0.457  11.365  20.389  0.00  0.00    +0.000 N 
ATOM     10  C   UNL     1      -0.776  11.053  21.686  0.00  0.00    +0.000 A 
ATOM     11  N   UNL     1      -0.276   9.877  22.025  0.00  0.00    +0.000 NA
ATOM     12  C   UNL     1       0.417   9.436  20.919  0.00  0.00    +0.000 A 
ATOM     13  C   UNL     1       1.193   8.277  20.732  0.00  0.00    +0.000 A 
ATOM     14  H   UNL     1      -0.712  12.218  19.910  0.00  0.00    +0.000 HD
BRANCH  10  15
ATOM     15  C   UNL     1      -1.569  12.010  22.505  0.00  0.00    +0.000 C 
ATOM     16  F   UNL     1      -2.219  11.356  23.510  0.00  0.00    +0.000 F 
ATOM     17  F   UNL     1      -0.747  12.902  23.127  0.00  0.00    +0.000 F 
ENDBRANCH  10  15
ENDBRANCH   3   5
BRANCH   2  18
ATOM     18  C   UNL     1       4.552   5.688  18.534  0.00  0.00    +0.000 A 
ATOM     19  C   UNL     1       5.925   5.766  18.409  0.00  0.00    +0.000 A 
ATOM     20  N   UNL     1       6.407   4.568  18.835  0.00  0.00    +0.000 N 
ATOM     21  N   UNL     1       5.452   3.686  19.146  0.00  0.00    +0.000 NA
ATOM     22  C   UNL     1       4.293   4.353  18.997  0.00  0.00    +0.000 A 
ATOM     23  H   UNL     1       7.374   4.279  18.937  0.00  0.00    +0.000 HD
BRANCH  22  24
ATOM     24  C   UNL     1       3.011   3.684  19.253  0.00  0.00    +0.000 A 
ATOM     25  C   UNL     1       2.351   2.953  18.255  0.00  0.00    +0.000 A 
ATOM     26  F   UNL     1       2.887   2.798  17.034  0.00  0.00    +0.000 F 
ATOM     27  C   UNL     1       1.109   2.349  18.486  0.00  0.00    +0.000 A 
ATOM     28  C   UNL     1       0.506   2.442  19.736  0.00  0.00    +0.000 A 
ATOM     29  C   UNL     1       1.143   3.158  20.745  0.00  0.00    +0.000 A 
ATOM     30  C   UNL     1       2.366   3.786  20.493  0.00  0.00    +0.000 A 
ATOM     31  F   UNL     1       2.879   4.539  21.476  0.00  0.00    +0.000 F 
ENDBRANCH  22  24
ENDBRANCH   2  18
TORSDOF 4
ENDMDL
MODEL 8
REMARK VINA RESULT:      -8.3      1.886      3.382
REMARK  Name = 
REMARK  4 active torsions:
REMARK  status: ('A' for Active; 'I' for Inactive)
REMARK    1  A    between atoms: C_2  and  C_16
REMARK    2  A    between atoms: N_3  and  C_4
REMARK    3  A    between atoms: C_9  and  C_10
REMARK    4  A    between atoms: C_20  and  C_21
REMARK                            x       y       z     vdW  Elec       q    Type
REMARK                         _______ _______ _______ _____ _____    ______ ____
ROOT
ATOM      1  O   UNL     1       3.829   7.408  17.302  0.00  0.00    +0.000 OA
ATOM      2  C   UNL     1       3.706   6.725  18.310  0.00  0.00    +0.000 C 
ATOM      3  N   UNL     1       2.795   6.933  19.339  0.00  0.00    +0.000 N 
ATOM      4  H   UNL     1       2.908   6.355  20.165  0.00  0.00    +0.000 HD
ENDROOT
BRANCH   3   5
ATOM      5  C   UNL     1       1.923   8.042  19.454  0.00  0.00    +0.000 A 
ATOM      6  C   UNL     1       1.752   8.973  18.422  0.00  0.00    +0.000 A 
ATOM      7  C   UNL     1       0.993  10.135  18.578  0.00  0.00    +0.000 A 
ATOM      8  C   UNL     1       0.402  10.324  19.820  0.00  0.00    +0.000 A 
ATOM      9  N   UNL     1      -0.340  11.353  20.326  0.00  0.00    +0.000 N 
ATOM     10  C   UNL     1      -0.670  11.047  21.622  0.00  0.00    +0.000 A 
ATOM     11  N   UNL     1      -0.196   9.860  21.962  0.00  0.00    +0.000 NA
ATOM     12  C   UNL     1       0.491   9.405  20.858  0.00  0.00    +0.000 A 
ATOM     13  C   UNL     1       1.242   8.230  20.673  0.00  0.00    +0.000 A 
ATOM     14  H   UNL     1      -0.574  12.212  19.847  0.00  0.00    +0.000 HD
BRANCH  10  15
ATOM     15  C   UNL     1      -1.445  12.021  22.439  0.00  0.00    +0.000 C 
ATOM     16  F   UNL     1      -2.121  11.379  23.434  0.00  0.00    +0.000 F 
ATOM     17  F   UNL     1      -0.606  12.887  23.073  0.00  0.00    +0.000 F 
ENDBRANCH  10  15
ENDBRANCH   3   5
BRANCH   2  18
ATOM     18  C   UNL     1       4.604   5.606  18.540  0.00  0.00    +0.000 A 
ATOM     19  C   UNL     1       5.980   5.621  18.417  0.00  0.00    +0.000 A 
ATOM     20  N   UNL     1       6.406   4.404  18.848  0.00  0.00    +0.000 N 
ATOM     21  N   UNL     1       5.411   3.567  19.161  0.00  0.00    +0.000 NA
ATOM     22  C   UNL     1       4.284   4.286  19.007  0.00  0.00    +0.000 A 
ATOM     23  H   UNL     1       7.359   4.072  18.953  0.00  0.00    +0.000 HD
BRANCH  22  24
ATOM     24  C   UNL     1       2.972   3.676  19.262  0.00  0.00    +0.000 A 
ATOM     25  C   UNL     1       2.333   3.800  20.503  0.00  0.00    +0.000 A 
ATOM     26  F   UNL     1       2.874   4.520  21.499  0.00  0.00    +0.000 F 
ATOM     27  C   UNL     1       1.101   3.185  20.759  0.00  0.00    +0.000 A 
ATOM     28  C   UNL     1       0.466   2.447  19.766  0.00  0.00    +0.000 A 
ATOM     29  C   UNL     1       1.078   2.314  18.524  0.00  0.00    +0.000 A 
ATOM     30  C   UNL     1       2.323   2.903  18.290  0.00  0.00    +0.000 A 
ATOM     31  F   UNL     1       2.903   2.655  17.106  0.00  0.00    +0.000 F 
ENDBRANCH  22  24
ENDBRANCH   2  18
TORSDOF 4
ENDMDL
MODEL 9
REMARK VINA RESULT:      -8.3      1.957      3.589
REMARK  Name = 
REMARK  4 active torsions:
REMARK  status: ('A' for Active; 'I' for Inactive)
REMARK    1  A    between atoms: C_2  and  C_16
REMARK    2  A    between atoms: N_3  and  C_4
REMARK    3  A    between atoms: C_9  and  C_10
REMARK    4  A    between atoms: C_20  and  C_21
REMARK                            x       y       z     vdW  Elec       q    Type
REMARK                         _______ _______ _______ _____ _____    ______ ____
ROOT
ATOM      1  O   UNL     1       4.791   7.306  17.791  0.00  0.00    +0.000 OA
ATOM      2  C   UNL     1       3.946   6.420  17.792  0.00  0.00    +0.000 C 
ATOM      3  N   UNL     1       2.649   6.520  18.280  0.00  0.00    +0.000 N 
ATOM      4  H   UNL     1       2.116   5.658  18.326  0.00  0.00    +0.000 HD
ENDROOT
BRANCH   3   5
ATOM      5  C   UNL     1       2.111   7.636  18.966  0.00  0.00    +0.000 A 
ATOM      6  C   UNL     1       1.878   7.626  20.347  0.00  0.00    +0.000 A 
ATOM      7  C   UNL     1       1.230   8.674  21.005  0.00  0.00    +0.000 A 
ATOM      8  C   UNL     1       0.828   9.743  20.218  0.00  0.00    +0.000 A 
ATOM      9  N   UNL     1       0.133  10.881  20.515  0.00  0.00    +0.000 N 
ATOM     10  C   UNL     1      -0.015  11.607  19.360  0.00  0.00    +0.000 A 
ATOM     11  N   UNL     1       0.573  11.002  18.343  0.00  0.00    +0.000 NA
ATOM     12  C   UNL     1       1.086   9.830  18.855  0.00  0.00    +0.000 A 
ATOM     13  C   UNL     1       1.760   8.774  18.214  0.00  0.00    +0.000 A 
ATOM     14  H   UNL     1      -0.244  11.130  21.419  0.00  0.00    +0.000 HD
BRANCH  10  15
ATOM     15  C   UNL     1      -0.781  12.884  19.382  0.00  0.00    +0.000 C 
ATOM     16  F   UNL     1      -0.403  13.685  18.345  0.00  0.00    +0.000 F 
ATOM     17  F   UNL     1      -2.110  12.647  19.190  0.00  0.00    +0.000 F 
ENDBRANCH  10  15
ENDBRANCH   3   5
BRANCH   2  18
ATOM     18  C   UNL     1       4.287   5.096  17.299  0.00  0.00    +0.000 A 
ATOM     19  C   UNL     1       5.111   4.807  16.229  0.00  0.00    +0.000 A 
ATOM     20  N   UNL     1       5.242   3.454  16.213  0.00  0.00    +0.000 N 
ATOM     21  N   UNL     1       4.501   2.833  17.137  0.00  0.00    +0.000 NA
ATOM     22  C   UNL     1       3.918   3.819  17.843  0.00  0.00    +0.000 A 
ATOM     23  H   UNL     1       5.816   2.885  15.601  0.00  0.00    +0.000 HD
BRANCH  22  24
ATOM     24  C   UNL     1       3.012   3.502  18.955  0.00  0.00    +0.000 A 
ATOM     25  C   UNL     1       3.492   3.008  20.176  0.00  0.00    +0.000 A 
ATOM     26  F   UNL     1       4.806   2.845  20.395  0.00  0.00    +0.000 F 
ATOM     27  C   UNL     1       2.626   2.668  21.222  0.00  0.00    +0.000 A 
ATOM     28  C   UNL     1       1.253   2.838  21.079  0.00  0.00    +0.000 A 
ATOM     29  C   UNL     1       0.752   3.331  19.879  0.00  0.00    +0.000 A 
ATOM     30  C   UNL     1       1.623   3.635  18.829  0.00  0.00    +0.000 A 
ATOM     31  F   UNL     1       1.070   4.013  17.667  0.00  0.00    +0.000 F 
ENDBRANCH  22  24
ENDBRANCH   2  18
TORSDOF 4
ENDMDL
