MODEL 1
REMARK VINA RESULT:      -8.6      0.000      0.000
REMARK  Name = 
REMARK  6 active torsions:
REMARK  status: ('A' for Active; 'I' for Inactive)
REMARK    1  A    between atoms: C_1  and  C_2
REMARK    2  A    between atoms: C_5  and  C_6
REMARK    3  A    between atoms: C_7  and  C_8
REMARK    4  A    between atoms: C_8  and  N_9
REMARK    5  A    between atoms: C_13  and  C_14
REMARK    6  A    between atoms: C_14  and  C_15
REMARK                            x       y       z     vdW  Elec       q    Type
REMARK                         _______ _______ _______ _____ _____    ______ ____
ROOT
ATOM      1  N   UNL     1       3.999   3.536  16.376  0.00  0.00    +0.000 N 
ATOM      2  C   UNL     1       3.186   3.928  17.375  0.00  0.00    +0.000 A 
ATOM      3  N   UNL     1       1.906   3.666  17.514  0.00  0.00    +0.000 NA
ATOM      4  N   UNL     1       1.472   4.358  18.622  0.00  0.00    +0.000 NA
ATOM      5  C   UNL     1       2.519   5.005  19.087  0.00  0.00    +0.000 A 
ATOM      6  O   UNL     1       3.660   4.765  18.351  0.00  0.00    +0.000 OA
ATOM      7  H   UNL     1       3.573   2.847  15.764  0.00  0.00    +0.000 HD
ENDROOT
BRANCH   1   8
ATOM      8  C   UNL     1       5.412   3.303  16.603  0.00  0.00    +0.000 C 
BRANCH   8  15
ATOM      9  C   UNL     1       6.149   3.680  13.435  0.00  0.00    +0.000 C 
ATOM     10  C   UNL     1       6.623   4.477  14.589  0.00  0.00    +0.000 A 
ATOM     11  N   UNL     1       7.463   5.497  14.388  0.00  0.00    +0.000 NA
ATOM     12  O   UNL     1       7.720   6.028  15.632  0.00  0.00    +0.000 OA
ATOM     13  C   UNL     1       7.035   5.330  16.575  0.00  0.00    +0.000 A 
ATOM     14  C   UNL     1       7.218   5.794  17.964  0.00  0.00    +0.000 C 
ATOM     15  C   UNL     1       6.309   4.323  15.973  0.00  0.00    +0.000 A 
ENDBRANCH   8  15
ENDBRANCH   1   8
BRANCH   5  16
ATOM     16  C   UNL     1       2.576   6.016  20.173  0.00  0.00    +0.000 C 
BRANCH  16  17
ATOM     17  C   UNL     1       2.041   7.375  19.790  0.00  0.00    +0.000 A 
ATOM     18  C   UNL     1       2.254   7.901  18.508  0.00  0.00    +0.000 A 
ATOM     19  C   UNL     1       1.788   9.176  18.174  0.00  0.00    +0.000 A 
ATOM     20  C   UNL     1       1.090   9.954  19.112  0.00  0.00    +0.000 A 
ATOM     21  C   UNL     1       0.621  11.240  18.797  0.00  0.00    +0.000 A 
ATOM     22  C   UNL     1      -0.074  11.997  19.743  0.00  0.00    +0.000 A 
ATOM     23  C   UNL     1      -0.308  11.478  21.012  0.00  0.00    +0.000 A 
ATOM     24  C   UNL     1       0.156  10.203  21.341  0.00  0.00    +0.000 A 
ATOM     25  C   UNL     1       0.854   9.428  20.402  0.00  0.00    +0.000 A 
ATOM     26  C   UNL     1       1.331   8.146  20.723  0.00  0.00    +0.000 A 
ENDBRANCH  16  17
ENDBRANCH   5  16
TORSDOF 4
ENDMDL
MODEL 2
REMARK VINA RESULT:      -8.4      0.508      1.652
REMARK  Name = 
REMARK  6 active torsions:
REMARK  status: ('A' for Active; 'I' for Inactive)
REMARK    1  A    between atoms: C_1  and  C_2
REMARK    2  A    between atoms: C_5  and  C_6
REMARK    3  A    between atoms: C_7  and  C_8
REMARK    4  A    between atoms: C_8  and  N_9
REMARK    5  A    between atoms: C_13  and  C_14
REMARK    6  A    between atoms: C_14  and  C_15
REMARK                            x       y       z     vdW  Elec       q    Type
REMARK                         _______ _______ _______ _____ _____    ______ ____
ROOT
ATOM      1  N   UNL     1       3.975   3.561  16.644  0.00  0.00    +0.000 N 
ATOM      2  C   UNL     1       3.101   3.877  17.617  0.00  0.00    +0.000 A 
ATOM      3  N   UNL     1       1.831   3.546  17.690  0.00  0.00    +0.000 NA
ATOM      4  N   UNL     1       1.315   4.177  18.799  0.00  0.00    +0.000 NA
ATOM      5  C   UNL     1       2.307   4.860  19.331  0.00  0.00    +0.000 A 
ATOM      6  O   UNL     1       3.488   4.702  18.640  0.00  0.00    +0.000 OA
ATOM      7  H   UNL     1       3.612   2.873  15.991  0.00  0.00    +0.000 HD
ENDROOT
BRANCH   1   8
ATOM      8  C   UNL     1       5.387   3.390  16.926  0.00  0.00    +0.000 C 
BRANCH   8  15
ATOM      9  C   UNL     1       7.011   5.858  18.339  0.00  0.00    +0.000 C 
ATOM     10  C   UNL     1       6.970   5.486  16.906  0.00  0.00    +0.000 A 
ATOM     11  N   UNL     1       7.660   6.207  16.017  0.00  0.00    +0.000 NA
ATOM     12  O   UNL     1       7.420   5.628  14.791  0.00  0.00    +0.000 OA
ATOM     13  C   UNL     1       6.592   4.562  14.946  0.00  0.00    +0.000 A 
ATOM     14  C   UNL     1       6.249   3.841  13.705  0.00  0.00    +0.000 C 
ATOM     15  C   UNL     1       6.268   4.414  16.279  0.00  0.00    +0.000 A 
ENDBRANCH   8  15
ENDBRANCH   1   8
BRANCH   5  16
ATOM     16  C   UNL     1       2.264   5.834  20.450  0.00  0.00    +0.000 C 
BRANCH  16  17
ATOM     17  C   UNL     1       1.854   7.231  20.048  0.00  0.00    +0.000 A 
ATOM     18  C   UNL     1       2.128   7.722  18.764  0.00  0.00    +0.000 A 
ATOM     19  C   UNL     1       1.779   9.030  18.412  0.00  0.00    +0.000 A 
ATOM     20  C   UNL     1       1.140   9.875  19.333  0.00  0.00    +0.000 A 
ATOM     21  C   UNL     1       0.789  11.194  19.001  0.00  0.00    +0.000 A 
ATOM     22  C   UNL     1       0.151  12.018  19.930  0.00  0.00    +0.000 A 
ATOM     23  C   UNL     1      -0.142  11.535  21.201  0.00  0.00    +0.000 A 
ATOM     24  C   UNL     1       0.204  10.228  21.548  0.00  0.00    +0.000 A 
ATOM     25  C   UNL     1       0.843   9.386  20.625  0.00  0.00    +0.000 A 
ATOM     26  C   UNL     1       1.203   8.070  20.965  0.00  0.00    +0.000 A 
ENDBRANCH  16  17
ENDBRANCH   5  16
TORSDOF 4
ENDMDL
MODEL 3
REMARK VINA RESULT:      -8.3      4.682      7.126
REMARK  Name = 
REMARK  6 active torsions:
REMARK  status: ('A' for Active; 'I' for Inactive)
REMARK    1  A    between atoms: C_1  and  C_2
REMARK    2  A    between atoms: C_5  and  C_6
REMARK    3  A    between atoms: C_7  and  C_8
REMARK    4  A    between atoms: C_8  and  N_9
REMARK    5  A    between atoms: C_13  and  C_14
REMARK    6  A    between atoms: C_14  and  C_15
REMARK                            x       y       z     vdW  Elec       q    Type
REMARK                         _______ _______ _______ _____ _____    ______ ____
ROOT
ATOM      1  N   UNL     1       9.079   8.864  18.665  0.00  0.00    +0.000 N 
ATOM      2  C   UNL     1       8.200   7.863  18.472  0.00  0.00    +0.000 A 
ATOM      3  N   UNL     1       8.281   6.629  18.920  0.00  0.00    +0.000 NA
ATOM      4  N   UNL     1       7.218   5.937  18.386  0.00  0.00    +0.000 NA
ATOM      5  C   UNL     1       6.556   6.796  17.640  0.00  0.00    +0.000 A 
ATOM      6  O   UNL     1       7.114   8.055  17.659  0.00  0.00    +0.000 OA
ATOM      7  H   UNL     1       9.790   8.642  19.355  0.00  0.00    +0.000 HD
ENDROOT
BRANCH   1   8
ATOM      8  C   UNL     1       8.645  10.247  18.718  0.00  0.00    +0.000 C 
BRANCH   8  15
ATOM      9  C   UNL     1      11.375  11.703  17.645  0.00  0.00    +0.000 C 
ATOM     10  C   UNL     1      10.761  11.779  18.991  0.00  0.00    +0.000 A 
ATOM     11  N   UNL     1      11.342  12.517  19.941  0.00  0.00    +0.000 NA
ATOM     12  O   UNL     1      10.552  12.383  21.061  0.00  0.00    +0.000 OA
ATOM     13  C   UNL     1       9.501  11.570  20.782  0.00  0.00    +0.000 A 
ATOM     14  C   UNL     1       8.565  11.338  21.900  0.00  0.00    +0.000 C 
ATOM     15  C   UNL     1       9.573  11.150  19.470  0.00  0.00    +0.000 A 
ENDBRANCH   8  15
ENDBRANCH   1   8
BRANCH   5  16
ATOM     16  C   UNL     1       5.418   6.539  16.722  0.00  0.00    +0.000 C 
BRANCH  16  17
ATOM     17  C   UNL     1       4.427   5.516  17.225  0.00  0.00    +0.000 A 
ATOM     18  C   UNL     1       4.240   4.301  16.554  0.00  0.00    +0.000 A 
ATOM     19  C   UNL     1       3.293   3.376  17.005  0.00  0.00    +0.000 A 
ATOM     20  C   UNL     1       2.516   3.642  18.144  0.00  0.00    +0.000 A 
ATOM     21  C   UNL     1       1.554   2.728  18.608  0.00  0.00    +0.000 A 
ATOM     22  C   UNL     1       0.794   3.010  19.745  0.00  0.00    +0.000 A 
ATOM     23  C   UNL     1       0.984   4.205  20.430  0.00  0.00    +0.000 A 
ATOM     24  C   UNL     1       1.932   5.125  19.979  0.00  0.00    +0.000 A 
ATOM     25  C   UNL     1       2.708   4.857  18.840  0.00  0.00    +0.000 A 
ATOM     26  C   UNL     1       3.661   5.777  18.372  0.00  0.00    +0.000 A 
ENDBRANCH  16  17
ENDBRANCH   5  16
TORSDOF 4
ENDMDL
MODEL 4
REMARK VINA RESULT:      -8.3      5.134      7.781
REMARK  Name = 
REMARK  6 active torsions:
REMARK  status: ('A' for Active; 'I' for Inactive)
REMARK    1  A    between atoms: C_1  and  C_2
REMARK    2  A    between atoms: C_5  and  C_6
REMARK    3  A    between atoms: C_7  and  C_8
REMARK    4  A    between atoms: C_8  and  N_9
REMARK    5  A    between atoms: C_13  and  C_14
REMARK    6  A    between atoms: C_14  and  C_15
REMARK                            x       y       z     vdW  Elec       q    Type
REMARK                         _______ _______ _______ _____ _____    ______ ____
ROOT
ATOM      1  N   UNL     1       8.709  10.230  18.751  0.00  0.00    +0.000 N 
ATOM      2  C   UNL     1       8.304   9.066  18.209  0.00  0.00    +0.000 A 
ATOM      3  N   UNL     1       7.680   8.889  17.066  0.00  0.00    +0.000 NA
ATOM      4  N   UNL     1       7.374   7.550  16.978  0.00  0.00    +0.000 NA
ATOM      5  C   UNL     1       7.830   6.994  18.081  0.00  0.00    +0.000 A 
ATOM      6  O   UNL     1       8.455   7.898  18.911  0.00  0.00    +0.000 OA
ATOM      7  H   UNL     1       8.635  11.014  18.110  0.00  0.00    +0.000 HD
ENDROOT
BRANCH   1   8
ATOM      8  C   UNL     1       9.882  10.297  19.601  0.00  0.00    +0.000 C 
BRANCH   8  15
ATOM      9  C   UNL     1      11.909  12.360  18.066  0.00  0.00    +0.000 C 
ATOM     10  C   UNL     1      11.154  12.578  19.321  0.00  0.00    +0.000 A 
ATOM     11  N   UNL     1      11.268  13.742  19.967  0.00  0.00    +0.000 NA
ATOM     12  O   UNL     1      10.466  13.639  21.081  0.00  0.00    +0.000 OA
ATOM     13  C   UNL     1       9.871  12.417  21.101  0.00  0.00    +0.000 A 
ATOM     14  C   UNL     1       8.976  12.167  22.248  0.00  0.00    +0.000 C 
ATOM     15  C   UNL     1      10.268  11.688  20.000  0.00  0.00    +0.000 A 
ENDBRANCH   8  15
ENDBRANCH   1   8
BRANCH   5  16
ATOM     16  C   UNL     1       7.636   5.604  18.565  0.00  0.00    +0.000 C 
BRANCH  16  17
ATOM     17  C   UNL     1       6.270   5.027  18.276  0.00  0.00    +0.000 A 
ATOM     18  C   UNL     1       6.000   4.384  17.060  0.00  0.00    +0.000 A 
ATOM     19  C   UNL     1       4.722   3.887  16.785  0.00  0.00    +0.000 A 
ATOM     20  C   UNL     1       3.686   4.012  17.724  0.00  0.00    +0.000 A 
ATOM     21  C   UNL     1       2.394   3.526  17.463  0.00  0.00    +0.000 A 
ATOM     22  C   UNL     1       1.377   3.658  18.411  0.00  0.00    +0.000 A 
ATOM     23  C   UNL     1       1.638   4.277  19.628  0.00  0.00    +0.000 A 
ATOM     24  C   UNL     1       2.916   4.770  19.901  0.00  0.00    +0.000 A 
ATOM     25  C   UNL     1       3.950   4.643  18.961  0.00  0.00    +0.000 A 
ATOM     26  C   UNL     1       5.238   5.140  19.221  0.00  0.00    +0.000 A 
ENDBRANCH  16  17
ENDBRANCH   5  16
TORSDOF 4
ENDMDL
MODEL 5
REMARK VINA RESULT:      -8.3      0.870      2.316
REMARK  Name = 
REMARK  6 active torsions:
REMARK  status: ('A' for Active; 'I' for Inactive)
REMARK    1  A    between atoms: C_1  and  C_2
REMARK    2  A    between atoms: C_5  and  C_6
REMARK    3  A    between atoms: C_7  and  C_8
REMARK    4  A    between atoms: C_8  and  N_9
REMARK    5  A    between atoms: C_13  and  C_14
REMARK    6  A    between atoms: C_14  and  C_15
REMARK                            x       y       z     vdW  Elec       q    Type
REMARK                         _______ _______ _______ _____ _____    ______ ____
ROOT
ATOM      1  N   UNL     1       3.893   3.640  16.566  0.00  0.00    +0.000 N 
ATOM      2  C   UNL     1       2.995   3.787  17.557  0.00  0.00    +0.000 A 
ATOM      3  N   UNL     1       1.724   3.450  17.542  0.00  0.00    +0.000 NA
ATOM      4  N   UNL     1       1.180   3.884  18.730  0.00  0.00    +0.000 NA
ATOM      5  C   UNL     1       2.157   4.464  19.395  0.00  0.00    +0.000 A 
ATOM      6  O   UNL     1       3.355   4.424  18.716  0.00  0.00    +0.000 OA
ATOM      7  H   UNL     1       3.548   3.075  15.797  0.00  0.00    +0.000 HD
ENDROOT
BRANCH   1   8
ATOM      8  C   UNL     1       5.298   3.422  16.849  0.00  0.00    +0.000 C 
BRANCH   8  15
ATOM      9  C   UNL     1       6.916   5.854  18.329  0.00  0.00    +0.000 C 
ATOM     10  C   UNL     1       6.910   5.496  16.892  0.00  0.00    +0.000 A 
ATOM     11  N   UNL     1       7.634   6.215  16.029  0.00  0.00    +0.000 NA
ATOM     12  O   UNL     1       7.420   5.649  14.792  0.00  0.00    +0.000 OA
ATOM     13  C   UNL     1       6.573   4.594  14.914  0.00  0.00    +0.000 A 
ATOM     14  C   UNL     1       6.255   3.888  13.657  0.00  0.00    +0.000 C 
ATOM     15  C   UNL     1       6.210   4.439  16.236  0.00  0.00    +0.000 A 
ENDBRANCH   8  15
ENDBRANCH   1   8
BRANCH   5  16
ATOM     16  C   UNL     1       2.085   5.232  20.663  0.00  0.00    +0.000 C 
BRANCH  16  17
ATOM     17  C   UNL     1       1.707   6.685  20.492  0.00  0.00    +0.000 A 
ATOM     18  C   UNL     1       0.892   7.333  21.430  0.00  0.00    +0.000 A 
ATOM     19  C   UNL     1       0.515   8.667  21.244  0.00  0.00    +0.000 A 
ATOM     20  C   UNL     1       0.951   9.387  20.121  0.00  0.00    +0.000 A 
ATOM     21  C   UNL     1       0.577  10.725  19.913  0.00  0.00    +0.000 A 
ATOM     22  C   UNL     1       1.024  11.425  18.791  0.00  0.00    +0.000 A 
ATOM     23  C   UNL     1       1.849  10.797  17.864  0.00  0.00    +0.000 A 
ATOM     24  C   UNL     1       2.226   9.467  18.053  0.00  0.00    +0.000 A 
ATOM     25  C   UNL     1       1.788   8.749  19.177  0.00  0.00    +0.000 A 
ATOM     26  C   UNL     1       2.156   7.408  19.376  0.00  0.00    +0.000 A 
ENDBRANCH  16  17
ENDBRANCH   5  16
TORSDOF 4
ENDMDL
MODEL 6
REMARK VINA RESULT:      -8.2      4.844      7.592
REMARK  Name = 
REMARK  6 active torsions:
REMARK  status: ('A' for Active; 'I' for Inactive)
REMARK    1  A    between atoms: C_1  and  C_2
REMARK    2  A    between atoms: C_5  and  C_6
REMARK    3  A    between atoms: C_7  and  C_8
REMARK    4  A    between atoms: C_8  and  N_9
REMARK    5  A    between atoms: C_13  and  C_14
REMARK    6  A    between atoms: C_14  and  C_15
REMARK                            x       y       z     vdW  Elec       q    Type
REMARK                         _______ _______ _______ _____ _____    ______ ____
ROOT
ATOM      1  N   UNL     1       8.476   9.829  18.464  0.00  0.00    +0.000 N 
ATOM      2  C   UNL     1       8.177   8.605  17.990  0.00  0.00    +0.000 A 
ATOM      3  N   UNL     1       7.791   8.291  16.773  0.00  0.00    +0.000 NA
ATOM      4  N   UNL     1       7.498   6.946  16.779  0.00  0.00    +0.000 NA
ATOM      5  C   UNL     1       7.719   6.525  18.007  0.00  0.00    +0.000 A 
ATOM      6  O   UNL     1       8.174   7.527  18.836  0.00  0.00    +0.000 OA
ATOM      7  H   UNL     1       8.538  10.533  17.736  0.00  0.00    +0.000 HD
ENDROOT
BRANCH   1   8
ATOM      8  C   UNL     1       9.455  10.009  19.518  0.00  0.00    +0.000 C 
BRANCH   8  15
ATOM      9  C   UNL     1       8.726  11.896  22.093  0.00  0.00    +0.000 C 
ATOM     10  C   UNL     1       9.511  12.249  20.888  0.00  0.00    +0.000 A 
ATOM     11  N   UNL     1      10.017  13.480  20.767  0.00  0.00    +0.000 NA
ATOM     12  O   UNL     1      10.678  13.502  19.559  0.00  0.00    +0.000 OA
ATOM     13  C   UNL     1      10.570  12.287  18.960  0.00  0.00    +0.000 A 
ATOM     14  C   UNL     1      11.237  12.166  17.648  0.00  0.00    +0.000 C 
ATOM     15  C   UNL     1       9.836  11.437  19.761  0.00  0.00    +0.000 A 
ENDBRANCH   8  15
ENDBRANCH   1   8
BRANCH   5  16
ATOM     16  C   UNL     1       7.420   5.197  18.598  0.00  0.00    +0.000 C 
BRANCH  16  17
ATOM     17  C   UNL     1       6.000   4.726  18.391  0.00  0.00    +0.000 A 
ATOM     18  C   UNL     1       5.592   4.179  17.167  0.00  0.00    +0.000 A 
ATOM     19  C   UNL     1       4.266   3.781  16.970  0.00  0.00    +0.000 A 
ATOM     20  C   UNL     1       3.318   3.913  17.997  0.00  0.00    +0.000 A 
ATOM     21  C   UNL     1       1.979   3.526  17.816  0.00  0.00    +0.000 A 
ATOM     22  C   UNL     1       1.051   3.663  18.851  0.00  0.00    +0.000 A 
ATOM     23  C   UNL     1       1.449   4.188  20.076  0.00  0.00    +0.000 A 
ATOM     24  C   UNL     1       2.774   4.581  20.269  0.00  0.00    +0.000 A 
ATOM     25  C   UNL     1       3.720   4.448  19.241  0.00  0.00    +0.000 A 
ATOM     26  C   UNL     1       5.056   4.845  19.422  0.00  0.00    +0.000 A 
ENDBRANCH  16  17
ENDBRANCH   5  16
TORSDOF 4
ENDMDL
MODEL 7
REMARK VINA RESULT:      -8.2      1.221      1.291
REMARK  Name = 
REMARK  6 active torsions:
REMARK  status: ('A' for Active; 'I' for Inactive)
REMARK    1  A    between atoms: C_1  and  C_2
REMARK    2  A    between atoms: C_5  and  C_6
REMARK    3  A    between atoms: C_7  and  C_8
REMARK    4  A    between atoms: C_8  and  N_9
REMARK    5  A    between atoms: C_13  and  C_14
REMARK    6  A    between atoms: C_14  and  C_15
REMARK                            x       y       z     vdW  Elec       q    Type
REMARK                         _______ _______ _______ _____ _____    ______ ____
ROOT
ATOM      1  N   UNL     1       4.621   3.137  17.087  0.00  0.00    +0.000 N 
ATOM      2  C   UNL     1       4.320   3.519  18.342  0.00  0.00    +0.000 A 
ATOM      3  N   UNL     1       4.843   3.072  19.462  0.00  0.00    +0.000 NA
ATOM      4  N   UNL     1       4.156   3.670  20.494  0.00  0.00    +0.000 NA
ATOM      5  C   UNL     1       3.249   4.443  19.935  0.00  0.00    +0.000 A 
ATOM      6  O   UNL     1       3.305   4.414  18.558  0.00  0.00    +0.000 OA
ATOM      7  H   UNL     1       5.445   2.546  17.038  0.00  0.00    +0.000 HD
ENDROOT
BRANCH   1   8
ATOM      8  C   UNL     1       4.512   4.059  15.973  0.00  0.00    +0.000 C 
BRANCH   8  15
ATOM      9  C   UNL     1       6.265   3.730  13.227  0.00  0.00    +0.000 C 
ATOM     10  C   UNL     1       6.555   4.577  14.406  0.00  0.00    +0.000 A 
ATOM     11  N   UNL     1       7.659   5.331  14.422  0.00  0.00    +0.000 NA
ATOM     12  O   UNL     1       7.652   5.987  15.633  0.00  0.00    +0.000 OA
ATOM     13  C   UNL     1       6.547   5.630  16.338  0.00  0.00    +0.000 A 
ATOM     14  C   UNL     1       6.411   6.263  17.664  0.00  0.00    +0.000 C 
ATOM     15  C   UNL     1       5.800   4.730  15.607  0.00  0.00    +0.000 A 
ENDBRANCH   8  15
ENDBRANCH   1   8
BRANCH   5  16
ATOM     16  C   UNL     1       2.147   5.196  20.584  0.00  0.00    +0.000 C 
BRANCH  16  17
ATOM     17  C   UNL     1       1.931   6.586  20.034  0.00  0.00    +0.000 A 
ATOM     18  C   UNL     1       2.370   6.930  18.748  0.00  0.00    +0.000 A 
ATOM     19  C   UNL     1       2.201   8.230  18.261  0.00  0.00    +0.000 A 
ATOM     20  C   UNL     1       1.578   9.214  19.045  0.00  0.00    +0.000 A 
ATOM     21  C   UNL     1       1.406  10.528  18.576  0.00  0.00    +0.000 A 
ATOM     22  C   UNL     1       0.782  11.492  19.370  0.00  0.00    +0.000 A 
ATOM     23  C   UNL     1       0.325  11.157  20.640  0.00  0.00    +0.000 A 
ATOM     24  C   UNL     1       0.493   9.858  21.122  0.00  0.00    +0.000 A 
ATOM     25  C   UNL     1       1.115   8.875  20.336  0.00  0.00    +0.000 A 
ATOM     26  C   UNL     1       1.296   7.566  20.813  0.00  0.00    +0.000 A 
ENDBRANCH  16  17
ENDBRANCH   5  16
TORSDOF 4
ENDMDL
MODEL 8
REMARK VINA RESULT:      -8.1      1.245      2.476
REMARK  Name = 
REMARK  6 active torsions:
REMARK  status: ('A' for Active; 'I' for Inactive)
REMARK    1  A    between atoms: C_1  and  C_2
REMARK    2  A    between atoms: C_5  and  C_6
REMARK    3  A    between atoms: C_7  and  C_8
REMARK    4  A    between atoms: C_8  and  N_9
REMARK    5  A    between atoms: C_13  and  C_14
REMARK    6  A    between atoms: C_14  and  C_15
REMARK                            x       y       z     vdW  Elec       q    Type
REMARK                         _______ _______ _______ _____ _____    ______ ____
ROOT
ATOM      1  N   UNL     1       4.472   3.776  17.924  0.00  0.00    +0.000 N 
ATOM      2  C   UNL     1       3.544   4.730  18.128  0.00  0.00    +0.000 A 
ATOM      3  N   UNL     1       2.281   4.561  18.451  0.00  0.00    +0.000 NA
ATOM      4  N   UNL     1       1.696   5.807  18.448  0.00  0.00    +0.000 NA
ATOM      5  C   UNL     1       2.643   6.659  18.117  0.00  0.00    +0.000 A 
ATOM      6  O   UNL     1       3.860   6.046  17.915  0.00  0.00    +0.000 OA
ATOM      7  H   UNL     1       4.159   2.851  18.200  0.00  0.00    +0.000 HD
ENDROOT
BRANCH   1   8
ATOM      8  C   UNL     1       5.873   4.014  18.213  0.00  0.00    +0.000 C 
BRANCH   8  15
ATOM      9  C   UNL     1       7.743   6.652  18.730  0.00  0.00    +0.000 C 
ATOM     10  C   UNL     1       7.380   6.022  17.440  0.00  0.00    +0.000 A 
ATOM     11  N   UNL     1       7.838   6.544  16.298  0.00  0.00    +0.000 NA
ATOM     12  O   UNL     1       7.332   5.754  15.290  0.00  0.00    +0.000 OA
ATOM     13  C   UNL     1       6.576   4.761  15.827  0.00  0.00    +0.000 A 
ATOM     14  C   UNL     1       5.968   3.832  14.854  0.00  0.00    +0.000 C 
ATOM     15  C   UNL     1       6.568   4.873  17.202  0.00  0.00    +0.000 A 
ENDBRANCH   8  15
ENDBRANCH   1   8
BRANCH   5  16
ATOM     16  C   UNL     1       2.523   8.109  17.821  0.00  0.00    +0.000 C 
BRANCH  16  17
ATOM     17  C   UNL     1       1.606   8.863  18.754  0.00  0.00    +0.000 A 
ATOM     18  C   UNL     1       0.790   9.901  18.283  0.00  0.00    +0.000 A 
ATOM     19  C   UNL     1      -0.027  10.620  19.162  0.00  0.00    +0.000 A 
ATOM     20  C   UNL     1      -0.055  10.311  20.531  0.00  0.00    +0.000 A 
ATOM     21  C   UNL     1      -0.864  11.027  21.430  0.00  0.00    +0.000 A 
ATOM     22  C   UNL     1      -0.880  10.703  22.788  0.00  0.00    +0.000 A 
ATOM     23  C   UNL     1      -0.089   9.663  23.264  0.00  0.00    +0.000 A 
ATOM     24  C   UNL     1       0.724   8.946  22.384  0.00  0.00    +0.000 A 
ATOM     25  C   UNL     1       0.750   9.256  21.015  0.00  0.00    +0.000 A 
ATOM     26  C   UNL     1       1.568   8.545  20.121  0.00  0.00    +0.000 A 
ENDBRANCH  16  17
ENDBRANCH   5  16
TORSDOF 4
ENDMDL
MODEL 9
REMARK VINA RESULT:      -8.1      4.904      7.617
REMARK  Name = 
REMARK  6 active torsions:
REMARK  status: ('A' for Active; 'I' for Inactive)
REMARK    1  A    between atoms: C_1  and  C_2
REMARK    2  A    between atoms: C_5  and  C_6
REMARK    3  A    between atoms: C_7  and  C_8
REMARK    4  A    between atoms: C_8  and  N_9
REMARK    5  A    between atoms: C_13  and  C_14
REMARK    6  A    between atoms: C_14  and  C_15
REMARK                            x       y       z     vdW  Elec       q    Type
REMARK                         _______ _______ _______ _____ _____    ______ ____
ROOT
ATOM      1  N   UNL     1       8.842   9.924  18.143  0.00  0.00    +0.000 N 
ATOM      2  C   UNL     1       8.289   8.697  18.129  0.00  0.00    +0.000 A 
ATOM      3  N   UNL     1       8.545   7.695  18.941  0.00  0.00    +0.000 NA
ATOM      4  N   UNL     1       7.826   6.613  18.484  0.00  0.00    +0.000 NA
ATOM      5  C   UNL     1       7.179   7.026  17.415  0.00  0.00    +0.000 A 
ATOM      6  O   UNL     1       7.410   8.355  17.135  0.00  0.00    +0.000 OA
ATOM      7  H   UNL     1       9.403  10.098  18.971  0.00  0.00    +0.000 HD
ENDROOT
BRANCH   1   8
ATOM      8  C   UNL     1       8.101  11.088  17.699  0.00  0.00    +0.000 C 
BRANCH   8  15
ATOM      9  C   UNL     1      11.328  11.538  18.023  0.00  0.00    +0.000 C 
ATOM     10  C   UNL     1      10.258  12.561  17.977  0.00  0.00    +0.000 A 
ATOM     11  N   UNL     1      10.576  13.855  18.077  0.00  0.00    +0.000 NA
ATOM     12  O   UNL     1       9.386  14.544  18.009  0.00  0.00    +0.000 OA
ATOM     13  C   UNL     1       8.360  13.666  17.866  0.00  0.00    +0.000 A 
ATOM     14  C   UNL     1       7.016  14.272  17.778  0.00  0.00    +0.000 C 
ATOM     15  C   UNL     1       8.849  12.378  17.836  0.00  0.00    +0.000 A 
ENDBRANCH   8  15
ENDBRANCH   1   8
BRANCH   5  16
ATOM     16  C   UNL     1       6.379   6.228  16.452  0.00  0.00    +0.000 C 
BRANCH  16  17
ATOM     17  C   UNL     1       5.067   5.718  17.001  0.00  0.00    +0.000 A 
ATOM     18  C   UNL     1       4.096   6.603  17.488  0.00  0.00    +0.000 A 
ATOM     19  C   UNL     1       2.900   6.120  18.030  0.00  0.00    +0.000 A 
ATOM     20  C   UNL     1       2.644   4.741  18.089  0.00  0.00    +0.000 A 
ATOM     21  C   UNL     1       1.452   4.238  18.636  0.00  0.00    +0.000 A 
ATOM     22  C   UNL     1       1.214   2.862  18.684  0.00  0.00    +0.000 A 
ATOM     23  C   UNL     1       2.163   1.976  18.186  0.00  0.00    +0.000 A 
ATOM     24  C   UNL     1       3.354   2.461  17.643  0.00  0.00    +0.000 A 
ATOM     25  C   UNL     1       3.608   3.840  17.585  0.00  0.00    +0.000 A 
ATOM     26  C   UNL     1       4.806   4.340  17.047  0.00  0.00    +0.000 A 
ENDBRANCH  16  17
ENDBRANCH   5  16
TORSDOF 4
ENDMDL
