MODEL 1
REMARK VINA RESULT:      -8.6      0.000      0.000
REMARK  Name = 
REMARK  6 active torsions:
REMARK  status: ('A' for Active; 'I' for Inactive)
REMARK    1  A    between atoms: C_2  and  C_3
REMARK    2  A    between atoms: C_2  and  C_24
REMARK    3  A    between atoms: C_7  and  N_8
REMARK    4  A    between atoms: C_15  and  C_16
REMARK    5  A    between atoms: C_22  and  C_23
REMARK    6  A    between atoms: N_28  and  C_29
REMARK                            x       y       z     vdW  Elec       q    Type
REMARK                         _______ _______ _______ _____ _____    ______ ____
ROOT
ATOM      1  C   UNL     1       1.069   9.176  19.631  0.00  0.00    +0.000 A 
ATOM      2  C   UNL     1       0.737   8.418  20.768  0.00  0.00    +0.000 A 
ATOM      3  C   UNL     1       1.446   7.264  21.069  0.00  0.00    +0.000 A 
ATOM      4  C   UNL     1       2.359   6.768  20.150  0.00  0.00    +0.000 A 
ATOM      5  C   UNL     1       2.454   7.351  18.875  0.00  0.00    +0.000 A 
ATOM      6  C   UNL     1       1.982   8.664  18.686  0.00  0.00    +0.000 A 
ATOM      7  C   UNL     1       2.462   9.475  17.512  0.00  0.00    +0.000 C 
ENDROOT
BRANCH   5   8
ATOM      8  N   UNL     1       2.529   6.459  17.716  0.00  0.00    +0.000 N 
ATOM      9  C   UNL     1       1.639   5.286  17.924  0.00  0.00    +0.000 C 
ATOM     10  C   UNL     1       2.556   4.304  18.590  0.00  0.00    +0.000 A 
ATOM     11  C   UNL     1       3.856   4.598  18.160  0.00  0.00    +0.000 A 
ATOM     12  C   UNL     1       4.981   4.005  18.704  0.00  0.00    +0.000 A 
ATOM     13  C   UNL     1       4.784   3.083  19.730  0.00  0.00    +0.000 A 
ATOM     14  C   UNL     1       3.485   2.788  20.187  0.00  0.00    +0.000 A 
ATOM     15  C   UNL     1       2.342   3.400  19.627  0.00  0.00    +0.000 A 
ATOM     16  C   UNL     1       3.813   5.905  17.459  0.00  0.00    +0.000 C 
ATOM     17  O   UNL     1       4.784   6.451  16.970  0.00  0.00    +0.000 OA
BRANCH  15  18
ATOM     18  C   UNL     1       0.995   3.147  20.256  0.00  0.00    +0.000 C 
ATOM     19  F   UNL     1       1.042   2.453  21.425  0.00  0.00    +0.000 F 
ATOM     20  F   UNL     1       0.336   4.304  20.539  0.00  0.00    +0.000 F 
ATOM     21  F   UNL     1       0.166   2.438  19.438  0.00  0.00    +0.000 F 
ENDBRANCH  15  18
ENDBRANCH   5   8
BRANCH   1  23
ATOM     22  C   UNL     1      -0.746  10.562  18.901  0.00  0.00    +0.000 C 
ATOM     23  C   UNL     1       0.445  10.510  19.531  0.00  0.00    +0.000 C 
BRANCH  23  24
ATOM     24  C   UNL     1       0.905  11.706  20.178  0.00  0.00    +0.000 A 
ATOM     25  N   UNL     1       0.694  12.102  21.424  0.00  0.00    +0.000 NA
ATOM     26  N   UNL     1       1.380  13.265  21.656  0.00  0.00    +0.000 NA
ATOM     27  C   UNL     1       1.989  13.577  20.546  0.00  0.00    +0.000 A 
ATOM     28  N   UNL     1       1.720  12.650  19.582  0.00  0.00    +0.000 N 
ATOM     29  C   UNL     1       2.200  12.755  18.228  0.00  0.00    +0.000 C 
ENDBRANCH  23  24
ENDBRANCH   1  23
TORSDOF 4
ENDMDL
MODEL 2
REMARK VINA RESULT:      -8.3      0.678      1.395
REMARK  Name = 
REMARK  6 active torsions:
REMARK  status: ('A' for Active; 'I' for Inactive)
REMARK    1  A    between atoms: C_2  and  C_3
REMARK    2  A    between atoms: C_2  and  C_24
REMARK    3  A    between atoms: C_7  and  N_8
REMARK    4  A    between atoms: C_15  and  C_16
REMARK    5  A    between atoms: C_22  and  C_23
REMARK    6  A    between atoms: N_28  and  C_29
REMARK                            x       y       z     vdW  Elec       q    Type
REMARK                         _______ _______ _______ _____ _____    ______ ____
ROOT
ATOM      1  C   UNL     1       0.882   9.157  19.709  0.00  0.00    +0.000 A 
ATOM      2  C   UNL     1       0.612   8.351  20.829  0.00  0.00    +0.000 A 
ATOM      3  C   UNL     1       1.412   7.252  21.108  0.00  0.00    +0.000 A 
ATOM      4  C   UNL     1       2.361   6.850  20.181  0.00  0.00    +0.000 A 
ATOM      5  C   UNL     1       2.408   7.465  18.917  0.00  0.00    +0.000 A 
ATOM      6  C   UNL     1       1.833   8.738  18.755  0.00  0.00    +0.000 A 
ATOM      7  C   UNL     1       2.245   9.609  17.598  0.00  0.00    +0.000 C 
ENDROOT
BRANCH   5   8
ATOM      8  N   UNL     1       2.554   6.604  17.741  0.00  0.00    +0.000 N 
ATOM      9  C   UNL     1       1.689   5.404  17.883  0.00  0.00    +0.000 C 
ATOM     10  C   UNL     1       2.606   4.429  18.561  0.00  0.00    +0.000 A 
ATOM     11  C   UNL     1       3.913   4.768  18.192  0.00  0.00    +0.000 A 
ATOM     12  C   UNL     1       5.031   4.191  18.767  0.00  0.00    +0.000 A 
ATOM     13  C   UNL     1       4.818   3.239  19.760  0.00  0.00    +0.000 A 
ATOM     14  C   UNL     1       3.510   2.897  20.157  0.00  0.00    +0.000 A 
ATOM     15  C   UNL     1       2.375   3.494  19.566  0.00  0.00    +0.000 A 
ATOM     16  C   UNL     1       3.862   6.091  17.523  0.00  0.00    +0.000 C 
ATOM     17  O   UNL     1       4.837   6.676  17.087  0.00  0.00    +0.000 OA
BRANCH  15  18
ATOM     18  C   UNL     1       1.011   3.189  20.133  0.00  0.00    +0.000 C 
ATOM     19  F   UNL     1       0.281   4.289  20.464  0.00  0.00    +0.000 F 
ATOM     20  F   UNL     1       0.240   2.483  19.261  0.00  0.00    +0.000 F 
ATOM     21  F   UNL     1       1.077   2.435  21.266  0.00  0.00    +0.000 F 
ENDBRANCH  15  18
ENDBRANCH   5   8
BRANCH   1  23
ATOM     22  C   UNL     1      -1.089  10.385  19.111  0.00  0.00    +0.000 C 
ATOM     23  C   UNL     1       0.153  10.438  19.636  0.00  0.00    +0.000 C 
BRANCH  23  24
ATOM     24  C   UNL     1       0.575  11.683  20.214  0.00  0.00    +0.000 A 
ATOM     25  N   UNL     1       1.402  12.586  19.710  0.00  0.00    +0.000 NA
ATOM     26  N   UNL     1       1.469  13.664  20.552  0.00  0.00    +0.000 NA
ATOM     27  C   UNL     1       0.695  13.403  21.569  0.00  0.00    +0.000 A 
ATOM     28  N   UNL     1       0.121  12.173  21.423  0.00  0.00    +0.000 N 
ATOM     29  C   UNL     1      -0.736  11.578  22.416  0.00  0.00    +0.000 C 
ENDBRANCH  23  24
ENDBRANCH   1  23
TORSDOF 4
ENDMDL
MODEL 3
REMARK VINA RESULT:      -8.2      1.526      2.194
REMARK  Name = 
REMARK  6 active torsions:
REMARK  status: ('A' for Active; 'I' for Inactive)
REMARK    1  A    between atoms: C_2  and  C_3
REMARK    2  A    between atoms: C_2  and  C_24
REMARK    3  A    between atoms: C_7  and  N_8
REMARK    4  A    between atoms: C_15  and  C_16
REMARK    5  A    between atoms: C_22  and  C_23
REMARK    6  A    between atoms: N_28  and  C_29
REMARK                            x       y       z     vdW  Elec       q    Type
REMARK                         _______ _______ _______ _____ _____    ______ ____
ROOT
ATOM      1  C   UNL     1       0.934   9.227  19.831  0.00  0.00    +0.000 A 
ATOM      2  C   UNL     1       0.629   8.400  20.927  0.00  0.00    +0.000 A 
ATOM      3  C   UNL     1       1.370   7.251  21.162  0.00  0.00    +0.000 A 
ATOM      4  C   UNL     1       2.289   6.829  20.213  0.00  0.00    +0.000 A 
ATOM      5  C   UNL     1       2.361   7.482  18.970  0.00  0.00    +0.000 A 
ATOM      6  C   UNL     1       1.854   8.790  18.855  0.00  0.00    +0.000 A 
ATOM      7  C   UNL     1       2.304   9.675  17.723  0.00  0.00    +0.000 C 
ENDROOT
BRANCH   5   8
ATOM      8  N   UNL     1       2.452   6.655  17.765  0.00  0.00    +0.000 N 
ATOM      9  C   UNL     1       1.595   5.450  17.914  0.00  0.00    +0.000 C 
ATOM     10  C   UNL     1       2.542   4.458  18.522  0.00  0.00    +0.000 A 
ATOM     11  C   UNL     1       3.830   4.810  18.101  0.00  0.00    +0.000 A 
ATOM     12  C   UNL     1       4.974   4.219  18.607  0.00  0.00    +0.000 A 
ATOM     13  C   UNL     1       4.809   3.239  19.582  0.00  0.00    +0.000 A 
ATOM     14  C   UNL     1       3.522   2.885  20.030  0.00  0.00    +0.000 A 
ATOM     15  C   UNL     1       2.359   3.495  19.510  0.00  0.00    +0.000 A 
ATOM     16  C   UNL     1       3.747   6.151  17.472  0.00  0.00    +0.000 C 
ATOM     17  O   UNL     1       4.701   6.748  17.007  0.00  0.00    +0.000 OA
BRANCH  15  18
ATOM     18  C   UNL     1       1.023   3.172  20.131  0.00  0.00    +0.000 C 
ATOM     19  F   UNL     1       1.098   2.436  21.274  0.00  0.00    +0.000 F 
ATOM     20  F   UNL     1       0.327   4.295  20.460  0.00  0.00    +0.000 F 
ATOM     21  F   UNL     1       0.217   2.467  19.290  0.00  0.00    +0.000 F 
ENDBRANCH  15  18
ENDBRANCH   5   8
BRANCH   1  23
ATOM     22  C   UNL     1       0.938  11.554  20.410  0.00  0.00    +0.000 C 
ATOM     23  C   UNL     1       0.274  10.547  19.806  0.00  0.00    +0.000 C 
BRANCH  23  24
ATOM     24  C   UNL     1      -0.910  10.884  19.067  0.00  0.00    +0.000 A 
ATOM     25  N   UNL     1      -1.247  10.517  17.840  0.00  0.00    +0.000 NA
ATOM     26  N   UNL     1      -2.498  10.994  17.549  0.00  0.00    +0.000 NA
ATOM     27  C   UNL     1      -2.905  11.661  18.593  0.00  0.00    +0.000 A 
ATOM     28  N   UNL     1      -1.951  11.641  19.569  0.00  0.00    +0.000 N 
ATOM     29  C   UNL     1      -2.084  12.345  20.818  0.00  0.00    +0.000 C 
ENDBRANCH  23  24
ENDBRANCH   1  23
TORSDOF 4
ENDMDL
MODEL 4
REMARK VINA RESULT:      -7.9      3.485      7.456
REMARK  Name = 
REMARK  6 active torsions:
REMARK  status: ('A' for Active; 'I' for Inactive)
REMARK    1  A    between atoms: C_2  and  C_3
REMARK    2  A    between atoms: C_2  and  C_24
REMARK    3  A    between atoms: C_7  and  N_8
REMARK    4  A    between atoms: C_15  and  C_16
REMARK    5  A    between atoms: C_22  and  C_23
REMARK    6  A    between atoms: N_28  and  C_29
REMARK                            x       y       z     vdW  Elec       q    Type
REMARK                         _______ _______ _______ _____ _____    ______ ____
ROOT
ATOM      1  C   UNL     1       2.285   7.159  18.652  0.00  0.00    +0.000 A 
ATOM      2  C   UNL     1       2.325   8.051  17.566  0.00  0.00    +0.000 A 
ATOM      3  C   UNL     1       2.128   9.409  17.771  0.00  0.00    +0.000 A 
ATOM      4  C   UNL     1       1.713   9.855  19.017  0.00  0.00    +0.000 A 
ATOM      5  C   UNL     1       1.362   8.925  20.012  0.00  0.00    +0.000 A 
ATOM      6  C   UNL     1       1.845   7.607  19.915  0.00  0.00    +0.000 A 
ATOM      7  C   UNL     1       1.888   6.729  21.137  0.00  0.00    +0.000 C 
ENDROOT
BRANCH   5   8
ATOM      8  N   UNL     1       0.142   9.172  20.782  0.00  0.00    +0.000 N 
ATOM      9  C   UNL     1      -1.046   9.061  19.895  0.00  0.00    +0.000 C 
ATOM     10  C   UNL     1      -1.212  10.469  19.406  0.00  0.00    +0.000 A 
ATOM     11  C   UNL     1      -0.691  11.312  20.395  0.00  0.00    +0.000 A 
ATOM     12  C   UNL     1      -0.519  12.671  20.210  0.00  0.00    +0.000 A 
ATOM     13  C   UNL     1      -0.881  13.199  18.974  0.00  0.00    +0.000 A 
ATOM     14  C   UNL     1      -1.391  12.363  17.960  0.00  0.00    +0.000 A 
ATOM     15  C   UNL     1      -1.561  10.975  18.157  0.00  0.00    +0.000 A 
ATOM     16  C   UNL     1       0.044  10.464  21.366  0.00  0.00    +0.000 C 
ATOM     17  O   UNL     1       0.624  10.893  22.346  0.00  0.00    +0.000 OA
BRANCH  15  18
ATOM     18  C   UNL     1      -1.978  10.117  16.989  0.00  0.00    +0.000 C 
ATOM     19  F   UNL     1      -2.251  10.811  15.851  0.00  0.00    +0.000 F 
ATOM     20  F   UNL     1      -1.018   9.213  16.650  0.00  0.00    +0.000 F 
ATOM     21  F   UNL     1      -3.098   9.389  17.255  0.00  0.00    +0.000 F 
ENDBRANCH  15  18
ENDBRANCH   5   8
BRANCH   1  23
ATOM     22  C   UNL     1       1.860   4.944  17.836  0.00  0.00    +0.000 C 
ATOM     23  C   UNL     1       2.758   5.787  18.386  0.00  0.00    +0.000 C 
BRANCH  23  24
ATOM     24  C   UNL     1       4.113   5.324  18.504  0.00  0.00    +0.000 A 
ATOM     25  N   UNL     1       4.669   4.651  19.500  0.00  0.00    +0.000 NA
ATOM     26  N   UNL     1       5.962   4.338  19.173  0.00  0.00    +0.000 NA
ATOM     27  C   UNL     1       6.188   4.837  17.989  0.00  0.00    +0.000 A 
ATOM     28  N   UNL     1       5.076   5.478  17.525  0.00  0.00    +0.000 N 
ATOM     29  C   UNL     1       5.036   6.184  16.271  0.00  0.00    +0.000 C 
ENDBRANCH  23  24
ENDBRANCH   1  23
TORSDOF 4
ENDMDL
MODEL 5
REMARK VINA RESULT:      -7.9      1.389      2.146
REMARK  Name = 
REMARK  6 active torsions:
REMARK  status: ('A' for Active; 'I' for Inactive)
REMARK    1  A    between atoms: C_2  and  C_3
REMARK    2  A    between atoms: C_2  and  C_24
REMARK    3  A    between atoms: C_7  and  N_8
REMARK    4  A    between atoms: C_15  and  C_16
REMARK    5  A    between atoms: C_22  and  C_23
REMARK    6  A    between atoms: N_28  and  C_29
REMARK                            x       y       z     vdW  Elec       q    Type
REMARK                         _______ _______ _______ _____ _____    ______ ____
ROOT
ATOM      1  C   UNL     1       0.896   9.510  19.860  0.00  0.00    +0.000 A 
ATOM      2  C   UNL     1       0.501   8.686  20.929  0.00  0.00    +0.000 A 
ATOM      3  C   UNL     1       1.160   7.489  21.169  0.00  0.00    +0.000 A 
ATOM      4  C   UNL     1       2.083   7.025  20.245  0.00  0.00    +0.000 A 
ATOM      5  C   UNL     1       2.240   7.692  19.017  0.00  0.00    +0.000 A 
ATOM      6  C   UNL     1       1.821   9.031  18.909  0.00  0.00    +0.000 A 
ATOM      7  C   UNL     1       2.366   9.904  17.810  0.00  0.00    +0.000 C 
ENDROOT
BRANCH   5   8
ATOM      8  N   UNL     1       2.322   6.881  17.801  0.00  0.00    +0.000 N 
ATOM      9  C   UNL     1       1.504   5.649  17.959  0.00  0.00    +0.000 C 
ATOM     10  C   UNL     1       2.496   4.680  18.529  0.00  0.00    +0.000 A 
ATOM     11  C   UNL     1       3.761   5.073  18.078  0.00  0.00    +0.000 A 
ATOM     12  C   UNL     1       4.936   4.510  18.545  0.00  0.00    +0.000 A 
ATOM     13  C   UNL     1       4.826   3.515  19.513  0.00  0.00    +0.000 A 
ATOM     14  C   UNL     1       3.562   3.119  19.993  0.00  0.00    +0.000 A 
ATOM     15  C   UNL     1       2.368   3.701  19.511  0.00  0.00    +0.000 A 
ATOM     16  C   UNL     1       3.623   6.417  17.466  0.00  0.00    +0.000 C 
ATOM     17  O   UNL     1       4.545   7.047  16.983  0.00  0.00    +0.000 OA
BRANCH  15  18
ATOM     18  C   UNL     1       1.060   3.333  20.165  0.00  0.00    +0.000 C 
ATOM     19  F   UNL     1       0.312   4.398  20.565  0.00  0.00    +0.000 F 
ATOM     20  F   UNL     1       0.259   2.609  19.336  0.00  0.00    +0.000 F 
ATOM     21  F   UNL     1       1.234   2.566  21.278  0.00  0.00    +0.000 F 
ENDBRANCH  15  18
ENDBRANCH   5   8
BRANCH   1  23
ATOM     22  C   UNL     1       1.202  11.887  19.941  0.00  0.00    +0.000 C 
ATOM     23  C   UNL     1       0.323  10.869  19.838  0.00  0.00    +0.000 C 
BRANCH  23  24
ATOM     24  C   UNL     1      -1.045  11.202  19.554  0.00  0.00    +0.000 A 
ATOM     25  N   UNL     1      -1.871  11.961  20.259  0.00  0.00    +0.000 NA
ATOM     26  N   UNL     1      -3.060  12.084  19.590  0.00  0.00    +0.000 NA
ATOM     27  C   UNL     1      -2.955  11.388  18.492  0.00  0.00    +0.000 A 
ATOM     28  N   UNL     1      -1.724  10.802  18.419  0.00  0.00    +0.000 N 
ATOM     29  C   UNL     1      -1.332   9.918  17.352  0.00  0.00    +0.000 C 
ENDBRANCH  23  24
ENDBRANCH   1  23
TORSDOF 4
ENDMDL
MODEL 6
REMARK VINA RESULT:      -7.8      3.401      7.621
REMARK  Name = 
REMARK  6 active torsions:
REMARK  status: ('A' for Active; 'I' for Inactive)
REMARK    1  A    between atoms: C_2  and  C_3
REMARK    2  A    between atoms: C_2  and  C_24
REMARK    3  A    between atoms: C_7  and  N_8
REMARK    4  A    between atoms: C_15  and  C_16
REMARK    5  A    between atoms: C_22  and  C_23
REMARK    6  A    between atoms: N_28  and  C_29
REMARK                            x       y       z     vdW  Elec       q    Type
REMARK                         _______ _______ _______ _____ _____    ______ ____
ROOT
ATOM      1  C   UNL     1       2.448   6.700  18.446  0.00  0.00    +0.000 A 
ATOM      2  C   UNL     1       2.364   7.719  17.481  0.00  0.00    +0.000 A 
ATOM      3  C   UNL     1       2.221   9.043  17.873  0.00  0.00    +0.000 A 
ATOM      4  C   UNL     1       1.979   9.333  19.207  0.00  0.00    +0.000 A 
ATOM      5  C   UNL     1       1.742   8.289  20.118  0.00  0.00    +0.000 A 
ATOM      6  C   UNL     1       2.183   6.992  19.800  0.00  0.00    +0.000 A 
ATOM      7  C   UNL     1       2.367   5.970  20.891  0.00  0.00    +0.000 C 
ENDROOT
BRANCH   5   8
ATOM      8  N   UNL     1       0.636   8.443  21.065  0.00  0.00    +0.000 N 
ATOM      9  C   UNL     1      -0.639   8.638  20.325  0.00  0.00    +0.000 C 
ATOM     10  C   UNL     1      -0.704  10.130  20.190  0.00  0.00    +0.000 A 
ATOM     11  C   UNL     1      -0.003  10.673  21.273  0.00  0.00    +0.000 A 
ATOM     12  C   UNL     1       0.292  12.020  21.380  0.00  0.00    +0.000 A 
ATOM     13  C   UNL     1      -0.134  12.850  20.347  0.00  0.00    +0.000 A 
ATOM     14  C   UNL     1      -0.826  12.320  19.240  0.00  0.00    +0.000 A 
ATOM     15  C   UNL     1      -1.120  10.942  19.138  0.00  0.00    +0.000 A 
ATOM     16  C   UNL     1       0.731   9.565  21.933  0.00  0.00    +0.000 C 
ATOM     17  O   UNL     1       1.447   9.704  22.907  0.00  0.00    +0.000 OA
BRANCH  15  18
ATOM     18  C   UNL     1      -1.737  10.419  17.865  0.00  0.00    +0.000 C 
ATOM     19  F   UNL     1      -0.939   9.570  17.162  0.00  0.00    +0.000 F 
ATOM     20  F   UNL     1      -2.890   9.735  18.099  0.00  0.00    +0.000 F 
ATOM     21  F   UNL     1      -2.066  11.418  17.000  0.00  0.00    +0.000 F 
ENDBRANCH  15  18
ENDBRANCH   5   8
BRANCH   1  23
ATOM     22  C   UNL     1       4.029   5.317  17.289  0.00  0.00    +0.000 C 
ATOM     23  C   UNL     1       2.858   5.370  17.956  0.00  0.00    +0.000 C 
BRANCH  23  24
ATOM     24  C   UNL     1       2.214   4.124  18.264  0.00  0.00    +0.000 A 
ATOM     25  N   UNL     1       1.005   3.713  17.914  0.00  0.00    +0.000 NA
ATOM     26  N   UNL     1       0.817   2.427  18.348  0.00  0.00    +0.000 NA
ATOM     27  C   UNL     1       1.905   2.070  18.971  0.00  0.00    +0.000 A 
ATOM     28  N   UNL     1       2.810   3.092  18.965  0.00  0.00    +0.000 N 
ATOM     29  C   UNL     1       4.086   3.023  19.630  0.00  0.00    +0.000 C 
ENDBRANCH  23  24
ENDBRANCH   1  23
TORSDOF 4
ENDMDL
MODEL 7
REMARK VINA RESULT:      -7.8      3.458      4.602
REMARK  Name = 
REMARK  6 active torsions:
REMARK  status: ('A' for Active; 'I' for Inactive)
REMARK    1  A    between atoms: C_2  and  C_3
REMARK    2  A    between atoms: C_2  and  C_24
REMARK    3  A    between atoms: C_7  and  N_8
REMARK    4  A    between atoms: C_15  and  C_16
REMARK    5  A    between atoms: C_22  and  C_23
REMARK    6  A    between atoms: N_28  and  C_29
REMARK                            x       y       z     vdW  Elec       q    Type
REMARK                         _______ _______ _______ _____ _____    ______ ____
ROOT
ATOM      1  C   UNL     1       2.009   7.971  19.432  0.00  0.00    +0.000 A 
ATOM      2  C   UNL     1       2.641   8.631  18.363  0.00  0.00    +0.000 A 
ATOM      3  C   UNL     1       3.241   7.901  17.348  0.00  0.00    +0.000 A 
ATOM      4  C   UNL     1       3.372   6.528  17.485  0.00  0.00    +0.000 A 
ATOM      5  C   UNL     1       3.028   5.910  18.700  0.00  0.00    +0.000 A 
ATOM      6  C   UNL     1       2.159   6.577  19.583  0.00  0.00    +0.000 A 
ATOM      7  C   UNL     1       1.416   5.800  20.638  0.00  0.00    +0.000 C 
ENDROOT
BRANCH   5   8
ATOM      8  N   UNL     1       3.945   4.905  19.242  0.00  0.00    +0.000 N 
ATOM      9  C   UNL     1       5.309   5.480  19.368  0.00  0.00    +0.000 C 
ATOM     10  C   UNL     1       5.920   5.147  18.039  0.00  0.00    +0.000 A 
ATOM     11  C   UNL     1       5.286   3.989  17.575  0.00  0.00    +0.000 A 
ATOM     12  C   UNL     1       5.474   3.488  16.299  0.00  0.00    +0.000 A 
ATOM     13  C   UNL     1       6.331   4.193  15.457  0.00  0.00    +0.000 A 
ATOM     14  C   UNL     1       6.963   5.370  15.901  0.00  0.00    +0.000 A 
ATOM     15  C   UNL     1       6.763   5.875  17.205  0.00  0.00    +0.000 A 
ATOM     16  C   UNL     1       4.110   3.741  18.443  0.00  0.00    +0.000 C 
ATOM     17  O   UNL     1       3.338   2.810  18.301  0.00  0.00    +0.000 OA
BRANCH  15  18
ATOM     18  C   UNL     1       7.357   7.213  17.570  0.00  0.00    +0.000 C 
ATOM     19  F   UNL     1       8.198   7.729  16.632  0.00  0.00    +0.000 F 
ATOM     20  F   UNL     1       6.401   8.160  17.770  0.00  0.00    +0.000 F 
ATOM     21  F   UNL     1       8.078   7.162  18.724  0.00  0.00    +0.000 F 
ENDBRANCH  15  18
ENDBRANCH   5   8
BRANCH   1  23
ATOM     22  C   UNL     1       1.415   8.687  21.642  0.00  0.00    +0.000 C 
ATOM     23  C   UNL     1       1.181   8.810  20.319  0.00  0.00    +0.000 C 
BRANCH  23  24
ATOM     24  C   UNL     1       0.280   9.847  19.900  0.00  0.00    +0.000 A 
ATOM     25  N   UNL     1      -0.919   9.724  19.353  0.00  0.00    +0.000 NA
ATOM     26  N   UNL     1      -1.472  10.966  19.182  0.00  0.00    +0.000 NA
ATOM     27  C   UNL     1      -0.599  11.835  19.611  0.00  0.00    +0.000 A 
ATOM     28  N   UNL     1       0.522  11.198  20.059  0.00  0.00    +0.000 N 
ATOM     29  C   UNL     1       1.689  11.895  20.535  0.00  0.00    +0.000 C 
ENDBRANCH  23  24
ENDBRANCH   1  23
TORSDOF 4
ENDMDL
MODEL 8
REMARK VINA RESULT:      -7.8      2.926      3.753
REMARK  Name = 
REMARK  6 active torsions:
REMARK  status: ('A' for Active; 'I' for Inactive)
REMARK    1  A    between atoms: C_2  and  C_3
REMARK    2  A    between atoms: C_2  and  C_24
REMARK    3  A    between atoms: C_7  and  N_8
REMARK    4  A    between atoms: C_15  and  C_16
REMARK    5  A    between atoms: C_22  and  C_23
REMARK    6  A    between atoms: N_28  and  C_29
REMARK                            x       y       z     vdW  Elec       q    Type
REMARK                         _______ _______ _______ _____ _____    ______ ____
ROOT
ATOM      1  C   UNL     1       1.509   8.985  19.380  0.00  0.00    +0.000 A 
ATOM      2  C   UNL     1       2.094   9.182  18.116  0.00  0.00    +0.000 A 
ATOM      3  C   UNL     1       2.568   8.100  17.389  0.00  0.00    +0.000 A 
ATOM      4  C   UNL     1       2.628   6.852  17.990  0.00  0.00    +0.000 A 
ATOM      5  C   UNL     1       2.345   6.721  19.361  0.00  0.00    +0.000 A 
ATOM      6  C   UNL     1       1.588   7.720  20.000  0.00  0.00    +0.000 A 
ATOM      7  C   UNL     1       0.886   7.418  21.298  0.00  0.00    +0.000 C 
ENDROOT
BRANCH   5   8
ATOM      8  N   UNL     1       3.240   5.892  20.171  0.00  0.00    +0.000 N 
ATOM      9  C   UNL     1       4.471   5.576  19.400  0.00  0.00    +0.000 C 
ATOM     10  C   UNL     1       4.098   4.295  18.714  0.00  0.00    +0.000 A 
ATOM     11  C   UNL     1       3.149   3.658  19.522  0.00  0.00    +0.000 A 
ATOM     12  C   UNL     1       2.452   2.533  19.120  0.00  0.00    +0.000 A 
ATOM     13  C   UNL     1       2.720   2.037  17.846  0.00  0.00    +0.000 A 
ATOM     14  C   UNL     1       3.659   2.676  17.012  0.00  0.00    +0.000 A 
ATOM     15  C   UNL     1       4.365   3.826  17.431  0.00  0.00    +0.000 A 
ATOM     16  C   UNL     1       2.714   4.629  20.556  0.00  0.00    +0.000 C 
ATOM     17  O   UNL     1       1.885   4.389  21.414  0.00  0.00    +0.000 OA
BRANCH  15  18
ATOM     18  C   UNL     1       5.249   4.541  16.441  0.00  0.00    +0.000 C 
ATOM     19  F   UNL     1       4.797   5.770  16.069  0.00  0.00    +0.000 F 
ATOM     20  F   UNL     1       6.505   4.742  16.927  0.00  0.00    +0.000 F 
ATOM     21  F   UNL     1       5.406   3.839  15.284  0.00  0.00    +0.000 F 
ENDBRANCH  15  18
ENDBRANCH   5   8
BRANCH   1  23
ATOM     22  C   UNL     1       1.151  10.478  21.221  0.00  0.00    +0.000 C 
ATOM     23  C   UNL     1       0.804  10.143  19.961  0.00  0.00    +0.000 C 
BRANCH  23  24
ATOM     24  C   UNL     1      -0.082  11.029  19.260  0.00  0.00    +0.000 A 
ATOM     25  N   UNL     1      -1.379  10.889  19.035  0.00  0.00    +0.000 NA
ATOM     26  N   UNL     1      -1.855  12.005  18.398  0.00  0.00    +0.000 NA
ATOM     27  C   UNL     1      -0.842  12.808  18.226  0.00  0.00    +0.000 A 
ATOM     28  N   UNL     1       0.297  12.249  18.730  0.00  0.00    +0.000 N 
ATOM     29  C   UNL     1       1.592  12.869  18.632  0.00  0.00    +0.000 C 
ENDBRANCH  23  24
ENDBRANCH   1  23
TORSDOF 4
ENDMDL
MODEL 9
REMARK VINA RESULT:      -7.8      3.467      7.427
REMARK  Name = 
REMARK  6 active torsions:
REMARK  status: ('A' for Active; 'I' for Inactive)
REMARK    1  A    between atoms: C_2  and  C_3
REMARK    2  A    between atoms: C_2  and  C_24
REMARK    3  A    between atoms: C_7  and  N_8
REMARK    4  A    between atoms: C_15  and  C_16
REMARK    5  A    between atoms: C_22  and  C_23
REMARK    6  A    between atoms: N_28  and  C_29
REMARK                            x       y       z     vdW  Elec       q    Type
REMARK                         _______ _______ _______ _____ _____    ______ ____
ROOT
ATOM      1  C   UNL     1       2.393   6.475  18.429  0.00  0.00    +0.000 A 
ATOM      2  C   UNL     1       2.341   7.492  17.460  0.00  0.00    +0.000 A 
ATOM      3  C   UNL     1       2.278   8.823  17.847  0.00  0.00    +0.000 A 
ATOM      4  C   UNL     1       2.085   9.133  19.184  0.00  0.00    +0.000 A 
ATOM      5  C   UNL     1       1.814   8.108  20.108  0.00  0.00    +0.000 A 
ATOM      6  C   UNL     1       2.177   6.787  19.787  0.00  0.00    +0.000 A 
ATOM      7  C   UNL     1       2.332   5.763  20.880  0.00  0.00    +0.000 C 
ENDROOT
BRANCH   5   8
ATOM      8  N   UNL     1       0.741   8.326  21.080  0.00  0.00    +0.000 N 
ATOM      9  C   UNL     1      -0.548   8.541  20.370  0.00  0.00    +0.000 C 
ATOM     10  C   UNL     1      -0.569  10.030  20.191  0.00  0.00    +0.000 A 
ATOM     11  C   UNL     1       0.180  10.581  21.237  0.00  0.00    +0.000 A 
ATOM     12  C   UNL     1       0.521  11.920  21.295  0.00  0.00    +0.000 A 
ATOM     13  C   UNL     1       0.092  12.733  20.249  0.00  0.00    +0.000 A 
ATOM     14  C   UNL     1      -0.648  12.193  19.179  0.00  0.00    +0.000 A 
ATOM     15  C   UNL     1      -0.988  10.824  19.127  0.00  0.00    +0.000 A 
ATOM     16  C   UNL     1       0.897   9.470  21.910  0.00  0.00    +0.000 C 
ATOM     17  O   UNL     1       1.645   9.613  22.860  0.00  0.00    +0.000 OA
BRANCH  15  18
ATOM     18  C   UNL     1      -1.658  10.284  17.889  0.00  0.00    +0.000 C 
ATOM     19  F   UNL     1      -2.787   9.563  18.129  0.00  0.00    +0.000 F 
ATOM     20  F   UNL     1      -2.028  11.275  17.033  0.00  0.00    +0.000 F 
ATOM     21  F   UNL     1      -0.840   9.462  17.174  0.00  0.00    +0.000 F 
ENDBRANCH  15  18
ENDBRANCH   5   8
BRANCH   1  23
ATOM     22  C   UNL     1       1.692   4.249  17.879  0.00  0.00    +0.000 C 
ATOM     23  C   UNL     1       2.718   5.122  17.938  0.00  0.00    +0.000 C 
BRANCH  23  24
ATOM     24  C   UNL     1       3.972   4.709  17.372  0.00  0.00    +0.000 A 
ATOM     25  N   UNL     1       4.206   4.204  16.171  0.00  0.00    +0.000 NA
ATOM     26  N   UNL     1       5.555   4.023  16.007  0.00  0.00    +0.000 NA
ATOM     27  C   UNL     1       6.129   4.405  17.114  0.00  0.00    +0.000 A 
ATOM     28  N   UNL     1       5.192   4.830  18.011  0.00  0.00    +0.000 N 
ATOM     29  C   UNL     1       5.513   5.253  19.350  0.00  0.00    +0.000 C 
ENDBRANCH  23  24
ENDBRANCH   1  23
TORSDOF 4
ENDMDL
