MODEL 1
REMARK VINA RESULT:      -9.1      0.000      0.000
REMARK  Name = 
REMARK  4 active torsions:
REMARK  status: ('A' for Active; 'I' for Inactive)
REMARK    1  A    between atoms: S_2  and  N_4
REMARK    2  A    between atoms: S_2  and  C_21
REMARK    3  A    between atoms: N_4  and  C_5
REMARK    4  A    between atoms: C_8  and  C_9
REMARK                            x       y       z     vdW  Elec       q    Type
REMARK                         _______ _______ _______ _____ _____    ______ ____
ROOT
ATOM      1  C   UNL     1       2.752   5.742  19.073  0.00  0.00    +0.000 A 
ATOM      2  C   UNL     1       2.104   5.785  20.306  0.00  0.00    +0.000 A 
ATOM      3  C   UNL     1       1.539   6.983  20.758  0.00  0.00    +0.000 A 
ATOM      4  C   UNL     1       1.600   8.150  19.978  0.00  0.00    +0.000 A 
ATOM      5  C   UNL     1       2.265   8.085  18.745  0.00  0.00    +0.000 A 
ATOM      6  C   UNL     1       2.811   6.884  18.278  0.00  0.00    +0.000 A 
ENDROOT
BRANCH   4   7
ATOM      7  C   UNL     1       0.996   9.390  20.485  0.00  0.00    +0.000 A 
ATOM      8  N   UNL     1       1.152   9.855  21.711  0.00  0.00    +0.000 NA
ATOM      9  N   UNL     1       0.471  11.038  21.828  0.00  0.00    +0.000 NA
ATOM     10  C   UNL     1      -0.124  11.286  20.680  0.00  0.00    +0.000 A 
ATOM     11  N   UNL     1       0.149  10.251  19.813  0.00  0.00    +0.000 N 
ATOM     12  C   UNL     1      -0.389  10.075  18.480  0.00  0.00    +0.000 C 
ATOM     13  C   UNL     1      -1.842  10.502  18.320  0.00  0.00    +0.000 C 
ATOM     14  C   UNL     1      -2.023  12.006  18.132  0.00  0.00    +0.000 C 
ATOM     15  C   UNL     1      -1.080  12.887  18.950  0.00  0.00    +0.000 C 
ATOM     16  C   UNL     1      -0.984  12.480  20.414  0.00  0.00    +0.000 C 
ENDBRANCH   4   7
BRANCH   1  17
ATOM     17  N   UNL     1       3.315   4.506  18.616  0.00  0.00    +0.000 N 
ATOM     18  H   UNL     1       2.841   3.711  19.053  0.00  0.00    +0.000 HD
BRANCH  17  20
ATOM     19  O   UNL     1       5.460   5.447  19.699  0.00  0.00    +0.000 OA
ATOM     20  S   UNL     1       4.974   4.303  18.961  0.00  0.00    +0.000 S 
ATOM     21  O   UNL     1       5.142   2.958  19.460  0.00  0.00    +0.000 OA
BRANCH  20  22
ATOM     22  C   UNL     1       5.689   4.377  17.349  0.00  0.00    +0.000 A 
ATOM     23  C   UNL     1       4.889   4.229  16.212  0.00  0.00    +0.000 A 
ATOM     24  C   UNL     1       5.471   4.362  14.958  0.00  0.00    +0.000 A 
ATOM     25  F   UNL     1       4.712   4.233  13.862  0.00  0.00    +0.000 F 
ATOM     26  C   UNL     1       6.830   4.636  14.818  0.00  0.00    +0.000 A 
ATOM     27  C   UNL     1       7.626   4.767  15.958  0.00  0.00    +0.000 A 
ATOM     28  C   UNL     1       7.050   4.636  17.222  0.00  0.00    +0.000 A 
ATOM     29  F   UNL     1       7.836   4.746  18.301  0.00  0.00    +0.000 F 
ENDBRANCH  20  22
ENDBRANCH  17  20
ENDBRANCH   1  17
TORSDOF 4
ENDMDL
MODEL 2
REMARK VINA RESULT:      -8.7      1.131      2.022
REMARK  Name = 
REMARK  4 active torsions:
REMARK  status: ('A' for Active; 'I' for Inactive)
REMARK    1  A    between atoms: S_2  and  N_4
REMARK    2  A    between atoms: S_2  and  C_21
REMARK    3  A    between atoms: N_4  and  C_5
REMARK    4  A    between atoms: C_8  and  C_9
REMARK                            x       y       z     vdW  Elec       q    Type
REMARK                         _______ _______ _______ _____ _____    ______ ____
ROOT
ATOM      1  C   UNL     1       2.725   5.863  18.847  0.00  0.00    +0.000 A 
ATOM      2  C   UNL     1       2.783   6.824  17.840  0.00  0.00    +0.000 A 
ATOM      3  C   UNL     1       2.281   8.111  18.071  0.00  0.00    +0.000 A 
ATOM      4  C   UNL     1       1.729   8.459  19.315  0.00  0.00    +0.000 A 
ATOM      5  C   UNL     1       1.673   7.472  20.311  0.00  0.00    +0.000 A 
ATOM      6  C   UNL     1       2.195   6.192  20.093  0.00  0.00    +0.000 A 
ENDROOT
BRANCH   4   7
ATOM      7  C   UNL     1       1.211   9.818  19.520  0.00  0.00    +0.000 A 
ATOM      8  N   UNL     1       1.531  10.864  18.780  0.00  0.00    +0.000 NA
ATOM      9  N   UNL     1       0.848  11.959  19.239  0.00  0.00    +0.000 NA
ATOM     10  C   UNL     1       0.126  11.590  20.276  0.00  0.00    +0.000 A 
ATOM     11  N   UNL     1       0.355  10.253  20.514  0.00  0.00    +0.000 N 
ATOM     12  C   UNL     1      -0.161   9.471  21.620  0.00  0.00    +0.000 C 
ATOM     13  C   UNL     1      -0.236  10.217  22.945  0.00  0.00    +0.000 C 
ATOM     14  C   UNL     1      -1.466  11.109  23.078  0.00  0.00    +0.000 C 
ATOM     15  C   UNL     1      -1.896  11.828  21.800  0.00  0.00    +0.000 C 
ATOM     16  C   UNL     1      -0.747  12.508  21.069  0.00  0.00    +0.000 C 
ENDBRANCH   4   7
BRANCH   1  17
ATOM     17  N   UNL     1       3.254   4.554  18.604  0.00  0.00    +0.000 N 
ATOM     18  H   UNL     1       2.761   3.856  19.169  0.00  0.00    +0.000 HD
BRANCH  17  20
ATOM     19  O   UNL     1       5.379   5.532  19.691  0.00  0.00    +0.000 OA
ATOM     20  S   UNL     1       4.909   4.368  18.976  0.00  0.00    +0.000 S 
ATOM     21  O   UNL     1       5.077   3.037  19.510  0.00  0.00    +0.000 OA
BRANCH  20  22
ATOM     22  C   UNL     1       5.645   4.406  17.372  0.00  0.00    +0.000 A 
ATOM     23  C   UNL     1       4.859   4.240  16.228  0.00  0.00    +0.000 A 
ATOM     24  C   UNL     1       5.459   4.345  14.979  0.00  0.00    +0.000 A 
ATOM     25  F   UNL     1       4.714   4.197  13.877  0.00  0.00    +0.000 F 
ATOM     26  C   UNL     1       6.820   4.608  14.852  0.00  0.00    +0.000 A 
ATOM     27  C   UNL     1       7.603   4.758  15.999  0.00  0.00    +0.000 A 
ATOM     28  C   UNL     1       7.010   4.655  17.258  0.00  0.00    +0.000 A 
ATOM     29  F   UNL     1       7.782   4.783  18.344  0.00  0.00    +0.000 F 
ENDBRANCH  20  22
ENDBRANCH  17  20
ENDBRANCH   1  17
TORSDOF 4
ENDMDL
MODEL 3
REMARK VINA RESULT:      -8.5      1.296      2.212
REMARK  Name = 
REMARK  4 active torsions:
REMARK  status: ('A' for Active; 'I' for Inactive)
REMARK    1  A    between atoms: S_2  and  N_4
REMARK    2  A    between atoms: S_2  and  C_21
REMARK    3  A    between atoms: N_4  and  C_5
REMARK    4  A    between atoms: C_8  and  C_9
REMARK                            x       y       z     vdW  Elec       q    Type
REMARK                         _______ _______ _______ _____ _____    ______ ____
ROOT
ATOM      1  C   UNL     1       2.266   4.990  18.808  0.00  0.00    +0.000 A 
ATOM      2  C   UNL     1       1.684   4.983  20.074  0.00  0.00    +0.000 A 
ATOM      3  C   UNL     1       1.383   6.192  20.713  0.00  0.00    +0.000 A 
ATOM      4  C   UNL     1       1.645   7.423  20.090  0.00  0.00    +0.000 A 
ATOM      5  C   UNL     1       2.241   7.406  18.820  0.00  0.00    +0.000 A 
ATOM      6  C   UNL     1       2.522   6.200  18.167  0.00  0.00    +0.000 A 
ENDROOT
BRANCH   4   7
ATOM      7  C   UNL     1       1.317   8.672  20.791  0.00  0.00    +0.000 A 
ATOM      8  N   UNL     1       1.463   8.866  22.089  0.00  0.00    +0.000 NA
ATOM      9  N   UNL     1       1.083  10.146  22.393  0.00  0.00    +0.000 NA
ATOM     10  C   UNL     1       0.681  10.731  21.284  0.00  0.00    +0.000 A 
ATOM     11  N   UNL     1       0.774   9.824  20.252  0.00  0.00    +0.000 N 
ATOM     12  C   UNL     1       0.341  10.022  18.884  0.00  0.00    +0.000 C 
ATOM     13  C   UNL     1      -0.941  10.830  18.735  0.00  0.00    +0.000 C 
ATOM     14  C   UNL     1      -0.730  12.338  18.826  0.00  0.00    +0.000 C 
ATOM     15  C   UNL     1       0.317  12.795  19.842  0.00  0.00    +0.000 C 
ATOM     16  C   UNL     1       0.168  12.133  21.206  0.00  0.00    +0.000 C 
ENDBRANCH   4   7
BRANCH   1  17
ATOM     17  N   UNL     1       2.558   3.746  18.159  0.00  0.00    +0.000 N 
ATOM     18  H   UNL     1       1.835   3.053  18.370  0.00  0.00    +0.000 HD
BRANCH  17  20
ATOM     19  O   UNL     1       4.130   2.987  20.059  0.00  0.00    +0.000 OA
ATOM     20  S   UNL     1       4.036   3.028  18.617  0.00  0.00    +0.000 S 
ATOM     21  O   UNL     1       4.195   1.836  17.817  0.00  0.00    +0.000 OA
BRANCH  20  22
ATOM     22  C   UNL     1       5.208   4.221  18.050  0.00  0.00    +0.000 A 
ATOM     23  C   UNL     1       6.060   4.861  18.955  0.00  0.00    +0.000 A 
ATOM     24  C   UNL     1       7.017   5.743  18.469  0.00  0.00    +0.000 A 
ATOM     25  F   UNL     1       7.846   6.353  19.325  0.00  0.00    +0.000 F 
ATOM     26  C   UNL     1       7.137   5.997  17.105  0.00  0.00    +0.000 A 
ATOM     27  C   UNL     1       6.273   5.366  16.208  0.00  0.00    +0.000 A 
ATOM     28  C   UNL     1       5.308   4.479  16.687  0.00  0.00    +0.000 A 
ATOM     29  F   UNL     1       4.477   3.900  15.811  0.00  0.00    +0.000 F 
ENDBRANCH  20  22
ENDBRANCH  17  20
ENDBRANCH   1  17
TORSDOF 4
ENDMDL
MODEL 4
REMARK VINA RESULT:      -8.5      4.748      8.708
REMARK  Name = 
REMARK  4 active torsions:
REMARK  status: ('A' for Active; 'I' for Inactive)
REMARK    1  A    between atoms: S_2  and  N_4
REMARK    2  A    between atoms: S_2  and  C_21
REMARK    3  A    between atoms: N_4  and  C_5
REMARK    4  A    between atoms: C_8  and  C_9
REMARK                            x       y       z     vdW  Elec       q    Type
REMARK                         _______ _______ _______ _____ _____    ______ ____
ROOT
ATOM      1  C   UNL     1       4.760   5.933  18.384  0.00  0.00    +0.000 A 
ATOM      2  C   UNL     1       4.933   6.937  17.434  0.00  0.00    +0.000 A 
ATOM      3  C   UNL     1       5.605   6.660  16.237  0.00  0.00    +0.000 A 
ATOM      4  C   UNL     1       6.099   5.373  15.968  0.00  0.00    +0.000 A 
ATOM      5  C   UNL     1       5.922   4.380  16.943  0.00  0.00    +0.000 A 
ATOM      6  C   UNL     1       5.230   4.647  18.130  0.00  0.00    +0.000 A 
ENDROOT
BRANCH   4   7
ATOM      7  C   UNL     1       6.800   5.119  14.702  0.00  0.00    +0.000 A 
ATOM      8  N   UNL     1       7.921   5.710  14.331  0.00  0.00    +0.000 NA
ATOM      9  N   UNL     1       8.301   5.218  13.111  0.00  0.00    +0.000 NA
ATOM     10  C   UNL     1       7.401   4.341  12.721  0.00  0.00    +0.000 A 
ATOM     11  N   UNL     1       6.412   4.274  13.678  0.00  0.00    +0.000 N 
ATOM     12  C   UNL     1       5.184   3.509  13.601  0.00  0.00    +0.000 C 
ATOM     13  C   UNL     1       4.554   3.457  12.216  0.00  0.00    +0.000 C 
ATOM     14  C   UNL     1       5.189   2.422  11.292  0.00  0.00    +0.000 C 
ATOM     15  C   UNL     1       6.704   2.269  11.420  0.00  0.00    +0.000 C 
ATOM     16  C   UNL     1       7.450   3.596  11.426  0.00  0.00    +0.000 C 
ENDBRANCH   4   7
BRANCH   1  17
ATOM     17  N   UNL     1       4.059   6.226  19.600  0.00  0.00    +0.000 N 
ATOM     18  H   UNL     1       4.213   5.486  20.290  0.00  0.00    +0.000 HD
BRANCH  17  20
ATOM     19  O   UNL     1       1.829   7.103  20.555  0.00  0.00    +0.000 OA
ATOM     20  S   UNL     1       2.367   6.364  19.436  0.00  0.00    +0.000 S 
ATOM     21  O   UNL     1       2.104   6.764  18.073  0.00  0.00    +0.000 OA
BRANCH  20  22
ATOM     22  C   UNL     1       1.849   4.686  19.618  0.00  0.00    +0.000 A 
ATOM     23  C   UNL     1       1.692   4.129  20.891  0.00  0.00    +0.000 A 
ATOM     24  C   UNL     1       1.216   2.828  21.001  0.00  0.00    +0.000 A 
ATOM     25  F   UNL     1       1.052   2.287  22.215  0.00  0.00    +0.000 F 
ATOM     26  C   UNL     1       0.899   2.078  19.872  0.00  0.00    +0.000 A 
ATOM     27  C   UNL     1       1.072   2.636  18.603  0.00  0.00    +0.000 A 
ATOM     28  C   UNL     1       1.548   3.941  18.482  0.00  0.00    +0.000 A 
ATOM     29  F   UNL     1       1.726   4.450  17.256  0.00  0.00    +0.000 F 
ENDBRANCH  20  22
ENDBRANCH  17  20
ENDBRANCH   1  17
TORSDOF 4
ENDMDL
MODEL 5
REMARK VINA RESULT:      -8.4      4.917      8.868
REMARK  Name = 
REMARK  4 active torsions:
REMARK  status: ('A' for Active; 'I' for Inactive)
REMARK    1  A    between atoms: S_2  and  N_4
REMARK    2  A    between atoms: S_2  and  C_21
REMARK    3  A    between atoms: N_4  and  C_5
REMARK    4  A    between atoms: C_8  and  C_9
REMARK                            x       y       z     vdW  Elec       q    Type
REMARK                         _______ _______ _______ _____ _____    ______ ____
ROOT
ATOM      1  C   UNL     1       1.081  10.025  18.753  0.00  0.00    +0.000 A 
ATOM      2  C   UNL     1       1.640   9.402  17.640  0.00  0.00    +0.000 A 
ATOM      3  C   UNL     1       2.291   8.171  17.780  0.00  0.00    +0.000 A 
ATOM      4  C   UNL     1       2.379   7.538  19.030  0.00  0.00    +0.000 A 
ATOM      5  C   UNL     1       1.817   8.189  20.140  0.00  0.00    +0.000 A 
ATOM      6  C   UNL     1       1.145   9.408  20.000  0.00  0.00    +0.000 A 
ENDROOT
BRANCH   4   7
ATOM      7  C   UNL     1       3.071   6.247  19.140  0.00  0.00    +0.000 A 
ATOM      8  N   UNL     1       4.220   5.958  18.557  0.00  0.00    +0.000 NA
ATOM      9  N   UNL     1       4.581   4.680  18.893  0.00  0.00    +0.000 NA
ATOM     10  C   UNL     1       3.640   4.175  19.663  0.00  0.00    +0.000 A 
ATOM     11  N   UNL     1       2.646   5.117  19.814  0.00  0.00    +0.000 N 
ATOM     12  C   UNL     1       1.383   4.939  20.501  0.00  0.00    +0.000 C 
ATOM     13  C   UNL     1       0.756   3.563  20.330  0.00  0.00    +0.000 C 
ATOM     14  C   UNL     1       1.342   2.501  21.255  0.00  0.00    +0.000 C 
ATOM     15  C   UNL     1       2.848   2.602  21.498  0.00  0.00    +0.000 C 
ATOM     16  C   UNL     1       3.658   2.789  20.222  0.00  0.00    +0.000 C 
ENDBRANCH   4   7
BRANCH   1  17
ATOM     17  N   UNL     1       0.406  11.279  18.595  0.00  0.00    +0.000 N 
ATOM     18  H   UNL     1       0.999  12.050  18.916  0.00  0.00    +0.000 HD
BRANCH  17  20
ATOM     19  O   UNL     1      -1.238  10.257  20.300  0.00  0.00    +0.000 OA
ATOM     20  S   UNL     1      -1.053  11.423  19.467  0.00  0.00    +0.000 S 
ATOM     21  O   UNL     1      -1.088  12.757  20.019  0.00  0.00    +0.000 OA
BRANCH  20  22
ATOM     22  C   UNL     1      -2.254  11.339  18.176  0.00  0.00    +0.000 A 
ATOM     23  C   UNL     1      -1.893  10.890  16.902  0.00  0.00    +0.000 A 
ATOM     24  C   UNL     1      -2.877  10.770  15.928  0.00  0.00    +0.000 A 
ATOM     25  F   UNL     1      -2.545  10.331  14.707  0.00  0.00    +0.000 F 
ATOM     26  C   UNL     1      -4.205  11.089  16.199  0.00  0.00    +0.000 A 
ATOM     27  C   UNL     1      -4.556  11.551  17.470  0.00  0.00    +0.000 A 
ATOM     28  C   UNL     1      -3.576  11.675  18.455  0.00  0.00    +0.000 A 
ATOM     29  F   UNL     1      -3.930  12.138  19.660  0.00  0.00    +0.000 F 
ENDBRANCH  20  22
ENDBRANCH  17  20
ENDBRANCH   1  17
TORSDOF 4
ENDMDL
MODEL 6
REMARK VINA RESULT:      -8.4      1.953      2.626
REMARK  Name = 
REMARK  4 active torsions:
REMARK  status: ('A' for Active; 'I' for Inactive)
REMARK    1  A    between atoms: S_2  and  N_4
REMARK    2  A    between atoms: S_2  and  C_21
REMARK    3  A    between atoms: N_4  and  C_5
REMARK    4  A    between atoms: C_8  and  C_9
REMARK                            x       y       z     vdW  Elec       q    Type
REMARK                         _______ _______ _______ _____ _____    ______ ____
ROOT
ATOM      1  C   UNL     1       2.670   7.078  19.479  0.00  0.00    +0.000 A 
ATOM      2  C   UNL     1       1.833   7.612  20.456  0.00  0.00    +0.000 A 
ATOM      3  C   UNL     1       1.081   8.761  20.182  0.00  0.00    +0.000 A 
ATOM      4  C   UNL     1       1.143   9.382  18.924  0.00  0.00    +0.000 A 
ATOM      5  C   UNL     1       2.000   8.832  17.958  0.00  0.00    +0.000 A 
ATOM      6  C   UNL     1       2.735   7.670  18.220  0.00  0.00    +0.000 A 
ENDROOT
BRANCH   4   7
ATOM      7  C   UNL     1       0.341  10.586  18.672  0.00  0.00    +0.000 A 
ATOM      8  N   UNL     1      -0.915  10.581  18.266  0.00  0.00    +0.000 NA
ATOM      9  N   UNL     1      -1.353  11.874  18.158  0.00  0.00    +0.000 NA
ATOM     10  C   UNL     1      -0.358  12.675  18.476  0.00  0.00    +0.000 A 
ATOM     11  N   UNL     1       0.745  11.905  18.771  0.00  0.00    +0.000 N 
ATOM     12  C   UNL     1       2.079  12.384  19.073  0.00  0.00    +0.000 C 
ATOM     13  C   UNL     1       2.511  13.605  18.273  0.00  0.00    +0.000 C 
ATOM     14  C   UNL     1       1.975  14.922  18.825  0.00  0.00    +0.000 C 
ATOM     15  C   UNL     1       0.553  14.870  19.383  0.00  0.00    +0.000 C 
ATOM     16  C   UNL     1      -0.435  14.168  18.461  0.00  0.00    +0.000 C 
ENDBRANCH   4   7
BRANCH   1  17
ATOM     17  N   UNL     1       3.425   5.894  19.768  0.00  0.00    +0.000 N 
ATOM     18  H   UNL     1       4.426   6.068  19.643  0.00  0.00    +0.000 HD
BRANCH  17  20
ATOM     19  O   UNL     1       3.037   3.351  19.581  0.00  0.00    +0.000 OA
ATOM     20  S   UNL     1       3.060   4.553  18.779  0.00  0.00    +0.000 S 
ATOM     21  O   UNL     1       1.936   4.928  17.952  0.00  0.00    +0.000 OA
BRANCH  20  22
ATOM     22  C   UNL     1       4.489   4.466  17.746  0.00  0.00    +0.000 A 
ATOM     23  C   UNL     1       4.354   4.281  16.367  0.00  0.00    +0.000 A 
ATOM     24  C   UNL     1       5.495   4.287  15.574  0.00  0.00    +0.000 A 
ATOM     25  F   UNL     1       5.378   4.120  14.250  0.00  0.00    +0.000 F 
ATOM     26  C   UNL     1       6.759   4.472  16.128  0.00  0.00    +0.000 A 
ATOM     27  C   UNL     1       6.887   4.642  17.509  0.00  0.00    +0.000 A 
ATOM     28  C   UNL     1       5.748   4.638  18.313  0.00  0.00    +0.000 A 
ATOM     29  F   UNL     1       5.895   4.783  19.637  0.00  0.00    +0.000 F 
ENDBRANCH  20  22
ENDBRANCH  17  20
ENDBRANCH   1  17
TORSDOF 4
ENDMDL
MODEL 7
REMARK VINA RESULT:      -8.4      2.096      3.241
REMARK  Name = 
REMARK  4 active torsions:
REMARK  status: ('A' for Active; 'I' for Inactive)
REMARK    1  A    between atoms: S_2  and  N_4
REMARK    2  A    between atoms: S_2  and  C_21
REMARK    3  A    between atoms: N_4  and  C_5
REMARK    4  A    between atoms: C_8  and  C_9
REMARK                            x       y       z     vdW  Elec       q    Type
REMARK                         _______ _______ _______ _____ _____    ______ ____
ROOT
ATOM      1  C   UNL     1       2.406   7.244  19.717  0.00  0.00    +0.000 A 
ATOM      2  C   UNL     1       1.575   7.840  20.663  0.00  0.00    +0.000 A 
ATOM      3  C   UNL     1       0.889   9.019  20.348  0.00  0.00    +0.000 A 
ATOM      4  C   UNL     1       1.012   9.609  19.079  0.00  0.00    +0.000 A 
ATOM      5  C   UNL     1       1.861   8.996  18.146  0.00  0.00    +0.000 A 
ATOM      6  C   UNL     1       2.530   7.805  18.448  0.00  0.00    +0.000 A 
ENDROOT
BRANCH   4   7
ATOM      7  C   UNL     1       0.278  10.847  18.785  0.00  0.00    +0.000 A 
ATOM      8  N   UNL     1      -0.979  10.899  18.384  0.00  0.00    +0.000 NA
ATOM      9  N   UNL     1      -1.343  12.210  18.228  0.00  0.00    +0.000 NA
ATOM     10  C   UNL     1      -0.302  12.963  18.510  0.00  0.00    +0.000 A 
ATOM     11  N   UNL     1       0.758  12.143  18.830  0.00  0.00    +0.000 N 
ATOM     12  C   UNL     1       2.118  12.556  19.107  0.00  0.00    +0.000 C 
ATOM     13  C   UNL     1       2.614  13.719  18.258  0.00  0.00    +0.000 C 
ATOM     14  C   UNL     1       2.158  15.085  18.762  0.00  0.00    +0.000 C 
ATOM     15  C   UNL     1       0.739  15.136  19.327  0.00  0.00    +0.000 C 
ATOM     16  C   UNL     1      -0.293  14.456  18.438  0.00  0.00    +0.000 C 
ENDBRANCH   4   7
BRANCH   1  17
ATOM     17  N   UNL     1       3.093   6.030  20.047  0.00  0.00    +0.000 N 
ATOM     18  H   UNL     1       4.094   6.206  20.171  0.00  0.00    +0.000 HD
BRANCH  17  20
ATOM     19  O   UNL     1       2.813   3.520  19.520  0.00  0.00    +0.000 OA
ATOM     20  S   UNL     1       2.980   4.800  18.870  0.00  0.00    +0.000 S 
ATOM     21  O   UNL     1       2.053   5.260  17.863  0.00  0.00    +0.000 OA
BRANCH  20  22
ATOM     22  C   UNL     1       4.599   4.823  18.168  0.00  0.00    +0.000 A 
ATOM     23  C   UNL     1       5.664   5.404  18.864  0.00  0.00    +0.000 A 
ATOM     24  C   UNL     1       6.938   5.345  18.314  0.00  0.00    +0.000 A 
ATOM     25  F   UNL     1       7.967   5.889  18.976  0.00  0.00    +0.000 F 
ATOM     26  C   UNL     1       7.169   4.721  17.090  0.00  0.00    +0.000 A 
ATOM     27  C   UNL     1       6.098   4.155  16.394  0.00  0.00    +0.000 A 
ATOM     28  C   UNL     1       4.815   4.210  16.937  0.00  0.00    +0.000 A 
ATOM     29  F   UNL     1       3.800   3.679  16.244  0.00  0.00    +0.000 F 
ENDBRANCH  20  22
ENDBRANCH  17  20
ENDBRANCH   1  17
TORSDOF 4
ENDMDL
MODEL 8
REMARK VINA RESULT:      -8.4      5.115      9.686
REMARK  Name = 
REMARK  4 active torsions:
REMARK  status: ('A' for Active; 'I' for Inactive)
REMARK    1  A    between atoms: S_2  and  N_4
REMARK    2  A    between atoms: S_2  and  C_21
REMARK    3  A    between atoms: N_4  and  C_5
REMARK    4  A    between atoms: C_8  and  C_9
REMARK                            x       y       z     vdW  Elec       q    Type
REMARK                         _______ _______ _______ _____ _____    ______ ____
ROOT
ATOM      1  C   UNL     1       0.557   9.824  19.742  0.00  0.00    +0.000 A 
ATOM      2  C   UNL     1       0.877   9.872  18.387  0.00  0.00    +0.000 A 
ATOM      3  C   UNL     1       1.730   8.909  17.834  0.00  0.00    +0.000 A 
ATOM      4  C   UNL     1       2.261   7.876  18.624  0.00  0.00    +0.000 A 
ATOM      5  C   UNL     1       1.933   7.853  19.988  0.00  0.00    +0.000 A 
ATOM      6  C   UNL     1       1.062   8.800  20.540  0.00  0.00    +0.000 A 
ENDROOT
BRANCH   4   7
ATOM      7  C   UNL     1       3.153   6.884  18.010  0.00  0.00    +0.000 A 
ATOM      8  N   UNL     1       4.233   7.175  17.308  0.00  0.00    +0.000 NA
ATOM      9  N   UNL     1       4.833   6.011  16.910  0.00  0.00    +0.000 NA
ATOM     10  C   UNL     1       4.108   5.003  17.347  0.00  0.00    +0.000 A 
ATOM     11  N   UNL     1       3.015   5.508  18.015  0.00  0.00    +0.000 N 
ATOM     12  C   UNL     1       1.912   4.748  18.568  0.00  0.00    +0.000 C 
ATOM     13  C   UNL     1       1.487   3.548  17.734  0.00  0.00    +0.000 C 
ATOM     14  C   UNL     1       2.363   2.316  17.940  0.00  0.00    +0.000 C 
ATOM     15  C   UNL     1       3.854   2.595  18.127  0.00  0.00    +0.000 C 
ATOM     16  C   UNL     1       4.424   3.563  17.099  0.00  0.00    +0.000 C 
ENDBRANCH   4   7
BRANCH   1  17
ATOM     17  N   UNL     1      -0.327  10.808  20.294  0.00  0.00    +0.000 N 
ATOM     18  H   UNL     1      -1.087  11.015  19.639  0.00  0.00    +0.000 HD
BRANCH  17  20
ATOM     19  O   UNL     1       1.695  12.089  21.256  0.00  0.00    +0.000 OA
ATOM     20  S   UNL     1       0.403  12.309  20.648  0.00  0.00    +0.000 S 
ATOM     21  O   UNL     1       0.254  13.140  19.476  0.00  0.00    +0.000 OA
BRANCH  20  22
ATOM     22  C   UNL     1      -0.665  12.942  21.902  0.00  0.00    +0.000 A 
ATOM     23  C   UNL     1      -1.727  12.171  22.383  0.00  0.00    +0.000 A 
ATOM     24  C   UNL     1      -2.506  12.671  23.419  0.00  0.00    +0.000 A 
ATOM     25  F   UNL     1      -3.520  11.937  23.894  0.00  0.00    +0.000 F 
ATOM     26  C   UNL     1      -2.248  13.920  23.978  0.00  0.00    +0.000 A 
ATOM     27  C   UNL     1      -1.194  14.691  23.483  0.00  0.00    +0.000 A 
ATOM     28  C   UNL     1      -0.406  14.198  22.444  0.00  0.00    +0.000 A 
ATOM     29  F   UNL     1       0.587  14.962  21.971  0.00  0.00    +0.000 F 
ENDBRANCH  20  22
ENDBRANCH  17  20
ENDBRANCH   1  17
TORSDOF 4
ENDMDL
MODEL 9
REMARK VINA RESULT:      -8.4      5.234      9.548
REMARK  Name = 
REMARK  4 active torsions:
REMARK  status: ('A' for Active; 'I' for Inactive)
REMARK    1  A    between atoms: S_2  and  N_4
REMARK    2  A    between atoms: S_2  and  C_21
REMARK    3  A    between atoms: N_4  and  C_5
REMARK    4  A    between atoms: C_8  and  C_9
REMARK                            x       y       z     vdW  Elec       q    Type
REMARK                         _______ _______ _______ _____ _____    ______ ____
ROOT
ATOM      1  C   UNL     1       1.041  10.157  19.103  0.00  0.00    +0.000 A 
ATOM      2  C   UNL     1       1.598   9.666  17.925  0.00  0.00    +0.000 A 
ATOM      3  C   UNL     1       2.234   8.419  17.917  0.00  0.00    +0.000 A 
ATOM      4  C   UNL     1       2.309   7.640  19.084  0.00  0.00    +0.000 A 
ATOM      5  C   UNL     1       1.751   8.159  20.261  0.00  0.00    +0.000 A 
ATOM      6  C   UNL     1       1.093   9.394  20.268  0.00  0.00    +0.000 A 
ENDROOT
BRANCH   4   7
ATOM      7  C   UNL     1       2.986   6.336  19.039  0.00  0.00    +0.000 A 
ATOM      8  N   UNL     1       4.040   6.061  18.293  0.00  0.00    +0.000 NA
ATOM      9  N   UNL     1       4.419   4.765  18.518  0.00  0.00    +0.000 NA
ATOM     10  C   UNL     1       3.582   4.236  19.386  0.00  0.00    +0.000 A 
ATOM     11  N   UNL     1       2.636   5.181  19.713  0.00  0.00    +0.000 N 
ATOM     12  C   UNL     1       1.474   4.986  20.557  0.00  0.00    +0.000 C 
ATOM     13  C   UNL     1       0.804   3.627  20.411  0.00  0.00    +0.000 C 
ATOM     14  C   UNL     1       1.491   2.516  21.199  0.00  0.00    +0.000 C 
ATOM     15  C   UNL     1       3.017   2.587  21.239  0.00  0.00    +0.000 C 
ATOM     16  C   UNL     1       3.650   2.824  19.874  0.00  0.00    +0.000 C 
ENDBRANCH   4   7
BRANCH   1  17
ATOM     17  N   UNL     1       0.381  11.430  19.095  0.00  0.00    +0.000 N 
ATOM     18  H   UNL     1       0.421  11.861  20.023  0.00  0.00    +0.000 HD
BRANCH  17  20
ATOM     19  O   UNL     1      -1.529  12.292  17.590  0.00  0.00    +0.000 OA
ATOM     20  S   UNL     1      -1.272  11.376  18.678  0.00  0.00    +0.000 S 
ATOM     21  O   UNL     1      -1.644   9.983  18.593  0.00  0.00    +0.000 OA
BRANCH  20  22
ATOM     22  C   UNL     1      -2.030  12.053  20.122  0.00  0.00    +0.000 A 
ATOM     23  C   UNL     1      -1.284  12.243  21.289  0.00  0.00    +0.000 A 
ATOM     24  C   UNL     1      -1.892  12.841  22.386  0.00  0.00    +0.000 A 
ATOM     25  F   UNL     1      -1.185  13.037  23.506  0.00  0.00    +0.000 F 
ATOM     26  C   UNL     1      -3.223  13.250  22.339  0.00  0.00    +0.000 A 
ATOM     27  C   UNL     1      -3.966  13.044  21.175  0.00  0.00    +0.000 A 
ATOM     28  C   UNL     1      -3.364  12.444  20.069  0.00  0.00    +0.000 A 
ATOM     29  F   UNL     1      -4.100  12.238  18.969  0.00  0.00    +0.000 F 
ENDBRANCH  20  22
ENDBRANCH  17  20
ENDBRANCH   1  17
TORSDOF 4
ENDMDL
