MODEL 1
REMARK VINA RESULT:      -8.3      0.000      0.000
REMARK  Name = 
REMARK  2 active torsions:
REMARK  status: ('A' for Active; 'I' for Inactive)
REMARK    1  A    between atoms: C_8  and  N_9
REMARK    2  A    between atoms: C_10  and  C_12
REMARK                            x       y       z     vdW  Elec       q    Type
REMARK                         _______ _______ _______ _____ _____    ______ ____
ROOT
ATOM      1  N   UNL     1       2.861   6.790  19.061  0.00  0.00    +0.000 N 
ATOM      2  C   UNL     1       2.179   7.955  18.738  0.00  0.00    +0.000 C 
ATOM      3  O   UNL     1       2.120   8.444  17.611  0.00  0.00    +0.000 OA
ATOM      4  H   UNL     1       2.723   6.482  20.022  0.00  0.00    +0.000 HD
ENDROOT
BRANCH   1  12
ATOM      5  O   UNL     1       7.662   6.754  16.524  0.00  0.00    +0.000 OA
ATOM      6  C   UNL     1       6.936   5.797  16.342  0.00  0.00    +0.000 C 
ATOM      7  N   UNL     1       7.199   4.689  15.563  0.00  0.00    +0.000 N 
ATOM      8  C   UNL     1       6.125   3.730  15.563  0.00  0.00    +0.000 C 
ATOM      9  C   UNL     1       5.122   4.377  16.454  0.00  0.00    +0.000 A 
ATOM     10  C   UNL     1       3.875   3.935  16.835  0.00  0.00    +0.000 A 
ATOM     11  C   UNL     1       3.125   4.746  17.693  0.00  0.00    +0.000 A 
ATOM     12  C   UNL     1       3.612   5.984  18.177  0.00  0.00    +0.000 A 
ATOM     13  C   UNL     1       4.872   6.428  17.766  0.00  0.00    +0.000 A 
ATOM     14  C   UNL     1       5.598   5.604  16.918  0.00  0.00    +0.000 A 
ATOM     15  H   UNL     1       8.068   4.598  15.054  0.00  0.00    +0.000 HD
ENDBRANCH   1  12
BRANCH   2  16
ATOM     16  C   UNL     1       1.472   8.575  19.877  0.00  0.00    +0.000 A 
ATOM     17  N   UNL     1       1.286   7.909  21.035  0.00  0.00    +0.000 NA
ATOM     18  N   UNL     1       0.639   8.788  21.817  0.00  0.00    +0.000 N 
ATOM     19  C   UNL     1       0.376   9.986  21.216  0.00  0.00    +0.000 A 
ATOM     20  C   UNL     1       0.900   9.894  19.941  0.00  0.00    +0.000 A 
ATOM     21  C   UNL     1       0.900  10.945  18.880  0.00  0.00    +0.000 C 
ATOM     22  C   UNL     1      -0.363  11.798  18.730  0.00  0.00    +0.000 C 
ATOM     23  C   UNL     1      -1.546  11.495  19.645  0.00  0.00    +0.000 C 
ATOM     24  C   UNL     1      -1.308  11.914  21.094  0.00  0.00    +0.000 C 
ATOM     25  C   UNL     1      -0.331  11.082  21.930  0.00  0.00    +0.000 C 
ATOM     26  H   UNL     1       0.400   8.503  22.762  0.00  0.00    +0.000 HD
ENDBRANCH   2  16
TORSDOF 2
ENDMDL
MODEL 2
REMARK VINA RESULT:      -8.3      2.879      8.039
REMARK  Name = 
REMARK  2 active torsions:
REMARK  status: ('A' for Active; 'I' for Inactive)
REMARK    1  A    between atoms: C_8  and  N_9
REMARK    2  A    between atoms: C_10  and  C_12
REMARK                            x       y       z     vdW  Elec       q    Type
REMARK                         _______ _______ _______ _____ _____    ______ ____
ROOT
ATOM      1  N   UNL     1       1.989   8.607  18.066  0.00  0.00    +0.000 N 
ATOM      2  C   UNL     1       2.246   7.675  19.064  0.00  0.00    +0.000 C 
ATOM      3  O   UNL     1       2.017   7.848  20.260  0.00  0.00    +0.000 OA
ATOM      4  H   UNL     1       2.153   8.260  17.123  0.00  0.00    +0.000 HD
ENDROOT
BRANCH   1  12
ATOM      5  O   UNL     1      -2.816  11.061  18.681  0.00  0.00    +0.000 OA
ATOM      6  C   UNL     1      -1.829  11.770  18.701  0.00  0.00    +0.000 C 
ATOM      7  N   UNL     1      -1.791  13.138  18.870  0.00  0.00    +0.000 N 
ATOM      8  C   UNL     1      -0.454  13.674  18.847  0.00  0.00    +0.000 C 
ATOM      9  C   UNL     1       0.373  12.453  18.633  0.00  0.00    +0.000 A 
ATOM     10  C   UNL     1       1.739  12.331  18.517  0.00  0.00    +0.000 A 
ATOM     11  C   UNL     1       2.269  11.051  18.318  0.00  0.00    +0.000 A 
ATOM     12  C   UNL     1       1.449   9.900  18.244  0.00  0.00    +0.000 A 
ATOM     13  C   UNL     1       0.062  10.043  18.345  0.00  0.00    +0.000 A 
ATOM     14  C   UNL     1      -0.439  11.321  18.545  0.00  0.00    +0.000 A 
ATOM     15  H   UNL     1      -2.638  13.678  18.991  0.00  0.00    +0.000 HD
ENDBRANCH   1  12
BRANCH   2  16
ATOM     16  C   UNL     1       2.804   6.401  18.569  0.00  0.00    +0.000 A 
ATOM     17  N   UNL     1       3.660   6.366  17.528  0.00  0.00    +0.000 NA
ATOM     18  N   UNL     1       3.955   5.064  17.391  0.00  0.00    +0.000 N 
ATOM     19  C   UNL     1       3.314   4.247  18.279  0.00  0.00    +0.000 A 
ATOM     20  C   UNL     1       2.545   5.077  19.071  0.00  0.00    +0.000 A 
ATOM     21  C   UNL     1       1.667   4.686  20.214  0.00  0.00    +0.000 C 
ATOM     22  C   UNL     1       0.845   3.403  20.067  0.00  0.00    +0.000 C 
ATOM     23  C   UNL     1       0.947   2.631  18.754  0.00  0.00    +0.000 C 
ATOM     24  C   UNL     1       2.286   1.919  18.579  0.00  0.00    +0.000 C 
ATOM     25  C   UNL     1       3.520   2.774  18.278  0.00  0.00    +0.000 C 
ATOM     26  H   UNL     1       4.607   4.793  16.660  0.00  0.00    +0.000 HD
ENDBRANCH   2  16
TORSDOF 2
ENDMDL
MODEL 3
REMARK VINA RESULT:      -8.2      2.545      8.179
REMARK  Name = 
REMARK  2 active torsions:
REMARK  status: ('A' for Active; 'I' for Inactive)
REMARK    1  A    between atoms: C_8  and  N_9
REMARK    2  A    between atoms: C_10  and  C_12
REMARK                            x       y       z     vdW  Elec       q    Type
REMARK                         _______ _______ _______ _____ _____    ______ ____
ROOT
ATOM      1  N   UNL     1       2.149   8.291  17.677  0.00  0.00    +0.000 N 
ATOM      2  C   UNL     1       2.522   7.303  18.579  0.00  0.00    +0.000 C 
ATOM      3  O   UNL     1       2.309   7.342  19.789  0.00  0.00    +0.000 OA
ATOM      4  H   UNL     1       2.322   8.049  16.703  0.00  0.00    +0.000 HD
ENDROOT
BRANCH   1  12
ATOM      5  O   UNL     1      -2.877  10.307  18.081  0.00  0.00    +0.000 OA
ATOM      6  C   UNL     1      -1.958  11.065  18.325  0.00  0.00    +0.000 C 
ATOM      7  N   UNL     1      -2.049  12.388  18.704  0.00  0.00    +0.000 N 
ATOM      8  C   UNL     1      -0.765  13.003  18.921  0.00  0.00    +0.000 C 
ATOM      9  C   UNL     1       0.175  11.887  18.624  0.00  0.00    +0.000 A 
ATOM     10  C   UNL     1       1.551  11.871  18.655  0.00  0.00    +0.000 A 
ATOM     11  C   UNL     1       2.202  10.676  18.328  0.00  0.00    +0.000 A 
ATOM     12  C   UNL     1       1.491   9.502  17.983  0.00  0.00    +0.000 A 
ATOM     13  C   UNL     1       0.094   9.539  17.939  0.00  0.00    +0.000 A 
ATOM     14  C   UNL     1      -0.527  10.735  18.269  0.00  0.00    +0.000 A 
ATOM     15  H   UNL     1      -2.945  12.847  18.803  0.00  0.00    +0.000 HD
ENDBRANCH   1  12
BRANCH   2  16
ATOM     16  C   UNL     1       3.189   6.141  17.958  0.00  0.00    +0.000 A 
ATOM     17  N   UNL     1       2.589   4.935  17.900  0.00  0.00    +0.000 NA
ATOM     18  N   UNL     1       3.477   4.158  17.260  0.00  0.00    +0.000 N 
ATOM     19  C   UNL     1       4.636   4.796  16.918  0.00  0.00    +0.000 A 
ATOM     20  C   UNL     1       4.496   6.098  17.357  0.00  0.00    +0.000 A 
ATOM     21  C   UNL     1       5.473   7.218  17.209  0.00  0.00    +0.000 C 
ATOM     22  C   UNL     1       6.957   6.890  17.402  0.00  0.00    +0.000 C 
ATOM     23  C   UNL     1       7.335   5.458  17.767  0.00  0.00    +0.000 C 
ATOM     24  C   UNL     1       7.160   4.477  16.609  0.00  0.00    +0.000 C 
ATOM     25  C   UNL     1       5.734   4.095  16.201  0.00  0.00    +0.000 C 
ATOM     26  H   UNL     1       3.231   3.188  17.088  0.00  0.00    +0.000 HD
ENDBRANCH   2  16
TORSDOF 2
ENDMDL
MODEL 4
REMARK VINA RESULT:      -8.2      2.655      3.706
REMARK  Name = 
REMARK  2 active torsions:
REMARK  status: ('A' for Active; 'I' for Inactive)
REMARK    1  A    between atoms: C_8  and  N_9
REMARK    2  A    between atoms: C_10  and  C_12
REMARK                            x       y       z     vdW  Elec       q    Type
REMARK                         _______ _______ _______ _____ _____    ______ ____
ROOT
ATOM      1  N   UNL     1       2.376   7.336  18.079  0.00  0.00    +0.000 N 
ATOM      2  C   UNL     1       1.954   8.072  19.178  0.00  0.00    +0.000 C 
ATOM      3  O   UNL     1       1.893   7.642  20.328  0.00  0.00    +0.000 OA
ATOM      4  H   UNL     1       2.452   7.879  17.220  0.00  0.00    +0.000 HD
ENDROOT
BRANCH   1  12
ATOM      5  O   UNL     1       0.307   2.369  18.815  0.00  0.00    +0.000 OA
ATOM      6  C   UNL     1       1.492   2.439  18.551  0.00  0.00    +0.000 C 
ATOM      7  N   UNL     1       2.375   1.390  18.408  0.00  0.00    +0.000 N 
ATOM      8  C   UNL     1       3.713   1.817  18.089  0.00  0.00    +0.000 C 
ATOM      9  C   UNL     1       3.571   3.299  18.048  0.00  0.00    +0.000 A 
ATOM     10  C   UNL     1       4.522   4.262  17.795  0.00  0.00    +0.000 A 
ATOM     11  C   UNL     1       4.120   5.602  17.817  0.00  0.00    +0.000 A 
ATOM     12  C   UNL     1       2.783   5.984  18.080  0.00  0.00    +0.000 A 
ATOM     13  C   UNL     1       1.833   4.995  18.353  0.00  0.00    +0.000 A 
ATOM     14  C   UNL     1       2.256   3.673  18.323  0.00  0.00    +0.000 A 
ATOM     15  H   UNL     1       2.078   0.430  18.529  0.00  0.00    +0.000 HD
ENDBRANCH   1  12
BRANCH   2  16
ATOM     16  C   UNL     1       1.600   9.472  18.866  0.00  0.00    +0.000 A 
ATOM     17  N   UNL     1       2.240  10.159  17.898  0.00  0.00    +0.000 NA
ATOM     18  N   UNL     1       1.639  11.359  17.897  0.00  0.00    +0.000 N 
ATOM     19  C   UNL     1       0.653  11.493  18.834  0.00  0.00    +0.000 A 
ATOM     20  C   UNL     1       0.592  10.283  19.496  0.00  0.00    +0.000 A 
ATOM     21  C   UNL     1      -0.339   9.895  20.598  0.00  0.00    +0.000 C 
ATOM     22  C   UNL     1      -0.646  10.949  21.666  0.00  0.00    +0.000 C 
ATOM     23  C   UNL     1       0.043  12.306  21.556  0.00  0.00    +0.000 C 
ATOM     24  C   UNL     1      -0.493  13.160  20.408  0.00  0.00    +0.000 C 
ATOM     25  C   UNL     1      -0.123  12.753  18.978  0.00  0.00    +0.000 C 
ATOM     26  H   UNL     1       1.955  12.054  17.227  0.00  0.00    +0.000 HD
ENDBRANCH   2  16
TORSDOF 2
ENDMDL
MODEL 5
REMARK VINA RESULT:      -8.1      2.866      7.688
REMARK  Name = 
REMARK  2 active torsions:
REMARK  status: ('A' for Active; 'I' for Inactive)
REMARK    1  A    between atoms: C_8  and  N_9
REMARK    2  A    between atoms: C_10  and  C_12
REMARK                            x       y       z     vdW  Elec       q    Type
REMARK                         _______ _______ _______ _____ _____    ______ ____
ROOT
ATOM      1  N   UNL     1       1.921   8.684  18.127  0.00  0.00    +0.000 N 
ATOM      2  C   UNL     1       2.198   7.754  19.120  0.00  0.00    +0.000 C 
ATOM      3  O   UNL     1       1.955   7.910  20.315  0.00  0.00    +0.000 OA
ATOM      4  H   UNL     1       2.102   8.350  17.182  0.00  0.00    +0.000 HD
ENDROOT
BRANCH   1  12
ATOM      5  O   UNL     1       3.369  13.910  18.423  0.00  0.00    +0.000 OA
ATOM      6  C   UNL     1       2.183  13.660  18.524  0.00  0.00    +0.000 C 
ATOM      7  N   UNL     1       1.155  14.563  18.700  0.00  0.00    +0.000 N 
ATOM      8  C   UNL     1      -0.139  13.936  18.780  0.00  0.00    +0.000 C 
ATOM      9  C   UNL     1       0.198  12.493  18.633  0.00  0.00    +0.000 A 
ATOM     10  C   UNL     1      -0.634  11.396  18.636  0.00  0.00    +0.000 A 
ATOM     11  C   UNL     1      -0.054  10.132  18.478  0.00  0.00    +0.000 A 
ATOM     12  C   UNL     1       1.341   9.959  18.309  0.00  0.00    +0.000 A 
ATOM     13  C   UNL     1       2.174  11.082  18.328  0.00  0.00    +0.000 A 
ATOM     14  C   UNL     1       1.574  12.324  18.483  0.00  0.00    +0.000 A 
ATOM     15  H   UNL     1       1.332  15.557  18.767  0.00  0.00    +0.000 HD
ENDBRANCH   1  12
BRANCH   2  16
ATOM     16  C   UNL     1       2.798   6.500  18.619  0.00  0.00    +0.000 A 
ATOM     17  N   UNL     1       3.677   6.501  17.598  0.00  0.00    +0.000 NA
ATOM     18  N   UNL     1       4.007   5.208  17.449  0.00  0.00    +0.000 N 
ATOM     19  C   UNL     1       3.367   4.363  18.312  0.00  0.00    +0.000 A 
ATOM     20  C   UNL     1       2.561   5.164  19.097  0.00  0.00    +0.000 A 
ATOM     21  C   UNL     1       1.669   4.735  20.216  0.00  0.00    +0.000 C 
ATOM     22  C   UNL     1       0.881   3.435  20.034  0.00  0.00    +0.000 C 
ATOM     23  C   UNL     1       1.030   2.685  18.713  0.00  0.00    +0.000 C 
ATOM     24  C   UNL     1       2.390   2.007  18.557  0.00  0.00    +0.000 C 
ATOM     25  C   UNL     1       3.609   2.897  18.295  0.00  0.00    +0.000 C 
ATOM     26  H   UNL     1       4.680   4.964  16.729  0.00  0.00    +0.000 HD
ENDBRANCH   2  16
TORSDOF 2
ENDMDL
MODEL 6
REMARK VINA RESULT:      -8.1      2.046      8.175
REMARK  Name = 
REMARK  2 active torsions:
REMARK  status: ('A' for Active; 'I' for Inactive)
REMARK    1  A    between atoms: C_8  and  N_9
REMARK    2  A    between atoms: C_10  and  C_12
REMARK                            x       y       z     vdW  Elec       q    Type
REMARK                         _______ _______ _______ _____ _____    ______ ____
ROOT
ATOM      1  N   UNL     1       2.107   7.683  19.211  0.00  0.00    +0.000 N 
ATOM      2  C   UNL     1       2.763   7.636  17.988  0.00  0.00    +0.000 C 
ATOM      3  O   UNL     1       2.756   8.538  17.153  0.00  0.00    +0.000 OA
ATOM      4  H   UNL     1       2.299   6.887  19.816  0.00  0.00    +0.000 HD
ENDROOT
BRANCH   1  12
ATOM      5  O   UNL     1       0.165   9.623  23.897  0.00  0.00    +0.000 OA
ATOM      6  C   UNL     1      -0.111  10.242  22.888  0.00  0.00    +0.000 C 
ATOM      7  N   UNL     1      -0.863  11.395  22.799  0.00  0.00    +0.000 N 
ATOM      8  C   UNL     1      -1.000  11.878  21.449  0.00  0.00    +0.000 C 
ATOM      9  C   UNL     1      -0.230  10.867  20.671  0.00  0.00    +0.000 A 
ATOM     10  C   UNL     1      -0.006  10.791  19.315  0.00  0.00    +0.000 A 
ATOM     11  C   UNL     1       0.762   9.725  18.835  0.00  0.00    +0.000 A 
ATOM     12  C   UNL     1       1.312   8.745  19.696  0.00  0.00    +0.000 A 
ATOM     13  C   UNL     1       1.060   8.825  21.069  0.00  0.00    +0.000 A 
ATOM     14  C   UNL     1       0.298   9.893  21.520  0.00  0.00    +0.000 A 
ATOM     15  H   UNL     1      -1.265  11.826  23.621  0.00  0.00    +0.000 HD
ENDBRANCH   1  12
BRANCH   2  16
ATOM     16  C   UNL     1       3.529   6.393  17.764  0.00  0.00    +0.000 A 
ATOM     17  N   UNL     1       2.948   5.181  17.870  0.00  0.00    +0.000 NA
ATOM     18  N   UNL     1       3.935   4.318  17.581  0.00  0.00    +0.000 N 
ATOM     19  C   UNL     1       5.138   4.911  17.314  0.00  0.00    +0.000 A 
ATOM     20  C   UNL     1       4.922   6.271  17.424  0.00  0.00    +0.000 A 
ATOM     21  C   UNL     1       5.911   7.369  17.205  0.00  0.00    +0.000 C 
ATOM     22  C   UNL     1       7.337   7.148  17.720  0.00  0.00    +0.000 C 
ATOM     23  C   UNL     1       7.642   5.845  18.452  0.00  0.00    +0.000 C 
ATOM     24  C   UNL     1       7.675   4.630  17.526  0.00  0.00    +0.000 C 
ATOM     25  C   UNL     1       6.345   4.114  16.972  0.00  0.00    +0.000 C 
ATOM     26  H   UNL     1       3.723   3.326  17.587  0.00  0.00    +0.000 HD
ENDBRANCH   2  16
TORSDOF 2
ENDMDL
MODEL 7
REMARK VINA RESULT:      -8.0      5.244      8.287
REMARK  Name = 
REMARK  2 active torsions:
REMARK  status: ('A' for Active; 'I' for Inactive)
REMARK    1  A    between atoms: C_8  and  N_9
REMARK    2  A    between atoms: C_10  and  C_12
REMARK                            x       y       z     vdW  Elec       q    Type
REMARK                         _______ _______ _______ _____ _____    ______ ____
ROOT
ATOM      1  N   UNL     1       8.171   8.821  17.890  0.00  0.00    +0.000 N 
ATOM      2  C   UNL     1       8.115   7.500  18.314  0.00  0.00    +0.000 C 
ATOM      3  O   UNL     1       8.671   7.062  19.319  0.00  0.00    +0.000 OA
ATOM      4  H   UNL     1       7.574   9.026  17.091  0.00  0.00    +0.000 HD
ENDROOT
BRANCH   1  12
ATOM      5  O   UNL     1      11.133  13.184  16.592  0.00  0.00    +0.000 OA
ATOM      6  C   UNL     1      10.959  12.969  17.776  0.00  0.00    +0.000 C 
ATOM      7  N   UNL     1      11.427  13.718  18.835  0.00  0.00    +0.000 N 
ATOM      8  C   UNL     1      11.039  13.188  20.117  0.00  0.00    +0.000 C 
ATOM      9  C   UNL     1      10.252  11.982  19.737  0.00  0.00    +0.000 A 
ATOM     10  C   UNL     1       9.624  11.058  20.540  0.00  0.00    +0.000 A 
ATOM     11  C   UNL     1       8.943  10.004  19.921  0.00  0.00    +0.000 A 
ATOM     12  C   UNL     1       8.879   9.873  18.513  0.00  0.00    +0.000 A 
ATOM     13  C   UNL     1       9.537  10.810  17.711  0.00  0.00    +0.000 A 
ATOM     14  C   UNL     1      10.203  11.846  18.349  0.00  0.00    +0.000 A 
ATOM     15  H   UNL     1      11.988  14.547  18.687  0.00  0.00    +0.000 HD
ENDBRANCH   1  12
BRANCH   2  16
ATOM     16  C   UNL     1       7.282   6.629  17.461  0.00  0.00    +0.000 A 
ATOM     17  N   UNL     1       7.455   6.582  16.125  0.00  0.00    +0.000 NA
ATOM     18  N   UNL     1       6.548   5.683  15.709  0.00  0.00    +0.000 N 
ATOM     19  C   UNL     1       5.779   5.159  16.710  0.00  0.00    +0.000 A 
ATOM     20  C   UNL     1       6.221   5.751  17.877  0.00  0.00    +0.000 A 
ATOM     21  C   UNL     1       5.725   5.505  19.264  0.00  0.00    +0.000 C 
ATOM     22  C   UNL     1       4.216   5.326  19.455  0.00  0.00    +0.000 C 
ATOM     23  C   UNL     1       3.318   5.448  18.227  0.00  0.00    +0.000 C 
ATOM     24  C   UNL     1       3.445   4.263  17.271  0.00  0.00    +0.000 C 
ATOM     25  C   UNL     1       4.724   4.147  16.438  0.00  0.00    +0.000 C 
ATOM     26  H   UNL     1       6.502   5.471  14.717  0.00  0.00    +0.000 HD
ENDBRANCH   2  16
TORSDOF 2
ENDMDL
MODEL 8
REMARK VINA RESULT:      -8.0      1.146      1.225
REMARK  Name = 
REMARK  2 active torsions:
REMARK  status: ('A' for Active; 'I' for Inactive)
REMARK    1  A    between atoms: C_8  and  N_9
REMARK    2  A    between atoms: C_10  and  C_12
REMARK                            x       y       z     vdW  Elec       q    Type
REMARK                         _______ _______ _______ _____ _____    ______ ____
ROOT
ATOM      1  N   UNL     1       2.719   7.418  18.765  0.00  0.00    +0.000 N 
ATOM      2  C   UNL     1       2.018   7.237  19.950  0.00  0.00    +0.000 C 
ATOM      3  O   UNL     1       1.930   6.172  20.557  0.00  0.00    +0.000 OA
ATOM      4  H   UNL     1       2.763   8.387  18.452  0.00  0.00    +0.000 HD
ENDROOT
BRANCH   1  12
ATOM      5  O   UNL     1       7.533   6.650  16.371  0.00  0.00    +0.000 OA
ATOM      6  C   UNL     1       6.748   5.721  16.342  0.00  0.00    +0.000 C 
ATOM      7  N   UNL     1       6.948   4.482  15.771  0.00  0.00    +0.000 N 
ATOM      8  C   UNL     1       5.814   3.605  15.914  0.00  0.00    +0.000 C 
ATOM      9  C   UNL     1       4.847   4.457  16.659  0.00  0.00    +0.000 A 
ATOM     10  C   UNL     1       3.570   4.165  17.085  0.00  0.00    +0.000 A 
ATOM     11  C   UNL     1       2.865   5.156  17.774  0.00  0.00    +0.000 A 
ATOM     12  C   UNL     1       3.425   6.427  18.048  0.00  0.00    +0.000 A 
ATOM     13  C   UNL     1       4.715   6.715  17.593  0.00  0.00    +0.000 A 
ATOM     14  C   UNL     1       5.395   5.714  16.914  0.00  0.00    +0.000 A 
ATOM     15  H   UNL     1       7.814   4.251  15.302  0.00  0.00    +0.000 HD
ENDBRANCH   1  12
BRANCH   2  16
ATOM     16  C   UNL     1       1.387   8.468  20.470  0.00  0.00    +0.000 A 
ATOM     17  N   UNL     1       1.353   8.736  21.790  0.00  0.00    +0.000 NA
ATOM     18  N   UNL     1       0.732   9.924  21.867  0.00  0.00    +0.000 N 
ATOM     19  C   UNL     1       0.341  10.431  20.660  0.00  0.00    +0.000 A 
ATOM     20  C   UNL     1       0.747   9.511  19.713  0.00  0.00    +0.000 A 
ATOM     21  C   UNL     1       0.582   9.600  18.231  0.00  0.00    +0.000 C 
ATOM     22  C   UNL     1      -0.738  10.164  17.699  0.00  0.00    +0.000 C 
ATOM     23  C   UNL     1      -1.809  10.562  18.711  0.00  0.00    +0.000 C 
ATOM     24  C   UNL     1      -1.458  11.829  19.489  0.00  0.00    +0.000 C 
ATOM     25  C   UNL     1      -0.359  11.738  20.550  0.00  0.00    +0.000 C 
ATOM     26  H   UNL     1       0.601  10.338  22.785  0.00  0.00    +0.000 HD
ENDBRANCH   2  16
TORSDOF 2
ENDMDL
MODEL 9
REMARK VINA RESULT:      -8.0      2.661      3.763
REMARK  Name = 
REMARK  2 active torsions:
REMARK  status: ('A' for Active; 'I' for Inactive)
REMARK    1  A    between atoms: C_8  and  N_9
REMARK    2  A    between atoms: C_10  and  C_12
REMARK                            x       y       z     vdW  Elec       q    Type
REMARK                         _______ _______ _______ _____ _____    ______ ____
ROOT
ATOM      1  N   UNL     1       2.074   7.256  19.658  0.00  0.00    +0.000 N 
ATOM      2  C   UNL     1       1.888   8.261  18.718  0.00  0.00    +0.000 C 
ATOM      3  O   UNL     1       2.133   8.152  17.518  0.00  0.00    +0.000 OA
ATOM      4  H   UNL     1       1.730   7.490  20.588  0.00  0.00    +0.000 HD
ENDROOT
BRANCH   1  12
ATOM      5  O   UNL     1       0.332   2.244  18.500  0.00  0.00    +0.000 OA
ATOM      6  C   UNL     1       1.534   2.404  18.585  0.00  0.00    +0.000 C 
ATOM      7  N   UNL     1       2.514   1.449  18.413  0.00  0.00    +0.000 N 
ATOM      8  C   UNL     1       3.847   1.969  18.581  0.00  0.00    +0.000 C 
ATOM      9  C   UNL     1       3.590   3.403  18.892  0.00  0.00    +0.000 A 
ATOM     10  C   UNL     1       4.484   4.414  19.159  0.00  0.00    +0.000 A 
ATOM     11  C   UNL     1       3.974   5.690  19.424  0.00  0.00    +0.000 A 
ATOM     12  C   UNL     1       2.585   5.962  19.414  0.00  0.00    +0.000 A 
ATOM     13  C   UNL     1       1.688   4.920  19.159  0.00  0.00    +0.000 A 
ATOM     14  C   UNL     1       2.219   3.665  18.897  0.00  0.00    +0.000 A 
ATOM     15  H   UNL     1       2.282   0.488  18.196  0.00  0.00    +0.000 HD
ENDBRANCH   1  12
BRANCH   2  16
ATOM     16  C   UNL     1       1.324   9.508  19.273  0.00  0.00    +0.000 A 
ATOM     17  N   UNL     1       1.713  10.717  18.821  0.00  0.00    +0.000 NA
ATOM     18  N   UNL     1       0.980  11.585  19.537  0.00  0.00    +0.000 N 
ATOM     19  C   UNL     1       0.148  10.998  20.449  0.00  0.00    +0.000 A 
ATOM     20  C   UNL     1       0.341   9.637  20.315  0.00  0.00    +0.000 A 
ATOM     21  C   UNL     1      -0.348   8.544  21.065  0.00  0.00    +0.000 C 
ATOM     22  C   UNL     1      -0.604   8.765  22.559  0.00  0.00    +0.000 C 
ATOM     23  C   UNL     1      -0.110  10.065  23.188  0.00  0.00    +0.000 C 
ATOM     24  C   UNL     1      -0.921  11.286  22.759  0.00  0.00    +0.000 C 
ATOM     25  C   UNL     1      -0.740  11.802  21.329  0.00  0.00    +0.000 C 
ATOM     26  H   UNL     1       1.098  12.577  19.356  0.00  0.00    +0.000 HD
ENDBRANCH   2  16
TORSDOF 2
ENDMDL
