MODEL 1
REMARK VINA RESULT:      -6.3      0.000      0.000
REMARK  Name = 
REMARK  6 active torsions:
REMARK  status: ('A' for Active; 'I' for Inactive)
REMARK    1  A    between atoms: C_1  and  C_2
REMARK    2  A    between atoms: C_5  and  O_6
REMARK    3  A    between atoms: C_7  and  C_8
REMARK    4  A    between atoms: C_13  and  C_14
REMARK    5  A    between atoms: N_21  and  C_22
REMARK    6  A    between atoms: C_22  and  C_23
REMARK                            x       y       z     vdW  Elec       q    Type
REMARK                         _______ _______ _______ _____ _____    ______ ____
ROOT
ATOM      1  C   UNL     1      -5.215  12.128  19.495  0.00  0.00    +0.000 A 
ATOM      2  N   UNL     1      -6.406  11.537  19.779  0.00  0.00    +0.000 NA
ATOM      3  N   UNL     1      -6.947  12.274  20.781  0.00  0.00    +0.000 N 
ATOM      4  C   UNL     1      -6.131  13.264  21.165  0.00  0.00    +0.000 A 
ATOM      5  C   UNL     1      -5.003  13.195  20.397  0.00  0.00    +0.000 A 
ATOM      6  C   UNL     1      -4.045  14.257  20.808  0.00  0.00    +0.000 C 
ATOM      7  N   UNL     1      -4.830  14.884  21.912  0.00  0.00    +0.000 N 
ATOM      8  C   UNL     1      -6.085  14.312  22.115  0.00  0.00    +0.000 C 
ATOM      9  O   UNL     1      -6.937  14.624  22.926  0.00  0.00    +0.000 OA
ATOM     10  H   UNL     1      -7.861  12.021  21.143  0.00  0.00    +0.000 HD
ENDROOT
BRANCH   1  16
ATOM     11  C   UNL     1      -0.846  10.160  18.003  0.00  0.00    +0.000 C 
ATOM     12  C   UNL     1      -2.210  10.690  17.672  0.00  0.00    +0.000 A 
ATOM     13  C   UNL     1      -2.666  10.688  16.351  0.00  0.00    +0.000 A 
ATOM     14  C   UNL     1      -3.953  11.130  16.052  0.00  0.00    +0.000 A 
ATOM     15  C   UNL     1      -4.795  11.568  17.076  0.00  0.00    +0.000 A 
ATOM     16  C   UNL     1      -4.359  11.633  18.407  0.00  0.00    +0.000 A 
ATOM     17  C   UNL     1      -3.054  11.176  18.688  0.00  0.00    +0.000 A 
BRANCH  15  18
ATOM     18  O   UNL     1      -6.088  11.881  16.756  0.00  0.00    +0.000 OA
ATOM     19  H   UNL     1      -6.411  11.260  16.081  0.00  0.00    +0.000 HD
ENDBRANCH  15  18
ENDBRANCH   1  16
BRANCH   6  20
ATOM     20  C   UNL     1      -2.794  13.572  21.306  0.00  0.00    +0.000 A 
ATOM     21  C   UNL     1      -2.827  12.523  22.245  0.00  0.00    +0.000 A 
ATOM     22  C   UNL     1      -1.648  11.919  22.688  0.00  0.00    +0.000 A 
ATOM     23  C   UNL     1      -0.416  12.352  22.205  0.00  0.00    +0.000 A 
ATOM     24  C   UNL     1      -0.363  13.396  21.285  0.00  0.00    +0.000 A 
ATOM     25  C   UNL     1      -1.542  13.999  20.851  0.00  0.00    +0.000 A 
ATOM     26  F   UNL     1      -1.447  15.020  19.985  0.00  0.00    +0.000 F 
ENDBRANCH   6  20
BRANCH   7  27
ATOM     27  C   UNL     1      -4.339  16.026  22.649  0.00  0.00    +0.000 C 
BRANCH  27  28
ATOM     28  C   UNL     1      -3.379  15.606  23.700  0.00  0.00    +0.000 A 
ATOM     29  C   UNL     1      -2.060  15.927  23.952  0.00  0.00    +0.000 A 
ATOM     30  C   UNL     1      -1.707  15.256  25.148  0.00  0.00    +0.000 A 
ATOM     31  C   UNL     1      -2.829  14.568  25.546  0.00  0.00    +0.000 A 
ATOM     32  O   UNL     1      -3.849  14.772  24.673  0.00  0.00    +0.000 OA
ENDBRANCH  27  28
ENDBRANCH   7  27
TORSDOF 5
ENDMDL
MODEL 2
REMARK VINA RESULT:      -6.3      2.700      5.742
REMARK  Name = 
REMARK  6 active torsions:
REMARK  status: ('A' for Active; 'I' for Inactive)
REMARK    1  A    between atoms: C_1  and  C_2
REMARK    2  A    between atoms: C_5  and  O_6
REMARK    3  A    between atoms: C_7  and  C_8
REMARK    4  A    between atoms: C_13  and  C_14
REMARK    5  A    between atoms: N_21  and  C_22
REMARK    6  A    between atoms: C_22  and  C_23
REMARK                            x       y       z     vdW  Elec       q    Type
REMARK                         _______ _______ _______ _____ _____    ______ ____
ROOT
ATOM      1  C   UNL     1      -4.801  12.851  20.593  0.00  0.00    +0.000 A 
ATOM      2  N   UNL     1      -5.383  12.642  19.383  0.00  0.00    +0.000 NA
ATOM      3  N   UNL     1      -4.386  12.214  18.569  0.00  0.00    +0.000 N 
ATOM      4  C   UNL     1      -3.206  12.192  19.201  0.00  0.00    +0.000 A 
ATOM      5  C   UNL     1      -3.411  12.617  20.483  0.00  0.00    +0.000 A 
ATOM      6  C   UNL     1      -2.120  12.643  21.221  0.00  0.00    +0.000 C 
ATOM      7  N   UNL     1      -1.206  12.181  20.135  0.00  0.00    +0.000 N 
ATOM      8  C   UNL     1      -1.850  11.887  18.934  0.00  0.00    +0.000 C 
ATOM      9  O   UNL     1      -1.364  11.482  17.895  0.00  0.00    +0.000 OA
ATOM     10  H   UNL     1      -4.602  11.975  17.607  0.00  0.00    +0.000 HD
ENDROOT
BRANCH   1  16
ATOM     11  C   UNL     1      -5.741  16.249  24.165  0.00  0.00    +0.000 C 
ATOM     12  C   UNL     1      -6.040  14.926  23.522  0.00  0.00    +0.000 A 
ATOM     13  C   UNL     1      -7.073  14.122  24.011  0.00  0.00    +0.000 A 
ATOM     14  C   UNL     1      -7.384  12.920  23.380  0.00  0.00    +0.000 A 
ATOM     15  C   UNL     1      -6.668  12.520  22.249  0.00  0.00    +0.000 A 
ATOM     16  C   UNL     1      -5.593  13.274  21.757  0.00  0.00    +0.000 A 
ATOM     17  C   UNL     1      -5.298  14.490  22.409  0.00  0.00    +0.000 A 
BRANCH  15  18
ATOM     18  O   UNL     1      -7.082  11.394  21.590  0.00  0.00    +0.000 OA
ATOM     19  H   UNL     1      -6.312  10.950  21.198  0.00  0.00    +0.000 HD
ENDBRANCH  15  18
ENDBRANCH   1  16
BRANCH   6  20
ATOM     20  C   UNL     1      -1.857  14.073  21.627  0.00  0.00    +0.000 A 
ATOM     21  C   UNL     1      -2.031  15.157  20.744  0.00  0.00    +0.000 A 
ATOM     22  C   UNL     1      -1.771  16.466  21.153  0.00  0.00    +0.000 A 
ATOM     23  C   UNL     1      -1.330  16.719  22.449  0.00  0.00    +0.000 A 
ATOM     24  C   UNL     1      -1.140  15.660  23.334  0.00  0.00    +0.000 A 
ATOM     25  C   UNL     1      -1.397  14.355  22.917  0.00  0.00    +0.000 A 
ATOM     26  F   UNL     1      -1.176  13.360  23.790  0.00  0.00    +0.000 F 
ENDBRANCH   6  20
BRANCH   7  27
ATOM     27  C   UNL     1       0.211  11.998  20.352  0.00  0.00    +0.000 C 
BRANCH  27  28
ATOM     28  C   UNL     1       0.495  10.646  20.896  0.00  0.00    +0.000 A 
ATOM     29  C   UNL     1       0.739   9.425  20.301  0.00  0.00    +0.000 A 
ATOM     30  C   UNL     1       1.009   8.515  21.352  0.00  0.00    +0.000 A 
ATOM     31  C   UNL     1       0.912   9.238  22.518  0.00  0.00    +0.000 A 
ATOM     32  O   UNL     1       0.598  10.533  22.252  0.00  0.00    +0.000 OA
ENDBRANCH  27  28
ENDBRANCH   7  27
TORSDOF 5
ENDMDL
MODEL 3
REMARK VINA RESULT:      -6.2      2.061      2.898
REMARK  Name = 
REMARK  6 active torsions:
REMARK  status: ('A' for Active; 'I' for Inactive)
REMARK    1  A    between atoms: C_1  and  C_2
REMARK    2  A    between atoms: C_5  and  O_6
REMARK    3  A    between atoms: C_7  and  C_8
REMARK    4  A    between atoms: C_13  and  C_14
REMARK    5  A    between atoms: N_21  and  C_22
REMARK    6  A    between atoms: C_22  and  C_23
REMARK                            x       y       z     vdW  Elec       q    Type
REMARK                         _______ _______ _______ _____ _____    ______ ____
ROOT
ATOM      1  C   UNL     1      -4.656  12.449  20.774  0.00  0.00    +0.000 A 
ATOM      2  N   UNL     1      -5.756  12.177  21.526  0.00  0.00    +0.000 NA
ATOM      3  N   UNL     1      -5.469  12.637  22.768  0.00  0.00    +0.000 N 
ATOM      4  C   UNL     1      -4.229  13.138  22.837  0.00  0.00    +0.000 A 
ATOM      5  C   UNL     1      -3.660  13.015  21.602  0.00  0.00    +0.000 A 
ATOM      6  C   UNL     1      -2.264  13.528  21.632  0.00  0.00    +0.000 C 
ATOM      7  N   UNL     1      -2.180  13.928  23.069  0.00  0.00    +0.000 N 
ATOM      8  C   UNL     1      -3.356  13.719  23.788  0.00  0.00    +0.000 C 
ATOM      9  O   UNL     1      -3.580  13.962  24.960  0.00  0.00    +0.000 OA
ATOM     10  H   UNL     1      -6.168  12.554  23.499  0.00  0.00    +0.000 HD
ENDROOT
BRANCH   1  16
ATOM     11  C   UNL     1      -2.289  10.362  16.872  0.00  0.00    +0.000 C 
ATOM     12  C   UNL     1      -3.450  11.138  17.420  0.00  0.00    +0.000 A 
ATOM     13  C   UNL     1      -4.492  11.538  16.579  0.00  0.00    +0.000 A 
ATOM     14  C   UNL     1      -5.595  12.211  17.099  0.00  0.00    +0.000 A 
ATOM     15  C   UNL     1      -5.666  12.480  18.467  0.00  0.00    +0.000 A 
ATOM     16  C   UNL     1      -4.620  12.140  19.337  0.00  0.00    +0.000 A 
ATOM     17  C   UNL     1      -3.514  11.455  18.790  0.00  0.00    +0.000 A 
BRANCH  15  18
ATOM     18  O   UNL     1      -6.817  13.036  18.955  0.00  0.00    +0.000 OA
ATOM     19  H   UNL     1      -7.396  13.280  18.212  0.00  0.00    +0.000 HD
ENDBRANCH  15  18
ENDBRANCH   1  16
BRANCH   6  20
ATOM     20  C   UNL     1      -1.348  12.375  21.300  0.00  0.00    +0.000 A 
ATOM     21  C   UNL     1      -1.173  11.273  22.160  0.00  0.00    +0.000 A 
ATOM     22  C   UNL     1      -0.310  10.228  21.821  0.00  0.00    +0.000 A 
ATOM     23  C   UNL     1       0.394  10.265  20.621  0.00  0.00    +0.000 A 
ATOM     24  C   UNL     1       0.243  11.351  19.763  0.00  0.00    +0.000 A 
ATOM     25  C   UNL     1      -0.615  12.393  20.109  0.00  0.00    +0.000 A 
ATOM     26  F   UNL     1      -0.712  13.435  19.269  0.00  0.00    +0.000 F 
ENDBRANCH   6  20
BRANCH   7  27
ATOM     27  C   UNL     1      -0.995  14.536  23.627  0.00  0.00    +0.000 C 
BRANCH  27  28
ATOM     28  C   UNL     1      -0.122  15.079  22.556  0.00  0.00    +0.000 A 
ATOM     29  C   UNL     1      -0.244  16.151  21.695  0.00  0.00    +0.000 A 
ATOM     30  C   UNL     1       0.954  16.199  20.943  0.00  0.00    +0.000 A 
ATOM     31  C   UNL     1       1.728  15.154  21.389  0.00  0.00    +0.000 A 
ATOM     32  O   UNL     1       1.083  14.466  22.367  0.00  0.00    +0.000 OA
ENDBRANCH  27  28
ENDBRANCH   7  27
TORSDOF 5
ENDMDL
MODEL 4
REMARK VINA RESULT:      -6.2      2.848      4.407
REMARK  Name = 
REMARK  6 active torsions:
REMARK  status: ('A' for Active; 'I' for Inactive)
REMARK    1  A    between atoms: C_1  and  C_2
REMARK    2  A    between atoms: C_5  and  O_6
REMARK    3  A    between atoms: C_7  and  C_8
REMARK    4  A    between atoms: C_13  and  C_14
REMARK    5  A    between atoms: N_21  and  C_22
REMARK    6  A    between atoms: C_22  and  C_23
REMARK                            x       y       z     vdW  Elec       q    Type
REMARK                         _______ _______ _______ _____ _____    ______ ____
ROOT
ATOM      1  C   UNL     1      -3.372  12.728  20.683  0.00  0.00    +0.000 A 
ATOM      2  N   UNL     1      -4.178  12.776  21.776  0.00  0.00    +0.000 NA
ATOM      3  N   UNL     1      -3.429  13.341  22.755  0.00  0.00    +0.000 N 
ATOM      4  C   UNL     1      -2.184  13.602  22.338  0.00  0.00    +0.000 A 
ATOM      5  C   UNL     1      -2.088  13.203  21.035  0.00  0.00    +0.000 A 
ATOM      6  C   UNL     1      -0.709  13.442  20.532  0.00  0.00    +0.000 C 
ATOM      7  N   UNL     1      -0.092  14.013  21.765  0.00  0.00    +0.000 N 
ATOM      8  C   UNL     1      -0.972  14.134  22.840  0.00  0.00    +0.000 C 
ATOM      9  O   UNL     1      -0.752  14.574  23.953  0.00  0.00    +0.000 OA
ATOM     10  H   UNL     1      -3.844  13.494  23.669  0.00  0.00    +0.000 HD
ENDROOT
BRANCH   1  16
ATOM     11  C   UNL     1      -2.589  10.023  16.529  0.00  0.00    +0.000 C 
ATOM     12  C   UNL     1      -3.474  10.916  17.347  0.00  0.00    +0.000 A 
ATOM     13  C   UNL     1      -4.758  11.239  16.899  0.00  0.00    +0.000 A 
ATOM     14  C   UNL     1      -5.598  12.023  17.685  0.00  0.00    +0.000 A 
ATOM     15  C   UNL     1      -5.163  12.482  18.930  0.00  0.00    +0.000 A 
ATOM     16  C   UNL     1      -3.865  12.221  19.394  0.00  0.00    +0.000 A 
ATOM     17  C   UNL     1      -3.032  11.422  18.583  0.00  0.00    +0.000 A 
BRANCH  15  18
ATOM     18  O   UNL     1      -6.059  13.148  19.720  0.00  0.00    +0.000 OA
ATOM     19  H   UNL     1      -5.595  13.516  20.491  0.00  0.00    +0.000 HD
ENDBRANCH  15  18
ENDBRANCH   1  16
BRANCH   6  20
ATOM     20  C   UNL     1      -0.122  12.102  20.160  0.00  0.00    +0.000 A 
ATOM     21  C   UNL     1      -0.173  10.987  21.020  0.00  0.00    +0.000 A 
ATOM     22  C   UNL     1       0.388   9.764  20.646  0.00  0.00    +0.000 A 
ATOM     23  C   UNL     1       1.012   9.632  19.407  0.00  0.00    +0.000 A 
ATOM     24  C   UNL     1       1.082  10.725  18.548  0.00  0.00    +0.000 A 
ATOM     25  C   UNL     1       0.526  11.944  18.931  0.00  0.00    +0.000 A 
ATOM     26  F   UNL     1       0.638  12.982  18.087  0.00  0.00    +0.000 F 
ENDBRANCH   6  20
BRANCH   7  27
ATOM     27  C   UNL     1       1.283  14.457  21.800  0.00  0.00    +0.000 C 
BRANCH  27  28
ATOM     28  C   UNL     1       1.629  15.210  20.568  0.00  0.00    +0.000 A 
ATOM     29  C   UNL     1       1.177  16.400  20.033  0.00  0.00    +0.000 A 
ATOM     30  C   UNL     1       1.941  16.629  18.864  0.00  0.00    +0.000 A 
ATOM     31  C   UNL     1       2.807  15.566  18.759  0.00  0.00    +0.000 A 
ATOM     32  O   UNL     1       2.624  14.697  19.787  0.00  0.00    +0.000 OA
ENDBRANCH  27  28
ENDBRANCH   7  27
TORSDOF 5
ENDMDL
MODEL 5
REMARK VINA RESULT:      -6.2      2.565      4.286
REMARK  Name = 
REMARK  6 active torsions:
REMARK  status: ('A' for Active; 'I' for Inactive)
REMARK    1  A    between atoms: C_1  and  C_2
REMARK    2  A    between atoms: C_5  and  O_6
REMARK    3  A    between atoms: C_7  and  C_8
REMARK    4  A    between atoms: C_13  and  C_14
REMARK    5  A    between atoms: N_21  and  C_22
REMARK    6  A    between atoms: C_22  and  C_23
REMARK                            x       y       z     vdW  Elec       q    Type
REMARK                         _______ _______ _______ _____ _____    ______ ____
ROOT
ATOM      1  C   UNL     1      -4.195  12.741  21.772  0.00  0.00    +0.000 A 
ATOM      2  N   UNL     1      -4.738  12.700  23.017  0.00  0.00    +0.000 NA
ATOM      3  N   UNL     1      -3.816  13.266  23.834  0.00  0.00    +0.000 N 
ATOM      4  C   UNL     1      -2.708  13.612  23.167  0.00  0.00    +0.000 A 
ATOM      5  C   UNL     1      -2.888  13.272  21.856  0.00  0.00    +0.000 A 
ATOM      6  C   UNL     1      -1.668  13.607  21.073  0.00  0.00    +0.000 C 
ATOM      7  N   UNL     1      -0.817  14.161  22.168  0.00  0.00    +0.000 N 
ATOM      8  C   UNL     1      -1.440  14.190  23.416  0.00  0.00    +0.000 C 
ATOM      9  O   UNL     1      -0.997  14.597  24.473  0.00  0.00    +0.000 OA
ATOM     10  H   UNL     1      -4.023  13.359  24.823  0.00  0.00    +0.000 HD
ENDROOT
BRANCH   1  16
ATOM     11  C   UNL     1      -4.265  11.563  16.894  0.00  0.00    +0.000 C 
ATOM     12  C   UNL     1      -4.982  11.705  18.204  0.00  0.00    +0.000 A 
ATOM     13  C   UNL     1      -6.332  11.360  18.310  0.00  0.00    +0.000 A 
ATOM     14  C   UNL     1      -6.982  11.441  19.539  0.00  0.00    +0.000 A 
ATOM     15  C   UNL     1      -6.282  11.858  20.673  0.00  0.00    +0.000 A 
ATOM     16  C   UNL     1      -4.940  12.260  20.599  0.00  0.00    +0.000 A 
ATOM     17  C   UNL     1      -4.300  12.166  19.345  0.00  0.00    +0.000 A 
BRANCH  15  18
ATOM     18  O   UNL     1      -6.923  11.810  21.880  0.00  0.00    +0.000 OA
ATOM     19  H   UNL     1      -6.898  12.690  22.293  0.00  0.00    +0.000 HD
ENDBRANCH  15  18
ENDBRANCH   1  16
BRANCH   6  20
ATOM     20  C   UNL     1      -1.119  12.317  20.513  0.00  0.00    +0.000 A 
ATOM     21  C   UNL     1      -0.847  11.194  21.320  0.00  0.00    +0.000 A 
ATOM     22  C   UNL     1      -0.332  10.020  20.767  0.00  0.00    +0.000 A 
ATOM     23  C   UNL     1      -0.076   9.945  19.400  0.00  0.00    +0.000 A 
ATOM     24  C   UNL     1      -0.327  11.048  18.588  0.00  0.00    +0.000 A 
ATOM     25  C   UNL     1      -0.836  12.219  19.147  0.00  0.00    +0.000 A 
ATOM     26  F   UNL     1      -1.038  13.268  18.336  0.00  0.00    +0.000 F 
ENDBRANCH   6  20
BRANCH   7  27
ATOM     27  C   UNL     1       0.509  14.679  21.921  0.00  0.00    +0.000 C 
BRANCH  27  28
ATOM     28  C   UNL     1       0.535  15.507  20.689  0.00  0.00    +0.000 A 
ATOM     29  C   UNL     1      -0.027  16.725  20.361  0.00  0.00    +0.000 A 
ATOM     30  C   UNL     1       0.414  17.029  19.051  0.00  0.00    +0.000 A 
ATOM     31  C   UNL     1       1.212  15.978  18.662  0.00  0.00    +0.000 A 
ATOM     32  O   UNL     1       1.290  15.048  19.649  0.00  0.00    +0.000 OA
ENDBRANCH  27  28
ENDBRANCH   7  27
TORSDOF 5
ENDMDL
MODEL 6
REMARK VINA RESULT:      -6.2      1.773      2.296
REMARK  Name = 
REMARK  6 active torsions:
REMARK  status: ('A' for Active; 'I' for Inactive)
REMARK    1  A    between atoms: C_1  and  C_2
REMARK    2  A    between atoms: C_5  and  O_6
REMARK    3  A    between atoms: C_7  and  C_8
REMARK    4  A    between atoms: C_13  and  C_14
REMARK    5  A    between atoms: N_21  and  C_22
REMARK    6  A    between atoms: C_22  and  C_23
REMARK                            x       y       z     vdW  Elec       q    Type
REMARK                         _______ _______ _______ _____ _____    ______ ____
ROOT
ATOM      1  C   UNL     1      -4.242  12.309  19.614  0.00  0.00    +0.000 A 
ATOM      2  N   UNL     1      -5.581  12.242  19.838  0.00  0.00    +0.000 NA
ATOM      3  N   UNL     1      -5.812  13.053  20.900  0.00  0.00    +0.000 N 
ATOM      4  C   UNL     1      -4.678  13.581  21.376  0.00  0.00    +0.000 A 
ATOM      5  C   UNL     1      -3.647  13.115  20.611  0.00  0.00    +0.000 A 
ATOM      6  C   UNL     1      -2.355  13.648  21.120  0.00  0.00    +0.000 C 
ATOM      7  N   UNL     1      -2.859  14.452  22.273  0.00  0.00    +0.000 N 
ATOM      8  C   UNL     1      -4.245  14.436  22.418  0.00  0.00    +0.000 C 
ATOM      9  O   UNL     1      -4.926  15.006  23.250  0.00  0.00    +0.000 OA
ATOM     10  H   UNL     1      -6.764  13.171  21.233  0.00  0.00    +0.000 HD
ENDROOT
BRANCH   1  16
ATOM     11  C   UNL     1      -0.384   9.670  17.786  0.00  0.00    +0.000 C 
ATOM     12  C   UNL     1      -1.721  10.320  17.586  0.00  0.00    +0.000 A 
ATOM     13  C   UNL     1      -2.375  10.223  16.354  0.00  0.00    +0.000 A 
ATOM     14  C   UNL     1      -3.640  10.781  16.187  0.00  0.00    +0.000 A 
ATOM     15  C   UNL     1      -4.264  11.431  17.254  0.00  0.00    +0.000 A 
ATOM     16  C   UNL     1      -3.621  11.593  18.490  0.00  0.00    +0.000 A 
ATOM     17  C   UNL     1      -2.342  11.017  18.639  0.00  0.00    +0.000 A 
BRANCH  15  18
ATOM     18  O   UNL     1      -5.551  11.859  17.083  0.00  0.00    +0.000 OA
ATOM     19  H   UNL     1      -5.640  12.761  17.436  0.00  0.00    +0.000 HD
ENDBRANCH  15  18
ENDBRANCH   1  16
BRANCH   6  20
ATOM     20  C   UNL     1      -1.519  12.470  21.560  0.00  0.00    +0.000 A 
ATOM     21  C   UNL     1      -1.871  11.657  22.655  0.00  0.00    +0.000 A 
ATOM     22  C   UNL     1      -1.068  10.580  23.037  0.00  0.00    +0.000 A 
ATOM     23  C   UNL     1       0.100  10.296  22.335  0.00  0.00    +0.000 A 
ATOM     24  C   UNL     1       0.471  11.095  21.257  0.00  0.00    +0.000 A 
ATOM     25  C   UNL     1      -0.331  12.172  20.885  0.00  0.00    +0.000 A 
ATOM     26  F   UNL     1       0.074  12.935  19.858  0.00  0.00    +0.000 F 
ENDBRANCH   6  20
BRANCH   7  27
ATOM     27  C   UNL     1      -1.973  15.225  23.113  0.00  0.00    +0.000 C 
BRANCH  27  28
ATOM     28  C   UNL     1      -0.732  15.589  22.383  0.00  0.00    +0.000 A 
ATOM     29  C   UNL     1      -0.472  16.465  21.348  0.00  0.00    +0.000 A 
ATOM     30  C   UNL     1       0.926  16.422  21.130  0.00  0.00    +0.000 A 
ATOM     31  C   UNL     1       1.428  15.524  22.043  0.00  0.00    +0.000 A 
ATOM     32  O   UNL     1       0.429  15.011  22.807  0.00  0.00    +0.000 OA
ENDBRANCH  27  28
ENDBRANCH   7  27
TORSDOF 5
ENDMDL
MODEL 7
REMARK VINA RESULT:      -6.2      4.354      6.946
REMARK  Name = 
REMARK  6 active torsions:
REMARK  status: ('A' for Active; 'I' for Inactive)
REMARK    1  A    between atoms: C_1  and  C_2
REMARK    2  A    between atoms: C_5  and  O_6
REMARK    3  A    between atoms: C_7  and  C_8
REMARK    4  A    between atoms: C_13  and  C_14
REMARK    5  A    between atoms: N_21  and  C_22
REMARK    6  A    between atoms: C_22  and  C_23
REMARK                            x       y       z     vdW  Elec       q    Type
REMARK                         _______ _______ _______ _____ _____    ______ ____
ROOT
ATOM      1  C   UNL     1       0.184  15.585  18.893  0.00  0.00    +0.000 A 
ATOM      2  N   UNL     1       1.482  15.957  18.732  0.00  0.00    +0.000 NA
ATOM      3  N   UNL     1       2.164  14.806  18.510  0.00  0.00    +0.000 N 
ATOM      4  C   UNL     1       1.362  13.735  18.571  0.00  0.00    +0.000 A 
ATOM      5  C   UNL     1       0.098  14.176  18.842  0.00  0.00    +0.000 A 
ATOM      6  C   UNL     1      -0.829  13.018  18.954  0.00  0.00    +0.000 C 
ATOM      7  N   UNL     1       0.137  11.905  18.715  0.00  0.00    +0.000 N 
ATOM      8  C   UNL     1       1.442  12.326  18.462  0.00  0.00    +0.000 C 
ATOM      9  O   UNL     1       2.423  11.647  18.222  0.00  0.00    +0.000 OA
ATOM     10  H   UNL     1       3.164  14.849  18.341  0.00  0.00    +0.000 HD
ENDROOT
BRANCH   1  16
ATOM     11  C   UNL     1      -3.572  17.367  21.704  0.00  0.00    +0.000 C 
ATOM     12  C   UNL     1      -2.730  17.445  20.465  0.00  0.00    +0.000 A 
ATOM     13  C   UNL     1      -2.935  18.469  19.536  0.00  0.00    +0.000 A 
ATOM     14  C   UNL     1      -2.117  18.572  18.413  0.00  0.00    +0.000 A 
ATOM     15  C   UNL     1      -1.082  17.655  18.218  0.00  0.00    +0.000 A 
ATOM     16  C   UNL     1      -0.874  16.585  19.100  0.00  0.00    +0.000 A 
ATOM     17  C   UNL     1      -1.711  16.502  20.233  0.00  0.00    +0.000 A 
BRANCH  15  18
ATOM     18  O   UNL     1      -0.229  17.861  17.169  0.00  0.00    +0.000 OA
ATOM     19  H   UNL     1       0.615  17.413  17.347  0.00  0.00    +0.000 HD
ENDBRANCH  15  18
ENDBRANCH   1  16
BRANCH   6  20
ATOM     20  C   UNL     1      -1.380  13.011  20.360  0.00  0.00    +0.000 A 
ATOM     21  C   UNL     1      -0.571  13.228  21.493  0.00  0.00    +0.000 A 
ATOM     22  C   UNL     1      -1.115  13.207  22.779  0.00  0.00    +0.000 A 
ATOM     23  C   UNL     1      -2.475  12.967  22.958  0.00  0.00    +0.000 A 
ATOM     24  C   UNL     1      -3.289  12.739  21.852  0.00  0.00    +0.000 A 
ATOM     25  C   UNL     1      -2.739  12.756  20.571  0.00  0.00    +0.000 A 
ATOM     26  F   UNL     1      -3.551  12.505  19.533  0.00  0.00    +0.000 F 
ENDBRANCH   6  20
BRANCH   7  27
ATOM     27  C   UNL     1      -0.280  10.521  18.687  0.00  0.00    +0.000 C 
BRANCH  27  28
ATOM     28  C   UNL     1       0.181   9.803  19.902  0.00  0.00    +0.000 A 
ATOM     29  C   UNL     1      -0.284   9.755  21.200  0.00  0.00    +0.000 A 
ATOM     30  C   UNL     1       0.543   8.834  21.888  0.00  0.00    +0.000 A 
ATOM     31  C   UNL     1       1.458   8.382  20.967  0.00  0.00    +0.000 A 
ATOM     32  O   UNL     1       1.249   8.965  19.758  0.00  0.00    +0.000 OA
ENDBRANCH  27  28
ENDBRANCH   7  27
TORSDOF 5
ENDMDL
MODEL 8
REMARK VINA RESULT:      -6.1      2.959      6.165
REMARK  Name = 
REMARK  6 active torsions:
REMARK  status: ('A' for Active; 'I' for Inactive)
REMARK    1  A    between atoms: C_1  and  C_2
REMARK    2  A    between atoms: C_5  and  O_6
REMARK    3  A    between atoms: C_7  and  C_8
REMARK    4  A    between atoms: C_13  and  C_14
REMARK    5  A    between atoms: N_21  and  C_22
REMARK    6  A    between atoms: C_22  and  C_23
REMARK                            x       y       z     vdW  Elec       q    Type
REMARK                         _______ _______ _______ _____ _____    ______ ____
ROOT
ATOM      1  C   UNL     1      -3.856  12.649  20.126  0.00  0.00    +0.000 A 
ATOM      2  N   UNL     1      -4.839  12.496  19.200  0.00  0.00    +0.000 NA
ATOM      3  N   UNL     1      -4.286  11.764  18.201  0.00  0.00    +0.000 N 
ATOM      4  C   UNL     1      -2.996  11.497  18.439  0.00  0.00    +0.000 A 
ATOM      5  C   UNL     1      -2.666  12.063  19.638  0.00  0.00    +0.000 A 
ATOM      6  C   UNL     1      -1.229  11.823  19.935  0.00  0.00    +0.000 C 
ATOM      7  N   UNL     1      -0.849  11.058  18.710  0.00  0.00    +0.000 N 
ATOM      8  C   UNL     1      -1.904  10.839  17.824  0.00  0.00    +0.000 C 
ATOM      9  O   UNL     1      -1.890  10.240  16.765  0.00  0.00    +0.000 OA
ATOM     10  H   UNL     1      -4.856  11.510  17.401  0.00  0.00    +0.000 HD
ENDROOT
BRANCH   1  16
ATOM     11  C   UNL     1      -2.685  16.350  23.308  0.00  0.00    +0.000 C 
ATOM     12  C   UNL     1      -3.519  15.150  22.964  0.00  0.00    +0.000 A 
ATOM     13  C   UNL     1      -4.533  14.725  23.826  0.00  0.00    +0.000 A 
ATOM     14  C   UNL     1      -5.341  13.645  23.480  0.00  0.00    +0.000 A 
ATOM     15  C   UNL     1      -5.144  12.988  22.263  0.00  0.00    +0.000 A 
ATOM     16  C   UNL     1      -4.107  13.352  21.393  0.00  0.00    +0.000 A 
ATOM     17  C   UNL     1      -3.303  14.452  21.762  0.00  0.00    +0.000 A 
BRANCH  15  18
ATOM     18  O   UNL     1      -6.033  12.011  21.909  0.00  0.00    +0.000 OA
ATOM     19  H   UNL     1      -6.837  12.422  21.549  0.00  0.00    +0.000 HD
ENDBRANCH  15  18
ENDBRANCH   1  16
BRANCH   6  20
ATOM     20  C   UNL     1      -0.548  13.169  20.008  0.00  0.00    +0.000 A 
ATOM     21  C   UNL     1      -0.424  14.018  18.890  0.00  0.00    +0.000 A 
ATOM     22  C   UNL     1       0.219  15.253  18.994  0.00  0.00    +0.000 A 
ATOM     23  C   UNL     1       0.752  15.663  20.214  0.00  0.00    +0.000 A 
ATOM     24  C   UNL     1       0.650  14.833  21.327  0.00  0.00    +0.000 A 
ATOM     25  C   UNL     1       0.012  13.598  21.215  0.00  0.00    +0.000 A 
ATOM     26  F   UNL     1      -0.042  12.815  22.303  0.00  0.00    +0.000 F 
ENDBRANCH   6  20
BRANCH   7  27
ATOM     27  C   UNL     1       0.486  10.542  18.512  0.00  0.00    +0.000 C 
BRANCH  27  28
ATOM     28  C   UNL     1       0.821   9.526  19.542  0.00  0.00    +0.000 A 
ATOM     29  C   UNL     1       0.363   9.300  20.825  0.00  0.00    +0.000 A 
ATOM     30  C   UNL     1       1.018   8.131  21.283  0.00  0.00    +0.000 A 
ATOM     31  C   UNL     1       1.833   7.722  20.254  0.00  0.00    +0.000 A 
ATOM     32  O   UNL     1       1.722   8.563  19.193  0.00  0.00    +0.000 OA
ENDBRANCH  27  28
ENDBRANCH   7  27
TORSDOF 5
ENDMDL
MODEL 9
REMARK VINA RESULT:      -6.1      3.714      7.260
REMARK  Name = 
REMARK  6 active torsions:
REMARK  status: ('A' for Active; 'I' for Inactive)
REMARK    1  A    between atoms: C_1  and  C_2
REMARK    2  A    between atoms: C_5  and  O_6
REMARK    3  A    between atoms: C_7  and  C_8
REMARK    4  A    between atoms: C_13  and  C_14
REMARK    5  A    between atoms: N_21  and  C_22
REMARK    6  A    between atoms: C_22  and  C_23
REMARK                            x       y       z     vdW  Elec       q    Type
REMARK                         _______ _______ _______ _____ _____    ______ ____
ROOT
ATOM      1  C   UNL     1       0.841  14.349  19.713  0.00  0.00    +0.000 A 
ATOM      2  N   UNL     1       2.190  14.251  19.577  0.00  0.00    +0.000 NA
ATOM      3  N   UNL     1       2.416  13.003  19.096  0.00  0.00    +0.000 N 
ATOM      4  C   UNL     1       1.279  12.306  18.973  0.00  0.00    +0.000 A 
ATOM      5  C   UNL     1       0.252  13.109  19.381  0.00  0.00    +0.000 A 
ATOM      6  C   UNL     1      -1.035  12.368  19.295  0.00  0.00    +0.000 C 
ATOM      7  N   UNL     1      -0.530  11.055  18.793  0.00  0.00    +0.000 N 
ATOM      8  C   UNL     1       0.847  11.018  18.577  0.00  0.00    +0.000 C 
ATOM      9  O   UNL     1       1.523  10.096  18.162  0.00  0.00    +0.000 OA
ATOM     10  H   UNL     1       3.369  12.715  18.897  0.00  0.00    +0.000 HD
ENDROOT
BRANCH   1  16
ATOM     11  C   UNL     1      -2.014  16.777  23.051  0.00  0.00    +0.000 C 
ATOM     12  C   UNL     1      -1.208  16.785  21.786  0.00  0.00    +0.000 A 
ATOM     13  C   UNL     1      -1.040  17.969  21.062  0.00  0.00    +0.000 A 
ATOM     14  C   UNL     1      -0.247  17.985  19.918  0.00  0.00    +0.000 A 
ATOM     15  C   UNL     1       0.392  16.818  19.495  0.00  0.00    +0.000 A 
ATOM     16  C   UNL     1       0.210  15.599  20.164  0.00  0.00    +0.000 A 
ATOM     17  C   UNL     1      -0.594  15.606  21.323  0.00  0.00    +0.000 A 
BRANCH  15  18
ATOM     18  O   UNL     1       1.255  16.904  18.437  0.00  0.00    +0.000 OA
ATOM     19  H   UNL     1       1.144  16.124  17.868  0.00  0.00    +0.000 HD
ENDBRANCH  15  18
ENDBRANCH   1  16
BRANCH   6  20
ATOM     20  C   UNL     1      -1.600  12.273  20.691  0.00  0.00    +0.000 A 
ATOM     21  C   UNL     1      -0.880  11.711  21.764  0.00  0.00    +0.000 A 
ATOM     22  C   UNL     1      -1.439  11.634  23.042  0.00  0.00    +0.000 A 
ATOM     23  C   UNL     1      -2.725  12.114  23.272  0.00  0.00    +0.000 A 
ATOM     24  C   UNL     1      -3.457  12.663  22.222  0.00  0.00    +0.000 A 
ATOM     25  C   UNL     1      -2.896  12.731  20.948  0.00  0.00    +0.000 A 
ATOM     26  F   UNL     1      -3.643  13.242  19.957  0.00  0.00    +0.000 F 
ENDBRANCH   6  20
BRANCH   7  27
ATOM     27  C   UNL     1      -1.419   9.953  18.502  0.00  0.00    +0.000 C 
BRANCH  27  28
ATOM     28  C   UNL     1      -2.485  10.366  17.555  0.00  0.00    +0.000 A 
ATOM     29  C   UNL     1      -3.804  10.734  17.725  0.00  0.00    +0.000 A 
ATOM     30  C   UNL     1      -4.290  11.086  16.443  0.00  0.00    +0.000 A 
ATOM     31  C   UNL     1      -3.239  10.908  15.574  0.00  0.00    +0.000 A 
ATOM     32  O   UNL     1      -2.139  10.469  16.239  0.00  0.00    +0.000 OA
ENDBRANCH  27  28
ENDBRANCH   7  27
TORSDOF 5
ENDMDL
