MODEL 1
REMARK VINA RESULT:      -8.0      0.000      0.000
REMARK  Name = 
REMARK  5 active torsions:
REMARK  status: ('A' for Active; 'I' for Inactive)
REMARK    1  A    between atoms: N_1  and  C_2
REMARK    2  A    between atoms: C_4  and  S_5
REMARK    3  A    between atoms: S_5  and  C_6
REMARK    4  A    between atoms: C_6  and  C_7
REMARK    5  A    between atoms: N_9  and  C_10
REMARK                            x       y       z     vdW  Elec       q    Type
REMARK                         _______ _______ _______ _____ _____    ______ ____
ROOT
ATOM      1  C   UNL     1       1.704   7.745  20.242  0.00  0.00    +0.000 A 
ATOM      2  N   UNL     1       1.614   8.964  19.690  0.00  0.00    +0.000 NA
ATOM      3  C   UNL     1       2.134   9.189  18.476  0.00  0.00    +0.000 A 
ATOM      4  N   UNL     1       2.787   8.301  17.722  0.00  0.00    +0.000 NA
ATOM      5  C   UNL     1       2.888   7.092  18.313  0.00  0.00    +0.000 A 
ATOM      6  S   UNL     1       3.749   5.841  17.549  0.00  0.00    +0.000 S 
ATOM      7  C   UNL     1       3.339   4.722  18.767  0.00  0.00    +0.000 A 
ATOM      8  C   UNL     1       2.630   5.306  19.805  0.00  0.00    +0.000 A 
ATOM      9  C   UNL     1       2.363   6.713  19.545  0.00  0.00    +0.000 A 
ATOM     10  C   UNL     1       2.196   4.498  20.998  0.00  0.00    +0.000 C 
ATOM     11  C   UNL     1       1.191   3.407  20.614  0.00  0.00    +0.000 C 
ATOM     12  C   UNL     1       1.837   2.161  19.996  0.00  0.00    +0.000 C 
ATOM     13  C   UNL     1       2.499   2.362  18.627  0.00  0.00    +0.000 C 
ATOM     14  C   UNL     1       3.728   3.278  18.640  0.00  0.00    +0.000 C 
ENDROOT
BRANCH   1  15
ATOM     15  N   UNL     1       1.117   7.626  21.496  0.00  0.00    +0.000 N 
ATOM     16  H   UNL     1       0.815   8.545  21.808  0.00  0.00    +0.000 HD
ATOM     17  H   UNL     1       0.404   6.913  21.564  0.00  0.00    +0.000 HD
ENDBRANCH   1  15
BRANCH   3  18
ATOM     18  S   UNL     1       1.983  10.865  17.898  0.00  0.00    +0.000 S 
BRANCH  18  19
ATOM     19  C   UNL     1       0.937  11.608  19.179  0.00  0.00    +0.000 C 
BRANCH  19  20
ATOM     20  C   UNL     1      -0.401  12.066  18.622  0.00  0.00    +0.000 C 
ATOM     21  O   UNL     1      -0.577  13.217  18.226  0.00  0.00    +0.000 OA
ATOM     22  N   UNL     1      -1.375  11.084  18.657  0.00  0.00    +0.000 N 
ATOM     23  H   UNL     1      -1.294  10.429  19.436  0.00  0.00    +0.000 HD
BRANCH  22  24
ATOM     24  C   UNL     1      -2.693  11.335  18.207  0.00  0.00    +0.000 A 
ATOM     25  C   UNL     1      -3.692  11.899  19.007  0.00  0.00    +0.000 A 
ATOM     26  F   UNL     1      -3.411  12.374  20.229  0.00  0.00    +0.000 F 
ATOM     27  C   UNL     1      -4.992  12.055  18.521  0.00  0.00    +0.000 A 
ATOM     28  C   UNL     1      -5.310  11.642  17.226  0.00  0.00    +0.000 A 
ATOM     29  C   UNL     1      -4.313  11.117  16.407  0.00  0.00    +0.000 A 
ATOM     30  C   UNL     1      -3.017  10.993  16.894  0.00  0.00    +0.000 A 
ATOM     31  F   UNL     1      -2.076  10.479  16.094  0.00  0.00    +0.000 F 
ENDBRANCH  22  24
ENDBRANCH  19  20
ENDBRANCH  18  19
ENDBRANCH   3  18
TORSDOF 5
ENDMDL
MODEL 2
REMARK VINA RESULT:      -7.8      0.223      1.573
REMARK  Name = 
REMARK  5 active torsions:
REMARK  status: ('A' for Active; 'I' for Inactive)
REMARK    1  A    between atoms: N_1  and  C_2
REMARK    2  A    between atoms: C_4  and  S_5
REMARK    3  A    between atoms: S_5  and  C_6
REMARK    4  A    between atoms: C_6  and  C_7
REMARK    5  A    between atoms: N_9  and  C_10
REMARK                            x       y       z     vdW  Elec       q    Type
REMARK                         _______ _______ _______ _____ _____    ______ ____
ROOT
ATOM      1  C   UNL     1       1.707   7.899  20.310  0.00  0.00    +0.000 A 
ATOM      2  N   UNL     1       1.612   9.123  19.769  0.00  0.00    +0.000 NA
ATOM      3  C   UNL     1       2.097   9.351  18.541  0.00  0.00    +0.000 A 
ATOM      4  N   UNL     1       2.717   8.462  17.761  0.00  0.00    +0.000 NA
ATOM      5  C   UNL     1       2.824   7.248  18.342  0.00  0.00    +0.000 A 
ATOM      6  S   UNL     1       3.650   5.993  17.544  0.00  0.00    +0.000 S 
ATOM      7  C   UNL     1       3.266   4.871  18.766  0.00  0.00    +0.000 A 
ATOM      8  C   UNL     1       2.594   5.455  19.830  0.00  0.00    +0.000 A 
ATOM      9  C   UNL     1       2.334   6.865  19.587  0.00  0.00    +0.000 A 
ATOM     10  C   UNL     1       2.189   4.643  21.030  0.00  0.00    +0.000 C 
ATOM     11  C   UNL     1       1.162   3.565  20.670  0.00  0.00    +0.000 C 
ATOM     12  C   UNL     1       1.775   2.316  20.025  0.00  0.00    +0.000 C 
ATOM     13  C   UNL     1       2.397   2.520  18.638  0.00  0.00    +0.000 C 
ATOM     14  C   UNL     1       3.635   3.424  18.619  0.00  0.00    +0.000 C 
ENDROOT
BRANCH   1  15
ATOM     15  N   UNL     1       1.157   7.778  21.581  0.00  0.00    +0.000 N 
ATOM     16  H   UNL     1       0.235   7.358  21.503  0.00  0.00    +0.000 HD
ATOM     17  H   UNL     1       1.756   7.333  22.261  0.00  0.00    +0.000 HD
ENDBRANCH   1  15
BRANCH   3  18
ATOM     18  S   UNL     1       1.946  11.032  17.978  0.00  0.00    +0.000 S 
BRANCH  18  19
ATOM     19  C   UNL     1       0.800  11.731  19.197  0.00  0.00    +0.000 C 
BRANCH  19  20
ATOM     20  C   UNL     1      -0.522  12.136  18.564  0.00  0.00    +0.000 C 
ATOM     21  O   UNL     1      -0.659  13.212  17.984  0.00  0.00    +0.000 OA
ATOM     22  N   UNL     1      -1.529  11.206  18.755  0.00  0.00    +0.000 N 
ATOM     23  H   UNL     1      -1.470  10.685  19.630  0.00  0.00    +0.000 HD
BRANCH  22  24
ATOM     24  C   UNL     1      -2.837  11.424  18.262  0.00  0.00    +0.000 A 
ATOM     25  C   UNL     1      -3.235  11.124  16.955  0.00  0.00    +0.000 A 
ATOM     26  F   UNL     1      -2.417  10.466  16.120  0.00  0.00    +0.000 F 
ATOM     27  C   UNL     1      -4.523  11.429  16.513  0.00  0.00    +0.000 A 
ATOM     28  C   UNL     1      -5.432  12.046  17.375  0.00  0.00    +0.000 A 
ATOM     29  C   UNL     1      -5.060  12.312  18.691  0.00  0.00    +0.000 A 
ATOM     30  C   UNL     1      -3.783  11.977  19.126  0.00  0.00    +0.000 A 
ATOM     31  F   UNL     1      -3.443  12.249  20.391  0.00  0.00    +0.000 F 
ENDBRANCH  22  24
ENDBRANCH  19  20
ENDBRANCH  18  19
ENDBRANCH   3  18
TORSDOF 5
ENDMDL
MODEL 3
REMARK VINA RESULT:      -7.7      3.158      9.072
REMARK  Name = 
REMARK  5 active torsions:
REMARK  status: ('A' for Active; 'I' for Inactive)
REMARK    1  A    between atoms: N_1  and  C_2
REMARK    2  A    between atoms: C_4  and  S_5
REMARK    3  A    between atoms: S_5  and  C_6
REMARK    4  A    between atoms: C_6  and  C_7
REMARK    5  A    between atoms: N_9  and  C_10
REMARK                            x       y       z     vdW  Elec       q    Type
REMARK                         _______ _______ _______ _____ _____    ______ ____
ROOT
ATOM      1  C   UNL     1      -2.404  10.505  17.415  0.00  0.00    +0.000 A 
ATOM      2  N   UNL     1      -1.118  10.127  17.445  0.00  0.00    +0.000 NA
ATOM      3  C   UNL     1      -0.335  10.495  18.468  0.00  0.00    +0.000 A 
ATOM      4  N   UNL     1      -0.699  11.254  19.504  0.00  0.00    +0.000 NA
ATOM      5  C   UNL     1      -1.988  11.645  19.434  0.00  0.00    +0.000 A 
ATOM      6  S   UNL     1      -2.629  12.682  20.620  0.00  0.00    +0.000 S 
ATOM      7  C   UNL     1      -4.191  12.604  19.943  0.00  0.00    +0.000 A 
ATOM      8  C   UNL     1      -4.222  11.872  18.766  0.00  0.00    +0.000 A 
ATOM      9  C   UNL     1      -2.918  11.305  18.456  0.00  0.00    +0.000 A 
ATOM     10  C   UNL     1      -5.500  11.705  17.991  0.00  0.00    +0.000 C 
ATOM     11  C   UNL     1      -6.549  10.917  18.781  0.00  0.00    +0.000 C 
ATOM     12  C   UNL     1      -7.288  11.754  19.833  0.00  0.00    +0.000 C 
ATOM     13  C   UNL     1      -6.436  12.254  21.006  0.00  0.00    +0.000 C 
ATOM     14  C   UNL     1      -5.352  13.267  20.623  0.00  0.00    +0.000 C 
ENDROOT
BRANCH   1  15
ATOM     15  N   UNL     1      -3.121  10.053  16.315  0.00  0.00    +0.000 N 
ATOM     16  H   UNL     1      -3.952  10.628  16.202  0.00  0.00    +0.000 HD
ATOM     17  H   UNL     1      -2.578   9.946  15.470  0.00  0.00    +0.000 HD
ENDBRANCH   1  15
BRANCH   3  18
ATOM     18  S   UNL     1       1.358   9.961  18.343  0.00  0.00    +0.000 S 
BRANCH  18  19
ATOM     19  C   UNL     1       1.473   8.767  19.703  0.00  0.00    +0.000 C 
BRANCH  19  20
ATOM     20  C   UNL     1       2.020   7.428  19.236  0.00  0.00    +0.000 C 
ATOM     21  O   UNL     1       2.317   7.226  18.059  0.00  0.00    +0.000 OA
ATOM     22  N   UNL     1       2.095   6.484  20.244  0.00  0.00    +0.000 N 
ATOM     23  H   UNL     1       1.375   6.569  20.963  0.00  0.00    +0.000 HD
BRANCH  22  24
ATOM     24  C   UNL     1       2.553   5.169  19.992  0.00  0.00    +0.000 A 
ATOM     25  C   UNL     1       3.866   4.862  19.620  0.00  0.00    +0.000 A 
ATOM     26  F   UNL     1       4.820   5.805  19.621  0.00  0.00    +0.000 F 
ATOM     27  C   UNL     1       4.234   3.550  19.318  0.00  0.00    +0.000 A 
ATOM     28  C   UNL     1       3.287   2.525  19.378  0.00  0.00    +0.000 A 
ATOM     29  C   UNL     1       1.987   2.814  19.786  0.00  0.00    +0.000 A 
ATOM     30  C   UNL     1       1.641   4.120  20.112  0.00  0.00    +0.000 A 
ATOM     31  F   UNL     1       0.385   4.376  20.494  0.00  0.00    +0.000 F 
ENDBRANCH  22  24
ENDBRANCH  19  20
ENDBRANCH  18  19
ENDBRANCH   3  18
TORSDOF 5
ENDMDL
MODEL 4
REMARK VINA RESULT:      -7.7      3.298      8.987
REMARK  Name = 
REMARK  5 active torsions:
REMARK  status: ('A' for Active; 'I' for Inactive)
REMARK    1  A    between atoms: N_1  and  C_2
REMARK    2  A    between atoms: C_4  and  S_5
REMARK    3  A    between atoms: S_5  and  C_6
REMARK    4  A    between atoms: C_6  and  C_7
REMARK    5  A    between atoms: N_9  and  C_10
REMARK                            x       y       z     vdW  Elec       q    Type
REMARK                         _______ _______ _______ _____ _____    ______ ____
ROOT
ATOM      1  C   UNL     1      -2.346  10.235  17.219  0.00  0.00    +0.000 A 
ATOM      2  N   UNL     1      -1.071   9.827  17.310  0.00  0.00    +0.000 NA
ATOM      3  C   UNL     1      -0.316  10.217  18.345  0.00  0.00    +0.000 A 
ATOM      4  N   UNL     1      -0.696  11.025  19.338  0.00  0.00    +0.000 NA
ATOM      5  C   UNL     1      -1.972  11.443  19.207  0.00  0.00    +0.000 A 
ATOM      6  S   UNL     1      -2.628  12.541  20.328  0.00  0.00    +0.000 S 
ATOM      7  C   UNL     1      -4.166  12.473  19.599  0.00  0.00    +0.000 A 
ATOM      8  C   UNL     1      -4.174  11.696  18.450  0.00  0.00    +0.000 A 
ATOM      9  C   UNL     1      -2.875  11.087  18.209  0.00  0.00    +0.000 A 
ATOM     10  C   UNL     1      -5.428  11.529  17.637  0.00  0.00    +0.000 C 
ATOM     11  C   UNL     1      -6.524  10.798  18.419  0.00  0.00    +0.000 C 
ATOM     12  C   UNL     1      -7.278  11.693  19.411  0.00  0.00    +0.000 C 
ATOM     13  C   UNL     1      -6.455  12.218  20.593  0.00  0.00    +0.000 C 
ATOM     14  C   UNL     1      -5.334  13.190  20.211  0.00  0.00    +0.000 C 
ENDROOT
BRANCH   1  15
ATOM     15  N   UNL     1      -3.035   9.756  16.112  0.00  0.00    +0.000 N 
ATOM     16  H   UNL     1      -3.983  10.124  16.129  0.00  0.00    +0.000 HD
ATOM     17  H   UNL     1      -2.560   9.884  15.230  0.00  0.00    +0.000 HD
ENDBRANCH   1  15
BRANCH   3  18
ATOM     18  S   UNL     1       1.367   9.639  18.302  0.00  0.00    +0.000 S 
BRANCH  18  19
ATOM     19  C   UNL     1       1.439   8.592  19.781  0.00  0.00    +0.000 C 
BRANCH  19  20
ATOM     20  C   UNL     1       2.191   7.297  19.523  0.00  0.00    +0.000 C 
ATOM     21  O   UNL     1       2.475   6.521  20.434  0.00  0.00    +0.000 OA
ATOM     22  N   UNL     1       2.546   7.125  18.197  0.00  0.00    +0.000 N 
ATOM     23  H   UNL     1       2.741   7.989  17.691  0.00  0.00    +0.000 HD
BRANCH  22  24
ATOM     24  C   UNL     1       3.277   5.991  17.770  0.00  0.00    +0.000 A 
ATOM     25  C   UNL     1       4.621   6.033  17.383  0.00  0.00    +0.000 A 
ATOM     26  F   UNL     1       5.346   7.151  17.533  0.00  0.00    +0.000 F 
ATOM     27  C   UNL     1       5.263   4.889  16.905  0.00  0.00    +0.000 A 
ATOM     28  C   UNL     1       4.563   3.684  16.804  0.00  0.00    +0.000 A 
ATOM     29  C   UNL     1       3.237   3.621  17.225  0.00  0.00    +0.000 A 
ATOM     30  C   UNL     1       2.619   4.761  17.724  0.00  0.00    +0.000 A 
ATOM     31  F   UNL     1       1.342   4.681  18.116  0.00  0.00    +0.000 F 
ENDBRANCH  22  24
ENDBRANCH  19  20
ENDBRANCH  18  19
ENDBRANCH   3  18
TORSDOF 5
ENDMDL
MODEL 5
REMARK VINA RESULT:      -7.7      3.985      9.167
REMARK  Name = 
REMARK  5 active torsions:
REMARK  status: ('A' for Active; 'I' for Inactive)
REMARK    1  A    between atoms: N_1  and  C_2
REMARK    2  A    between atoms: C_4  and  S_5
REMARK    3  A    between atoms: S_5  and  C_6
REMARK    4  A    between atoms: C_6  and  C_7
REMARK    5  A    between atoms: N_9  and  C_10
REMARK                            x       y       z     vdW  Elec       q    Type
REMARK                         _______ _______ _______ _____ _____    ______ ____
ROOT
ATOM      1  C   UNL     1      -0.705  11.611  18.628  0.00  0.00    +0.000 A 
ATOM      2  N   UNL     1       0.131  10.700  18.107  0.00  0.00    +0.000 NA
ATOM      3  C   UNL     1       0.737   9.813  18.908  0.00  0.00    +0.000 A 
ATOM      4  N   UNL     1       0.619   9.740  20.236  0.00  0.00    +0.000 NA
ATOM      5  C   UNL     1      -0.204  10.685  20.736  0.00  0.00    +0.000 A 
ATOM      6  S   UNL     1      -0.432  10.813  22.417  0.00  0.00    +0.000 S 
ATOM      7  C   UNL     1      -1.594  12.046  22.235  0.00  0.00    +0.000 A 
ATOM      8  C   UNL     1      -1.749  12.437  20.913  0.00  0.00    +0.000 A 
ATOM      9  C   UNL     1      -0.925  11.637  20.020  0.00  0.00    +0.000 A 
ATOM     10  C   UNL     1      -2.706  13.535  20.537  0.00  0.00    +0.000 C 
ATOM     11  C   UNL     1      -4.159  13.157  20.841  0.00  0.00    +0.000 C 
ATOM     12  C   UNL     1      -4.545  13.316  22.317  0.00  0.00    +0.000 C 
ATOM     13  C   UNL     1      -3.845  12.365  23.295  0.00  0.00    +0.000 C 
ATOM     14  C   UNL     1      -2.333  12.581  23.426  0.00  0.00    +0.000 C 
ENDROOT
BRANCH   1  15
ATOM     15  N   UNL     1      -1.286  12.468  17.702  0.00  0.00    +0.000 N 
ATOM     16  H   UNL     1      -0.588  13.137  17.387  0.00  0.00    +0.000 HD
ATOM     17  H   UNL     1      -1.782  12.008  16.952  0.00  0.00    +0.000 HD
ENDBRANCH   1  15
BRANCH   3  18
ATOM     18  S   UNL     1       1.855   8.702  18.081  0.00  0.00    +0.000 S 
BRANCH  18  19
ATOM     19  C   UNL     1       2.196   7.483  19.379  0.00  0.00    +0.000 C 
BRANCH  19  20
ATOM     20  C   UNL     1       3.275   6.497  18.961  0.00  0.00    +0.000 C 
ATOM     21  O   UNL     1       3.712   5.649  19.737  0.00  0.00    +0.000 OA
ATOM     22  N   UNL     1       3.724   6.692  17.667  0.00  0.00    +0.000 N 
ATOM     23  H   UNL     1       3.706   7.662  17.350  0.00  0.00    +0.000 HD
BRANCH  22  24
ATOM     24  C   UNL     1       4.747   5.888  17.112  0.00  0.00    +0.000 A 
ATOM     25  C   UNL     1       4.556   4.568  16.691  0.00  0.00    +0.000 A 
ATOM     26  F   UNL     1       3.329   4.027  16.658  0.00  0.00    +0.000 F 
ATOM     27  C   UNL     1       5.626   3.807  16.217  0.00  0.00    +0.000 A 
ATOM     28  C   UNL     1       6.908   4.358  16.165  0.00  0.00    +0.000 A 
ATOM     29  C   UNL     1       7.103   5.685  16.543  0.00  0.00    +0.000 A 
ATOM     30  C   UNL     1       6.023   6.439  16.986  0.00  0.00    +0.000 A 
ATOM     31  F   UNL     1       6.233   7.709  17.353  0.00  0.00    +0.000 F 
ENDBRANCH  22  24
ENDBRANCH  19  20
ENDBRANCH  18  19
ENDBRANCH   3  18
TORSDOF 5
ENDMDL
MODEL 6
REMARK VINA RESULT:      -7.7      1.763      2.811
REMARK  Name = 
REMARK  5 active torsions:
REMARK  status: ('A' for Active; 'I' for Inactive)
REMARK    1  A    between atoms: N_1  and  C_2
REMARK    2  A    between atoms: C_4  and  S_5
REMARK    3  A    between atoms: S_5  and  C_6
REMARK    4  A    between atoms: C_6  and  C_7
REMARK    5  A    between atoms: N_9  and  C_10
REMARK                            x       y       z     vdW  Elec       q    Type
REMARK                         _______ _______ _______ _____ _____    ______ ____
ROOT
ATOM      1  C   UNL     1       1.865   8.863  18.743  0.00  0.00    +0.000 A 
ATOM      2  N   UNL     1       1.078   9.565  19.573  0.00  0.00    +0.000 NA
ATOM      3  C   UNL     1       0.696   9.033  20.741  0.00  0.00    +0.000 A 
ATOM      4  N   UNL     1       1.003   7.814  21.190  0.00  0.00    +0.000 NA
ATOM      5  C   UNL     1       1.770   7.120  20.324  0.00  0.00    +0.000 A 
ATOM      6  S   UNL     1       2.209   5.514  20.674  0.00  0.00    +0.000 S 
ATOM      7  C   UNL     1       3.182   5.404  19.279  0.00  0.00    +0.000 A 
ATOM      8  C   UNL     1       3.108   6.543  18.491  0.00  0.00    +0.000 A 
ATOM      9  C   UNL     1       2.268   7.562  19.102  0.00  0.00    +0.000 A 
ATOM     10  C   UNL     1       3.869   6.639  17.197  0.00  0.00    +0.000 C 
ATOM     11  C   UNL     1       5.384   6.609  17.420  0.00  0.00    +0.000 C 
ATOM     12  C   UNL     1       5.947   5.202  17.654  0.00  0.00    +0.000 C 
ATOM     13  C   UNL     1       5.504   4.514  18.951  0.00  0.00    +0.000 C 
ATOM     14  C   UNL     1       4.010   4.180  19.020  0.00  0.00    +0.000 C 
ENDROOT
BRANCH   1  15
ATOM     15  N   UNL     1       2.209   9.521  17.568  0.00  0.00    +0.000 N 
ATOM     16  H   UNL     1       1.677   9.122  16.799  0.00  0.00    +0.000 HD
ATOM     17  H   UNL     1       2.167  10.529  17.619  0.00  0.00    +0.000 HD
ENDBRANCH   1  15
BRANCH   3  18
ATOM     18  S   UNL     1      -0.387  10.060  21.711  0.00  0.00    +0.000 S 
BRANCH  18  19
ATOM     19  C   UNL     1      -0.077  11.700  21.002  0.00  0.00    +0.000 C 
BRANCH  19  20
ATOM     20  C   UNL     1      -0.887  11.934  19.737  0.00  0.00    +0.000 C 
ATOM     21  O   UNL     1      -0.873  13.015  19.151  0.00  0.00    +0.000 OA
ATOM     22  N   UNL     1      -1.651  10.841  19.366  0.00  0.00    +0.000 N 
ATOM     23  H   UNL     1      -1.987  10.271  20.143  0.00  0.00    +0.000 HD
BRANCH  22  24
ATOM     24  C   UNL     1      -2.493  10.882  18.230  0.00  0.00    +0.000 A 
ATOM     25  C   UNL     1      -3.730  11.535  18.203  0.00  0.00    +0.000 A 
ATOM     26  F   UNL     1      -4.130  12.296  19.232  0.00  0.00    +0.000 F 
ATOM     27  C   UNL     1      -4.543  11.476  17.070  0.00  0.00    +0.000 A 
ATOM     28  C   UNL     1      -4.130  10.756  15.947  0.00  0.00    +0.000 A 
ATOM     29  C   UNL     1      -2.882  10.136  15.948  0.00  0.00    +0.000 A 
ATOM     30  C   UNL     1      -2.070  10.226  17.073  0.00  0.00    +0.000 A 
ATOM     31  F   UNL     1      -0.879   9.617  17.057  0.00  0.00    +0.000 F 
ENDBRANCH  22  24
ENDBRANCH  19  20
ENDBRANCH  18  19
ENDBRANCH   3  18
TORSDOF 5
ENDMDL
MODEL 7
REMARK VINA RESULT:      -7.6      3.726      9.167
REMARK  Name = 
REMARK  5 active torsions:
REMARK  status: ('A' for Active; 'I' for Inactive)
REMARK    1  A    between atoms: N_1  and  C_2
REMARK    2  A    between atoms: C_4  and  S_5
REMARK    3  A    between atoms: S_5  and  C_6
REMARK    4  A    between atoms: C_6  and  C_7
REMARK    5  A    between atoms: N_9  and  C_10
REMARK                            x       y       z     vdW  Elec       q    Type
REMARK                         _______ _______ _______ _____ _____    ______ ____
ROOT
ATOM      1  C   UNL     1      -2.273  11.734  19.098  0.00  0.00    +0.000 A 
ATOM      2  N   UNL     1      -1.281  11.012  18.555  0.00  0.00    +0.000 NA
ATOM      3  C   UNL     1      -0.264  10.592  19.318  0.00  0.00    +0.000 A 
ATOM      4  N   UNL     1      -0.100  10.841  20.620  0.00  0.00    +0.000 NA
ATOM      5  C   UNL     1      -1.095  11.594  21.133  0.00  0.00    +0.000 A 
ATOM      6  S   UNL     1      -1.037  12.087  22.760  0.00  0.00    +0.000 S 
ATOM      7  C   UNL     1      -2.572  12.822  22.663  0.00  0.00    +0.000 A 
ATOM      8  C   UNL     1      -3.097  12.784  21.381  0.00  0.00    +0.000 A 
ATOM      9  C   UNL     1      -2.225  12.061  20.468  0.00  0.00    +0.000 A 
ATOM     10  C   UNL     1      -4.432  13.405  21.072  0.00  0.00    +0.000 C 
ATOM     11  C   UNL     1      -5.575  12.703  21.813  0.00  0.00    +0.000 C 
ATOM     12  C   UNL     1      -5.711  13.124  23.282  0.00  0.00    +0.000 C 
ATOM     13  C   UNL     1      -4.552  12.721  24.201  0.00  0.00    +0.000 C 
ATOM     14  C   UNL     1      -3.217  13.406  23.886  0.00  0.00    +0.000 C 
ENDROOT
BRANCH   1  15
ATOM     15  N   UNL     1      -3.280  12.101  18.214  0.00  0.00    +0.000 N 
ATOM     16  H   UNL     1      -3.320  11.423  17.458  0.00  0.00    +0.000 HD
ATOM     17  H   UNL     1      -4.174  12.290  18.645  0.00  0.00    +0.000 HD
ENDBRANCH   1  15
BRANCH   3  18
ATOM     18  S   UNL     1       1.000   9.690  18.449  0.00  0.00    +0.000 S 
BRANCH  18  19
ATOM     19  C   UNL     1       1.708   8.673  19.773  0.00  0.00    +0.000 C 
BRANCH  19  20
ATOM     20  C   UNL     1       2.193   7.328  19.255  0.00  0.00    +0.000 C 
ATOM     21  O   UNL     1       2.393   7.130  18.058  0.00  0.00    +0.000 OA
ATOM     22  N   UNL     1       2.331   6.376  20.249  0.00  0.00    +0.000 N 
ATOM     23  H   UNL     1       1.673   6.467  21.023  0.00  0.00    +0.000 HD
BRANCH  22  24
ATOM     24  C   UNL     1       2.745   5.055  19.954  0.00  0.00    +0.000 A 
ATOM     25  C   UNL     1       4.050   4.715  19.581  0.00  0.00    +0.000 A 
ATOM     26  F   UNL     1       5.037   5.622  19.623  0.00  0.00    +0.000 F 
ATOM     27  C   UNL     1       4.374   3.402  19.235  0.00  0.00    +0.000 A 
ATOM     28  C   UNL     1       3.391   2.410  19.251  0.00  0.00    +0.000 A 
ATOM     29  C   UNL     1       2.098   2.730  19.660  0.00  0.00    +0.000 A 
ATOM     30  C   UNL     1       1.796   4.035  20.029  0.00  0.00    +0.000 A 
ATOM     31  F   UNL     1       0.546   4.323  20.411  0.00  0.00    +0.000 F 
ENDBRANCH  22  24
ENDBRANCH  19  20
ENDBRANCH  18  19
ENDBRANCH   3  18
TORSDOF 5
ENDMDL
MODEL 8
REMARK VINA RESULT:      -7.6      3.619      9.142
REMARK  Name = 
REMARK  5 active torsions:
REMARK  status: ('A' for Active; 'I' for Inactive)
REMARK    1  A    between atoms: N_1  and  C_2
REMARK    2  A    between atoms: C_4  and  S_5
REMARK    3  A    between atoms: S_5  and  C_6
REMARK    4  A    between atoms: C_6  and  C_7
REMARK    5  A    between atoms: N_9  and  C_10
REMARK                            x       y       z     vdW  Elec       q    Type
REMARK                         _______ _______ _______ _____ _____    ______ ____
ROOT
ATOM      1  C   UNL     1      -1.964  11.674  18.787  0.00  0.00    +0.000 A 
ATOM      2  N   UNL     1      -0.949  10.931  18.319  0.00  0.00    +0.000 NA
ATOM      3  C   UNL     1       0.020  10.523  19.148  0.00  0.00    +0.000 A 
ATOM      4  N   UNL     1       0.112  10.802  20.451  0.00  0.00    +0.000 NA
ATOM      5  C   UNL     1      -0.904  11.574  20.889  0.00  0.00    +0.000 A 
ATOM      6  S   UNL     1      -0.934  12.107  22.504  0.00  0.00    +0.000 S 
ATOM      7  C   UNL     1      -2.454  12.850  22.303  0.00  0.00    +0.000 A 
ATOM      8  C   UNL     1      -2.907  12.784  20.995  0.00  0.00    +0.000 A 
ATOM      9  C   UNL     1      -1.990  12.033  20.150  0.00  0.00    +0.000 A 
ATOM     10  C   UNL     1      -4.217  13.407  20.596  0.00  0.00    +0.000 C 
ATOM     11  C   UNL     1      -5.405  12.732  21.287  0.00  0.00    +0.000 C 
ATOM     12  C   UNL     1      -5.620  13.190  22.736  0.00  0.00    +0.000 C 
ATOM     13  C   UNL     1      -4.518  12.800  23.728  0.00  0.00    +0.000 C 
ATOM     14  C   UNL     1      -3.162  13.468  23.473  0.00  0.00    +0.000 C 
ENDROOT
BRANCH   1  15
ATOM     15  N   UNL     1      -2.916  12.026  17.840  0.00  0.00    +0.000 N 
ATOM     16  H   UNL     1      -2.987  11.283  17.150  0.00  0.00    +0.000 HD
ATOM     17  H   UNL     1      -3.805  12.320  18.221  0.00  0.00    +0.000 HD
ENDBRANCH   1  15
BRANCH   3  18
ATOM     18  S   UNL     1       1.323   9.591  18.374  0.00  0.00    +0.000 S 
BRANCH  18  19
ATOM     19  C   UNL     1       1.834   8.481  19.714  0.00  0.00    +0.000 C 
BRANCH  19  20
ATOM     20  C   UNL     1       2.240   7.112  19.192  0.00  0.00    +0.000 C 
ATOM     21  O   UNL     1       2.328   6.880  17.987  0.00  0.00    +0.000 OA
ATOM     22  N   UNL     1       2.443   6.181  20.195  0.00  0.00    +0.000 N 
ATOM     23  H   UNL     1       1.858   6.308  21.021  0.00  0.00    +0.000 HD
BRANCH  22  24
ATOM     24  C   UNL     1       2.798   4.844  19.899  0.00  0.00    +0.000 A 
ATOM     25  C   UNL     1       1.889   3.781  19.898  0.00  0.00    +0.000 A 
ATOM     26  F   UNL     1       0.574   3.999  20.042  0.00  0.00    +0.000 F 
ATOM     27  C   UNL     1       2.319   2.473  19.666  0.00  0.00    +0.000 A 
ATOM     28  C   UNL     1       3.672   2.211  19.436  0.00  0.00    +0.000 A 
ATOM     29  C   UNL     1       4.579   3.268  19.394  0.00  0.00    +0.000 A 
ATOM     30  C   UNL     1       4.132   4.567  19.599  0.00  0.00    +0.000 A 
ATOM     31  F   UNL     1       5.022   5.566  19.563  0.00  0.00    +0.000 F 
ENDBRANCH  22  24
ENDBRANCH  19  20
ENDBRANCH  18  19
ENDBRANCH   3  18
TORSDOF 5
ENDMDL
MODEL 9
REMARK VINA RESULT:      -7.6      3.994      9.117
REMARK  Name = 
REMARK  5 active torsions:
REMARK  status: ('A' for Active; 'I' for Inactive)
REMARK    1  A    between atoms: N_1  and  C_2
REMARK    2  A    between atoms: C_4  and  S_5
REMARK    3  A    between atoms: S_5  and  C_6
REMARK    4  A    between atoms: C_6  and  C_7
REMARK    5  A    between atoms: N_9  and  C_10
REMARK                            x       y       z     vdW  Elec       q    Type
REMARK                         _______ _______ _______ _____ _____    ______ ____
ROOT
ATOM      1  C   UNL     1      -0.786  11.499  18.538  0.00  0.00    +0.000 A 
ATOM      2  N   UNL     1       0.070  10.609  18.013  0.00  0.00    +0.000 NA
ATOM      3  C   UNL     1       0.744   9.775  18.816  0.00  0.00    +0.000 A 
ATOM      4  N   UNL     1       0.678   9.739  20.149  0.00  0.00    +0.000 NA
ATOM      5  C   UNL     1      -0.167  10.663  20.652  0.00  0.00    +0.000 A 
ATOM      6  S   UNL     1      -0.338  10.834  22.335  0.00  0.00    +0.000 S 
ATOM      7  C   UNL     1      -1.559  12.009  22.161  0.00  0.00    +0.000 A 
ATOM      8  C   UNL     1      -1.781  12.351  20.836  0.00  0.00    +0.000 A 
ATOM      9  C   UNL     1      -0.955  11.560  19.936  0.00  0.00    +0.000 A 
ATOM     10  C   UNL     1      -2.798  13.394  20.464  0.00  0.00    +0.000 C 
ATOM     11  C   UNL     1      -4.221  12.963  20.834  0.00  0.00    +0.000 C 
ATOM     12  C   UNL     1      -4.559  13.152  22.319  0.00  0.00    +0.000 C 
ATOM     13  C   UNL     1      -3.781  12.263  23.297  0.00  0.00    +0.000 C 
ATOM     14  C   UNL     1      -2.277  12.549  23.363  0.00  0.00    +0.000 C 
ENDROOT
BRANCH   1  15
ATOM     15  N   UNL     1      -1.439  12.300  17.609  0.00  0.00    +0.000 N 
ATOM     16  H   UNL     1      -0.745  12.775  17.037  0.00  0.00    +0.000 HD
ATOM     17  H   UNL     1      -2.160  11.833  17.079  0.00  0.00    +0.000 HD
ENDBRANCH   1  15
BRANCH   3  18
ATOM     18  S   UNL     1       1.879   8.688  17.980  0.00  0.00    +0.000 S 
BRANCH  18  19
ATOM     19  C   UNL     1       2.138   7.394  19.224  0.00  0.00    +0.000 C 
BRANCH  19  20
ATOM     20  C   UNL     1       3.315   6.498  18.871  0.00  0.00    +0.000 C 
ATOM     21  O   UNL     1       3.880   5.811  19.720  0.00  0.00    +0.000 OA
ATOM     22  N   UNL     1       3.690   6.583  17.542  0.00  0.00    +0.000 N 
ATOM     23  H   UNL     1       3.542   7.497  17.114  0.00  0.00    +0.000 HD
BRANCH  22  24
ATOM     24  C   UNL     1       4.784   5.842  17.036  0.00  0.00    +0.000 A 
ATOM     25  C   UNL     1       6.076   6.361  16.899  0.00  0.00    +0.000 A 
ATOM     26  F   UNL     1       6.387   7.573  17.382  0.00  0.00    +0.000 F 
ATOM     27  C   UNL     1       7.095   5.598  16.326  0.00  0.00    +0.000 A 
ATOM     28  C   UNL     1       6.831   4.302  15.877  0.00  0.00    +0.000 A 
ATOM     29  C   UNL     1       5.559   3.761  16.047  0.00  0.00    +0.000 A 
ATOM     30  C   UNL     1       4.561   4.522  16.644  0.00  0.00    +0.000 A 
ATOM     31  F   UNL     1       3.344   3.986  16.789  0.00  0.00    +0.000 F 
ENDBRANCH  22  24
ENDBRANCH  19  20
ENDBRANCH  18  19
ENDBRANCH   3  18
TORSDOF 5
ENDMDL
