MODEL 1
REMARK VINA RESULT:      -8.6      0.000      0.000
REMARK  Name = 
REMARK  3 active torsions:
REMARK  status: ('A' for Active; 'I' for Inactive)
REMARK    1  A    between atoms: C_1  and  C_2
REMARK    2  A    between atoms: C_7  and  C_8
REMARK    3  A    between atoms: C_13  and  C_14
REMARK                            x       y       z     vdW  Elec       q    Type
REMARK                         _______ _______ _______ _____ _____    ______ ____
ROOT
ATOM      1  C   UNL     1       0.720  10.861  21.188  0.00  0.00    +0.000 C 
ATOM      2  O   UNL     1       0.310  10.759  22.345  0.00  0.00    +0.000 OA
ATOM      3  N   UNL     1       1.174   9.741  20.471  0.00  0.00    +0.000 N 
ATOM      4  C   UNL     1       1.090   8.471  21.178  0.00  0.00    +0.000 C 
ATOM      5  C   UNL     1       1.708   7.335  20.418  0.00  0.00    +0.000 C 
ATOM      6  C   UNL     1       2.252   7.425  19.190  0.00  0.00    +0.000 C 
ATOM      7  C   UNL     1       2.237   8.749  18.472  0.00  0.00    +0.000 C 
ATOM      8  C   UNL     1       1.144   9.667  19.010  0.00  0.00    +0.000 C 
ENDROOT
BRANCH   1  15
ATOM      9  C   UNL     1      -0.771  17.387  18.100  0.00  0.00    +0.000 C 
ATOM     10  C   UNL     1      -0.051  16.182  18.631  0.00  0.00    +0.000 A 
ATOM     11  C   UNL     1       1.412  16.207  18.643  0.00  0.00    +0.000 A 
ATOM     12  C   UNL     1       2.084  15.143  19.119  0.00  0.00    +0.000 A 
ATOM     13  N   UNL     1       1.370  14.047  19.591  0.00  0.00    +0.000 N 
ATOM     14  C   UNL     1       1.827  12.879  20.138  0.00  0.00    +0.000 A 
ATOM     15  C   UNL     1       0.702  12.165  20.514  0.00  0.00    +0.000 A 
ATOM     16  N   UNL     1      -0.441  12.855  20.132  0.00  0.00    +0.000 NA
ATOM     17  C   UNL     1      -0.016  13.982  19.602  0.00  0.00    +0.000 A 
ATOM     18  C   UNL     1      -0.726  15.103  19.088  0.00  0.00    +0.000 A 
ENDBRANCH   1  15
BRANCH   6  19
ATOM     19  C   UNL     1       2.811   6.318  18.465  0.00  0.00    +0.000 A 
ATOM     20  C   UNL     1       3.893   6.429  17.615  0.00  0.00    +0.000 A 
ATOM     21  N   UNL     1       4.163   5.192  17.098  0.00  0.00    +0.000 N 
ATOM     22  C   UNL     1       3.279   4.263  17.594  0.00  0.00    +0.000 A 
ATOM     23  C   UNL     1       3.186   2.890  17.335  0.00  0.00    +0.000 A 
ATOM     24  C   UNL     1       2.176   2.173  17.979  0.00  0.00    +0.000 A 
ATOM     25  C   UNL     1       1.294   2.806  18.846  0.00  0.00    +0.000 A 
ATOM     26  C   UNL     1       1.399   4.181  19.089  0.00  0.00    +0.000 A 
ATOM     27  C   UNL     1       2.412   4.938  18.460  0.00  0.00    +0.000 A 
ATOM     28  H   UNL     1       4.905   4.983  16.445  0.00  0.00    +0.000 HD
ENDBRANCH   6  19
TORSDOF 2
ENDMDL
MODEL 2
REMARK VINA RESULT:      -8.5      2.412      9.208
REMARK  Name = 
REMARK  3 active torsions:
REMARK  status: ('A' for Active; 'I' for Inactive)
REMARK    1  A    between atoms: C_1  and  C_2
REMARK    2  A    between atoms: C_7  and  C_8
REMARK    3  A    between atoms: C_13  and  C_14
REMARK                            x       y       z     vdW  Elec       q    Type
REMARK                         _______ _______ _______ _____ _____    ______ ____
ROOT
ATOM      1  C   UNL     1       2.801   6.101  19.696  0.00  0.00    +0.000 C 
ATOM      2  O   UNL     1       2.584   5.440  20.712  0.00  0.00    +0.000 OA
ATOM      3  N   UNL     1       2.206   7.359  19.501  0.00  0.00    +0.000 N 
ATOM      4  C   UNL     1       1.358   7.824  20.589  0.00  0.00    +0.000 C 
ATOM      5  C   UNL     1       0.646   9.106  20.271  0.00  0.00    +0.000 C 
ATOM      6  C   UNL     1       0.784   9.811  19.132  0.00  0.00    +0.000 C 
ATOM      7  C   UNL     1       1.739   9.323  18.074  0.00  0.00    +0.000 C 
ATOM      8  C   UNL     1       2.801   8.398  18.660  0.00  0.00    +0.000 C 
ENDROOT
BRANCH   1  15
ATOM      9  C   UNL     1       6.358   3.756  13.680  0.00  0.00    +0.000 C 
ATOM     10  C   UNL     1       6.040   4.187  15.082  0.00  0.00    +0.000 A 
ATOM     11  C   UNL     1       7.149   4.323  16.027  0.00  0.00    +0.000 A 
ATOM     12  C   UNL     1       6.894   4.713  17.289  0.00  0.00    +0.000 A 
ATOM     13  N   UNL     1       5.582   4.982  17.662  0.00  0.00    +0.000 N 
ATOM     14  C   UNL     1       5.088   5.411  18.864  0.00  0.00    +0.000 A 
ATOM     15  C   UNL     1       3.730   5.599  18.676  0.00  0.00    +0.000 A 
ATOM     16  N   UNL     1       3.377   5.216  17.389  0.00  0.00    +0.000 NA
ATOM     17  C   UNL     1       4.501   4.870  16.799  0.00  0.00    +0.000 A 
ATOM     18  C   UNL     1       4.771   4.446  15.468  0.00  0.00    +0.000 A 
ENDBRANCH   1  15
BRANCH   6  19
ATOM     19  C   UNL     1       0.118  11.054  18.859  0.00  0.00    +0.000 A 
ATOM     20  C   UNL     1      -1.188  11.140  18.419  0.00  0.00    +0.000 A 
ATOM     21  N   UNL     1      -1.503  12.462  18.264  0.00  0.00    +0.000 N 
ATOM     22  C   UNL     1      -0.428  13.252  18.598  0.00  0.00    +0.000 A 
ATOM     23  C   UNL     1      -0.305  14.647  18.585  0.00  0.00    +0.000 A 
ATOM     24  C   UNL     1       0.918  15.197  18.974  0.00  0.00    +0.000 A 
ATOM     25  C   UNL     1       1.975  14.382  19.358  0.00  0.00    +0.000 A 
ATOM     26  C   UNL     1       1.836  12.989  19.360  0.00  0.00    +0.000 A 
ATOM     27  C   UNL     1       0.611  12.398  18.979  0.00  0.00    +0.000 A 
ATOM     28  H   UNL     1      -2.396  12.816  17.951  0.00  0.00    +0.000 HD
ENDBRANCH   6  19
TORSDOF 2
ENDMDL
MODEL 3
REMARK VINA RESULT:      -8.5      1.025      2.051
REMARK  Name = 
REMARK  3 active torsions:
REMARK  status: ('A' for Active; 'I' for Inactive)
REMARK    1  A    between atoms: C_1  and  C_2
REMARK    2  A    between atoms: C_7  and  C_8
REMARK    3  A    between atoms: C_13  and  C_14
REMARK                            x       y       z     vdW  Elec       q    Type
REMARK                         _______ _______ _______ _____ _____    ______ ____
ROOT
ATOM      1  C   UNL     1       0.886  10.612  21.177  0.00  0.00    +0.000 C 
ATOM      2  O   UNL     1       0.539  10.513  22.354  0.00  0.00    +0.000 OA
ATOM      3  N   UNL     1       1.275   9.487  20.431  0.00  0.00    +0.000 N 
ATOM      4  C   UNL     1       1.203   8.216  21.136  0.00  0.00    +0.000 C 
ATOM      5  C   UNL     1       1.754   7.071  20.338  0.00  0.00    +0.000 C 
ATOM      6  C   UNL     1       2.231   7.156  19.082  0.00  0.00    +0.000 C 
ATOM      7  C   UNL     1       2.205   8.483  18.372  0.00  0.00    +0.000 C 
ATOM      8  C   UNL     1       1.164   9.422  18.974  0.00  0.00    +0.000 C 
ENDROOT
BRANCH   1  15
ATOM      9  C   UNL     1      -0.651  17.144  18.123  0.00  0.00    +0.000 C 
ATOM     10  C   UNL     1       0.078  15.942  18.649  0.00  0.00    +0.000 A 
ATOM     11  C   UNL     1       1.541  15.979  18.668  0.00  0.00    +0.000 A 
ATOM     12  C   UNL     1       2.220  14.919  19.140  0.00  0.00    +0.000 A 
ATOM     13  N   UNL     1       1.514  13.814  19.603  0.00  0.00    +0.000 N 
ATOM     14  C   UNL     1       1.979  12.647  20.144  0.00  0.00    +0.000 A 
ATOM     15  C   UNL     1       0.860  11.921  20.511  0.00  0.00    +0.000 A 
ATOM     16  N   UNL     1      -0.288  12.602  20.129  0.00  0.00    +0.000 NA
ATOM     17  C   UNL     1       0.128  13.736  19.607  0.00  0.00    +0.000 A 
ATOM     18  C   UNL     1      -0.589  14.854  19.096  0.00  0.00    +0.000 A 
ENDBRANCH   1  15
BRANCH   6  19
ATOM     19  C   UNL     1       2.725   6.041  18.323  0.00  0.00    +0.000 A 
ATOM     20  C   UNL     1       2.045   4.847  18.187  0.00  0.00    +0.000 A 
ATOM     21  N   UNL     1       2.793   4.013  17.403  0.00  0.00    +0.000 N 
ATOM     22  C   UNL     1       3.956   4.637  17.015  0.00  0.00    +0.000 A 
ATOM     23  C   UNL     1       5.005   4.159  16.219  0.00  0.00    +0.000 A 
ATOM     24  C   UNL     1       6.085   5.012  15.982  0.00  0.00    +0.000 A 
ATOM     25  C   UNL     1       6.113   6.291  16.524  0.00  0.00    +0.000 A 
ATOM     26  C   UNL     1       5.058   6.751  17.321  0.00  0.00    +0.000 A 
ATOM     27  C   UNL     1       3.946   5.917  17.576  0.00  0.00    +0.000 A 
ATOM     28  H   UNL     1       2.535   3.072  17.140  0.00  0.00    +0.000 HD
ENDBRANCH   6  19
TORSDOF 2
ENDMDL
MODEL 4
REMARK VINA RESULT:      -8.5      3.190      9.120
REMARK  Name = 
REMARK  3 active torsions:
REMARK  status: ('A' for Active; 'I' for Inactive)
REMARK    1  A    between atoms: C_1  and  C_2
REMARK    2  A    between atoms: C_7  and  C_8
REMARK    3  A    between atoms: C_13  and  C_14
REMARK                            x       y       z     vdW  Elec       q    Type
REMARK                         _______ _______ _______ _____ _____    ______ ____
ROOT
ATOM      1  C   UNL     1       3.760   5.109  18.904  0.00  0.00    +0.000 C 
ATOM      2  O   UNL     1       3.776   4.280  19.815  0.00  0.00    +0.000 OA
ATOM      3  N   UNL     1       3.049   6.315  19.025  0.00  0.00    +0.000 N 
ATOM      4  C   UNL     1       2.377   6.519  20.300  0.00  0.00    +0.000 C 
ATOM      5  C   UNL     1       1.529   7.756  20.325  0.00  0.00    +0.000 C 
ATOM      6  C   UNL     1       1.409   8.638  19.315  0.00  0.00    +0.000 C 
ATOM      7  C   UNL     1       2.193   8.418  18.047  0.00  0.00    +0.000 C 
ATOM      8  C   UNL     1       3.407   7.525  18.285  0.00  0.00    +0.000 C 
ENDROOT
BRANCH   1  15
ATOM      9  C   UNL     1       6.350   3.442  12.206  0.00  0.00    +0.000 C 
ATOM     10  C   UNL     1       6.237   3.936  13.619  0.00  0.00    +0.000 A 
ATOM     11  C   UNL     1       7.370   4.673  14.181  0.00  0.00    +0.000 A 
ATOM     12  C   UNL     1       7.294   5.132  15.443  0.00  0.00    +0.000 A 
ATOM     13  N   UNL     1       6.139   4.899  16.181  0.00  0.00    +0.000 N 
ATOM     14  C   UNL     1       5.826   5.286  17.455  0.00  0.00    +0.000 A 
ATOM     15  C   UNL     1       4.526   4.866  17.675  0.00  0.00    +0.000 A 
ATOM     16  N   UNL     1       4.067   4.159  16.572  0.00  0.00    +0.000 NA
ATOM     17  C   UNL     1       5.040   4.209  15.688  0.00  0.00    +0.000 A 
ATOM     18  C   UNL     1       5.126   3.713  14.357  0.00  0.00    +0.000 A 
ENDBRANCH   1  15
BRANCH   6  19
ATOM     19  C   UNL     1       0.616   9.834  19.369  0.00  0.00    +0.000 A 
ATOM     20  C   UNL     1       0.848  10.865  20.257  0.00  0.00    +0.000 A 
ATOM     21  N   UNL     1      -0.083  11.842  20.036  0.00  0.00    +0.000 N 
ATOM     22  C   UNL     1      -0.926  11.474  19.012  0.00  0.00    +0.000 A 
ATOM     23  C   UNL     1      -2.015  12.162  18.461  0.00  0.00    +0.000 A 
ATOM     24  C   UNL     1      -2.712  11.549  17.418  0.00  0.00    +0.000 A 
ATOM     25  C   UNL     1      -2.334  10.297  16.949  0.00  0.00    +0.000 A 
ATOM     26  C   UNL     1      -1.247   9.622  17.516  0.00  0.00    +0.000 A 
ATOM     27  C   UNL     1      -0.515  10.214  18.568  0.00  0.00    +0.000 A 
ATOM     28  H   UNL     1      -0.149  12.712  20.545  0.00  0.00    +0.000 HD
ENDBRANCH   6  19
TORSDOF 2
ENDMDL
MODEL 5
REMARK VINA RESULT:      -8.4      0.597      1.263
REMARK  Name = 
REMARK  3 active torsions:
REMARK  status: ('A' for Active; 'I' for Inactive)
REMARK    1  A    between atoms: C_1  and  C_2
REMARK    2  A    between atoms: C_7  and  C_8
REMARK    3  A    between atoms: C_13  and  C_14
REMARK                            x       y       z     vdW  Elec       q    Type
REMARK                         _______ _______ _______ _____ _____    ______ ____
ROOT
ATOM      1  C   UNL     1       0.678  10.809  21.328  0.00  0.00    +0.000 C 
ATOM      2  O   UNL     1       0.243  10.675  22.473  0.00  0.00    +0.000 OA
ATOM      3  N   UNL     1       1.132   9.706  20.585  0.00  0.00    +0.000 N 
ATOM      4  C   UNL     1       1.018   8.416  21.249  0.00  0.00    +0.000 C 
ATOM      5  C   UNL     1       1.638   7.296  20.466  0.00  0.00    +0.000 C 
ATOM      6  C   UNL     1       2.208   7.418  19.253  0.00  0.00    +0.000 C 
ATOM      7  C   UNL     1       2.225   8.764  18.578  0.00  0.00    +0.000 C 
ATOM      8  C   UNL     1       1.132   9.679  19.122  0.00  0.00    +0.000 C 
ENDROOT
BRANCH   1  15
ATOM      9  C   UNL     1       2.128  17.181  17.916  0.00  0.00    +0.000 C 
ATOM     10  C   UNL     1       1.418  16.045  18.594  0.00  0.00    +0.000 A 
ATOM     11  C   UNL     1      -0.044  16.082  18.645  0.00  0.00    +0.000 A 
ATOM     12  C   UNL     1      -0.707  15.075  19.240  0.00  0.00    +0.000 A 
ATOM     13  N   UNL     1       0.015  14.021  19.790  0.00  0.00    +0.000 N 
ATOM     14  C   UNL     1      -0.435  12.889  20.414  0.00  0.00    +0.000 A 
ATOM     15  C   UNL     1       0.690  12.134  20.696  0.00  0.00    +0.000 A 
ATOM     16  N   UNL     1       1.830  12.829  20.316  0.00  0.00    +0.000 NA
ATOM     17  C   UNL     1       1.400  13.942  19.761  0.00  0.00    +0.000 A 
ATOM     18  C   UNL     1       2.101  15.014  19.141  0.00  0.00    +0.000 A 
ENDBRANCH   1  15
BRANCH   6  19
ATOM     19  C   UNL     1       2.769   6.327  18.505  0.00  0.00    +0.000 A 
ATOM     20  C   UNL     1       3.825   6.466  17.626  0.00  0.00    +0.000 A 
ATOM     21  N   UNL     1       4.104   5.238  17.092  0.00  0.00    +0.000 N 
ATOM     22  C   UNL     1       3.252   4.289  17.606  0.00  0.00    +0.000 A 
ATOM     23  C   UNL     1       3.179   2.915  17.340  0.00  0.00    +0.000 A 
ATOM     24  C   UNL     1       2.202   2.174  18.006  0.00  0.00    +0.000 A 
ATOM     25  C   UNL     1       1.332   2.784  18.902  0.00  0.00    +0.000 A 
ATOM     26  C   UNL     1       1.417   4.159  19.152  0.00  0.00    +0.000 A 
ATOM     27  C   UNL     1       2.397   4.939  18.500  0.00  0.00    +0.000 A 
ATOM     28  H   UNL     1       4.831   5.048  16.417  0.00  0.00    +0.000 HD
ENDBRANCH   6  19
TORSDOF 2
ENDMDL
MODEL 6
REMARK VINA RESULT:      -8.4      3.271      9.191
REMARK  Name = 
REMARK  3 active torsions:
REMARK  status: ('A' for Active; 'I' for Inactive)
REMARK    1  A    between atoms: C_1  and  C_2
REMARK    2  A    between atoms: C_7  and  C_8
REMARK    3  A    between atoms: C_13  and  C_14
REMARK                            x       y       z     vdW  Elec       q    Type
REMARK                         _______ _______ _______ _____ _____    ______ ____
ROOT
ATOM      1  C   UNL     1       3.701   4.784  18.982  0.00  0.00    +0.000 C 
ATOM      2  O   UNL     1       3.676   3.875  19.811  0.00  0.00    +0.000 OA
ATOM      3  N   UNL     1       3.020   5.994  19.201  0.00  0.00    +0.000 N 
ATOM      4  C   UNL     1       2.326   6.097  20.476  0.00  0.00    +0.000 C 
ATOM      5  C   UNL     1       1.510   7.350  20.600  0.00  0.00    +0.000 C 
ATOM      6  C   UNL     1       1.436   8.325  19.675  0.00  0.00    +0.000 C 
ATOM      7  C   UNL     1       2.241   8.202  18.408  0.00  0.00    +0.000 C 
ATOM      8  C   UNL     1       3.426   7.257  18.585  0.00  0.00    +0.000 C 
ENDROOT
BRANCH   1  15
ATOM      9  C   UNL     1       6.412   3.580  12.233  0.00  0.00    +0.000 C 
ATOM     10  C   UNL     1       6.269   3.989  13.669  0.00  0.00    +0.000 A 
ATOM     11  C   UNL     1       7.372   4.728  14.286  0.00  0.00    +0.000 A 
ATOM     12  C   UNL     1       7.268   5.113  15.570  0.00  0.00    +0.000 A 
ATOM     13  N   UNL     1       6.114   4.803  16.280  0.00  0.00    +0.000 N 
ATOM     14  C   UNL     1       5.775   5.107  17.570  0.00  0.00    +0.000 A 
ATOM     15  C   UNL     1       4.487   4.635  17.751  0.00  0.00    +0.000 A 
ATOM     16  N   UNL     1       4.063   3.978  16.604  0.00  0.00    +0.000 NA
ATOM     17  C   UNL     1       5.043   4.108  15.735  0.00  0.00    +0.000 A 
ATOM     18  C   UNL     1       5.158   3.691  14.380  0.00  0.00    +0.000 A 
ENDBRANCH   1  15
BRANCH   6  19
ATOM     19  C   UNL     1       0.674   9.533  19.826  0.00  0.00    +0.000 A 
ATOM     20  C   UNL     1       0.471  10.442  18.806  0.00  0.00    +0.000 A 
ATOM     21  N   UNL     1      -0.296  11.466  19.288  0.00  0.00    +0.000 N 
ATOM     22  C   UNL     1      -0.607  11.248  20.610  0.00  0.00    +0.000 A 
ATOM     23  C   UNL     1      -1.361  12.033  21.492  0.00  0.00    +0.000 A 
ATOM     24  C   UNL     1      -1.519  11.573  22.801  0.00  0.00    +0.000 A 
ATOM     25  C   UNL     1      -0.944  10.376  23.209  0.00  0.00    +0.000 A 
ATOM     26  C   UNL     1      -0.189   9.607  22.316  0.00  0.00    +0.000 A 
ATOM     27  C   UNL     1      -0.013  10.039  20.982  0.00  0.00    +0.000 A 
ATOM     28  H   UNL     1      -0.596  12.270  18.756  0.00  0.00    +0.000 HD
ENDBRANCH   6  19
TORSDOF 2
ENDMDL
MODEL 7
REMARK VINA RESULT:      -8.3      1.197      2.438
REMARK  Name = 
REMARK  3 active torsions:
REMARK  status: ('A' for Active; 'I' for Inactive)
REMARK    1  A    between atoms: C_1  and  C_2
REMARK    2  A    between atoms: C_7  and  C_8
REMARK    3  A    between atoms: C_13  and  C_14
REMARK                            x       y       z     vdW  Elec       q    Type
REMARK                         _______ _______ _______ _____ _____    ______ ____
ROOT
ATOM      1  C   UNL     1       0.846  10.338  21.443  0.00  0.00    +0.000 C 
ATOM      2  O   UNL     1       0.489  10.175  22.610  0.00  0.00    +0.000 OA
ATOM      3  N   UNL     1       1.245   9.255  20.642  0.00  0.00    +0.000 N 
ATOM      4  C   UNL     1       1.171   7.948  21.278  0.00  0.00    +0.000 C 
ATOM      5  C   UNL     1       1.733   6.848  20.426  0.00  0.00    +0.000 C 
ATOM      6  C   UNL     1       2.220   7.001  19.180  0.00  0.00    +0.000 C 
ATOM      7  C   UNL     1       2.195   8.364  18.541  0.00  0.00    +0.000 C 
ATOM      8  C   UNL     1       1.146   9.267  19.182  0.00  0.00    +0.000 C 
ENDROOT
BRANCH   1  15
ATOM      9  C   UNL     1       2.146  16.980  18.522  0.00  0.00    +0.000 C 
ATOM     10  C   UNL     1       1.463  15.737  19.009  0.00  0.00    +0.000 A 
ATOM     11  C   UNL     1       0.034  15.585  18.734  0.00  0.00    +0.000 A 
ATOM     12  C   UNL     1      -0.603  14.478  19.154  0.00  0.00    +0.000 A 
ATOM     13  N   UNL     1       0.114  13.501  19.837  0.00  0.00    +0.000 N 
ATOM     14  C   UNL     1      -0.306  12.296  20.330  0.00  0.00    +0.000 A 
ATOM     15  C   UNL     1       0.820  11.679  20.846  0.00  0.00    +0.000 A 
ATOM     16  N   UNL     1       1.912  12.529  20.739  0.00  0.00    +0.000 NA
ATOM     17  C   UNL     1       1.470  13.601  20.116  0.00  0.00    +0.000 A 
ATOM     18  C   UNL     1       2.140  14.779  19.682  0.00  0.00    +0.000 A 
ENDBRANCH   1  15
BRANCH   6  19
ATOM     19  C   UNL     1       2.724   5.929  18.367  0.00  0.00    +0.000 A 
ATOM     20  C   UNL     1       2.067   4.728  18.191  0.00  0.00    +0.000 A 
ATOM     21  N   UNL     1       2.819   3.943  17.361  0.00  0.00    +0.000 N 
ATOM     22  C   UNL     1       3.962   4.607  16.982  0.00  0.00    +0.000 A 
ATOM     23  C   UNL     1       5.007   4.185  16.150  0.00  0.00    +0.000 A 
ATOM     24  C   UNL     1       6.065   5.069  15.933  0.00  0.00    +0.000 A 
ATOM     25  C   UNL     1       6.076   6.326  16.526  0.00  0.00    +0.000 A 
ATOM     26  C   UNL     1       5.025   6.729  17.359  0.00  0.00    +0.000 A 
ATOM     27  C   UNL     1       3.935   5.863  17.597  0.00  0.00    +0.000 A 
ATOM     28  H   UNL     1       2.576   3.009  17.064  0.00  0.00    +0.000 HD
ENDBRANCH   6  19
TORSDOF 2
ENDMDL
MODEL 8
REMARK VINA RESULT:      -8.2      2.897      9.081
REMARK  Name = 
REMARK  3 active torsions:
REMARK  status: ('A' for Active; 'I' for Inactive)
REMARK    1  A    between atoms: C_1  and  C_2
REMARK    2  A    between atoms: C_7  and  C_8
REMARK    3  A    between atoms: C_13  and  C_14
REMARK                            x       y       z     vdW  Elec       q    Type
REMARK                         _______ _______ _______ _____ _____    ______ ____
ROOT
ATOM      1  C   UNL     1       2.624   5.548  20.124  0.00  0.00    +0.000 C 
ATOM      2  O   UNL     1       2.418   4.754  21.043  0.00  0.00    +0.000 OA
ATOM      3  N   UNL     1       1.982   6.797  20.079  0.00  0.00    +0.000 N 
ATOM      4  C   UNL     1       1.100   7.086  21.200  0.00  0.00    +0.000 C 
ATOM      5  C   UNL     1       0.342   8.370  21.033  0.00  0.00    +0.000 C 
ATOM      6  C   UNL     1       0.469   9.220  19.997  0.00  0.00    +0.000 C 
ATOM      7  C   UNL     1       1.458   8.908  18.905  0.00  0.00    +0.000 C 
ATOM      8  C   UNL     1       2.548   7.956  19.389  0.00  0.00    +0.000 C 
ENDROOT
BRANCH   1  15
ATOM      9  C   UNL     1       6.333   4.006  13.943  0.00  0.00    +0.000 C 
ATOM     10  C   UNL     1       5.989   4.302  15.373  0.00  0.00    +0.000 A 
ATOM     11  C   UNL     1       7.089   4.483  16.321  0.00  0.00    +0.000 A 
ATOM     12  C   UNL     1       6.810   4.756  17.608  0.00  0.00    +0.000 A 
ATOM     13  N   UNL     1       5.481   4.863  18.005  0.00  0.00    +0.000 N 
ATOM     14  C   UNL     1       4.960   5.154  19.236  0.00  0.00    +0.000 A 
ATOM     15  C   UNL     1       3.588   5.216  19.068  0.00  0.00    +0.000 A 
ATOM     16  N   UNL     1       3.261   4.890  17.758  0.00  0.00    +0.000 NA
ATOM     17  C   UNL     1       4.407   4.703  17.141  0.00  0.00    +0.000 A 
ATOM     18  C   UNL     1       4.704   4.403  15.782  0.00  0.00    +0.000 A 
ENDBRANCH   1  15
BRANCH   6  19
ATOM     19  C   UNL     1      -0.243  10.462  19.871  0.00  0.00    +0.000 A 
ATOM     20  C   UNL     1      -0.540  11.053  18.659  0.00  0.00    +0.000 A 
ATOM     21  N   UNL     1      -1.222  12.213  18.902  0.00  0.00    +0.000 N 
ATOM     22  C   UNL     1      -1.384  12.397  20.256  0.00  0.00    +0.000 A 
ATOM     23  C   UNL     1      -2.012  13.441  20.947  0.00  0.00    +0.000 A 
ATOM     24  C   UNL     1      -2.029  13.381  22.342  0.00  0.00    +0.000 A 
ATOM     25  C   UNL     1      -1.438  12.320  23.016  0.00  0.00    +0.000 A 
ATOM     26  C   UNL     1      -0.810  11.288  22.309  0.00  0.00    +0.000 A 
ATOM     27  C   UNL     1      -0.779  11.312  20.897  0.00  0.00    +0.000 A 
ATOM     28  H   UNL     1      -1.563  12.848  18.195  0.00  0.00    +0.000 HD
ENDBRANCH   6  19
TORSDOF 2
ENDMDL
MODEL 9
REMARK VINA RESULT:      -8.0      3.950      9.153
REMARK  Name = 
REMARK  3 active torsions:
REMARK  status: ('A' for Active; 'I' for Inactive)
REMARK    1  A    between atoms: C_1  and  C_2
REMARK    2  A    between atoms: C_7  and  C_8
REMARK    3  A    between atoms: C_13  and  C_14
REMARK                            x       y       z     vdW  Elec       q    Type
REMARK                         _______ _______ _______ _____ _____    ______ ____
ROOT
ATOM      1  C   UNL     1       0.751  10.050  20.495  0.00  0.00    +0.000 C 
ATOM      2  O   UNL     1       1.229  10.656  21.454  0.00  0.00    +0.000 OA
ATOM      3  N   UNL     1      -0.421  10.494  19.859  0.00  0.00    +0.000 N 
ATOM      4  C   UNL     1      -0.993  11.722  20.392  0.00  0.00    +0.000 C 
ATOM      5  C   UNL     1      -2.310  12.075  19.767  0.00  0.00    +0.000 C 
ATOM      6  C   UNL     1      -2.913  11.386  18.779  0.00  0.00    +0.000 C 
ATOM      7  C   UNL     1      -2.233  10.168  18.210  0.00  0.00    +0.000 C 
ATOM      8  C   UNL     1      -0.729  10.195  18.460  0.00  0.00    +0.000 C 
ENDROOT
BRANCH   1  15
ATOM      9  C   UNL     1       4.614   4.971  16.803  0.00  0.00    +0.000 C 
ATOM     10  C   UNL     1       3.780   5.665  17.839  0.00  0.00    +0.000 A 
ATOM     11  C   UNL     1       3.480   4.944  19.077  0.00  0.00    +0.000 A 
ATOM     12  C   UNL     1       2.740   5.544  20.025  0.00  0.00    +0.000 A 
ATOM     13  N   UNL     1       2.280   6.839  19.808  0.00  0.00    +0.000 N 
ATOM     14  C   UNL     1       1.543   7.651  20.626  0.00  0.00    +0.000 A 
ATOM     15  C   UNL     1       1.429   8.861  19.964  0.00  0.00    +0.000 A 
ATOM     16  N   UNL     1       2.026   8.770  18.714  0.00  0.00    +0.000 NA
ATOM     17  C   UNL     1       2.543   7.562  18.653  0.00  0.00    +0.000 A 
ATOM     18  C   UNL     1       3.317   6.921  17.645  0.00  0.00    +0.000 A 
ENDBRANCH   1  15
BRANCH   6  19
ATOM     19  C   UNL     1      -4.159  11.758  18.170  0.00  0.00    +0.000 A 
ATOM     20  C   UNL     1      -4.430  11.601  16.826  0.00  0.00    +0.000 A 
ATOM     21  N   UNL     1      -5.699  12.052  16.587  0.00  0.00    +0.000 N 
ATOM     22  C   UNL     1      -6.274  12.501  17.753  0.00  0.00    +0.000 A 
ATOM     23  C   UNL     1      -7.546  13.045  17.971  0.00  0.00    +0.000 A 
ATOM     24  C   UNL     1      -7.876  13.430  19.272  0.00  0.00    +0.000 A 
ATOM     25  C   UNL     1      -6.967  13.277  20.312  0.00  0.00    +0.000 A 
ATOM     26  C   UNL     1      -5.697  12.737  20.075  0.00  0.00    +0.000 A 
ATOM     27  C   UNL     1      -5.331  12.331  18.772  0.00  0.00    +0.000 A 
ATOM     28  H   UNL     1      -6.157  12.056  15.687  0.00  0.00    +0.000 HD
ENDBRANCH   6  19
TORSDOF 2
ENDMDL
