MODEL 1
REMARK VINA RESULT:      -8.8      0.000      0.000
REMARK  Name = 
REMARK  5 active torsions:
REMARK  status: ('A' for Active; 'I' for Inactive)
REMARK    1  A    between atoms: C_2  and  C_17
REMARK    2  A    between atoms: N_3  and  C_4
REMARK    3  A    between atoms: C_4  and  C_5
REMARK    4  A    between atoms: C_8  and  N_9
REMARK    5  A    between atoms: C_19  and  C_20
REMARK                            x       y       z     vdW  Elec       q    Type
REMARK                         _______ _______ _______ _____ _____    ______ ____
ROOT
ATOM      1  O   UNL     1       2.607   8.893  17.050  0.00  0.00    +0.000 OA
ATOM      2  C   UNL     1       2.371   8.460  18.168  0.00  0.00    +0.000 C 
ATOM      3  N   UNL     1       1.788   9.240  19.154  0.00  0.00    +0.000 N 
ATOM      4  H   UNL     1       1.621   8.873  20.078  0.00  0.00    +0.000 HD
ENDROOT
BRANCH   2   5
ATOM      5  C   UNL     1       2.725   7.041  18.540  0.00  0.00    +0.000 A 
ATOM      6  C   UNL     1       2.085   6.447  19.638  0.00  0.00    +0.000 A 
ATOM      7  C   UNL     1       2.379   5.131  19.976  0.00  0.00    +0.000 A 
ATOM      8  N   UNL     1       3.377   4.470  19.354  0.00  0.00    +0.000 NA
ATOM      9  C   UNL     1       4.064   5.055  18.366  0.00  0.00    +0.000 A 
ATOM     10  C   UNL     1       5.147   4.353  17.858  0.00  0.00    +0.000 A 
ATOM     11  C   UNL     1       5.932   4.859  16.824  0.00  0.00    +0.000 A 
ATOM     12  C   UNL     1       5.575   6.055  16.227  0.00  0.00    +0.000 A 
ATOM     13  C   UNL     1       4.480   6.772  16.718  0.00  0.00    +0.000 A 
ATOM     14  C   UNL     1       3.746   6.326  17.851  0.00  0.00    +0.000 A 
BRANCH   7  15
ATOM     15  C   UNL     1       1.551   4.329  20.951  0.00  0.00    +0.000 C 
ATOM     16  C   UNL     1       2.009   3.032  21.565  0.00  0.00    +0.000 C 
ATOM     17  C   UNL     1       0.938   3.021  20.507  0.00  0.00    +0.000 C 
ENDBRANCH   7  15
ENDBRANCH   2   5
BRANCH   3  18
ATOM     18  C   UNL     1       1.480  10.645  18.939  0.00  0.00    +0.000 C 
BRANCH  18  19
ATOM     19  C   UNL     1      -0.004  10.879  18.793  0.00  0.00    +0.000 A 
ATOM     20  C   UNL     1      -0.822   9.959  18.131  0.00  0.00    +0.000 A 
ATOM     21  C   UNL     1      -2.209  10.179  18.012  0.00  0.00    +0.000 A 
ATOM     22  C   UNL     1      -2.819  11.325  18.527  0.00  0.00    +0.000 A 
ATOM     23  C   UNL     1      -1.990  12.244  19.188  0.00  0.00    +0.000 A 
ATOM     24  C   UNL     1      -0.607  12.021  19.326  0.00  0.00    +0.000 A 
BRANCH  22  25
ATOM     25  N   UNL     1      -4.223  11.563  18.388  0.00  0.00    +0.000 N 
ATOM     26  C   UNL     1      -5.055  11.988  19.494  0.00  0.00    +0.000 C 
ATOM     27  C   UNL     1      -6.476  11.840  18.993  0.00  0.00    +0.000 C 
ATOM     28  C   UNL     1      -6.360  12.027  17.495  0.00  0.00    +0.000 C 
ATOM     29  C   UNL     1      -4.948  11.586  17.186  0.00  0.00    +0.000 C 
ATOM     30  O   UNL     1      -4.574  11.344  16.048  0.00  0.00    +0.000 OA
ENDBRANCH  22  25
ENDBRANCH  18  19
ENDBRANCH   3  18
TORSDOF 5
ENDMDL
MODEL 2
REMARK VINA RESULT:      -8.8      0.469      1.003
REMARK  Name = 
REMARK  5 active torsions:
REMARK  status: ('A' for Active; 'I' for Inactive)
REMARK    1  A    between atoms: C_2  and  C_17
REMARK    2  A    between atoms: N_3  and  C_4
REMARK    3  A    between atoms: C_4  and  C_5
REMARK    4  A    between atoms: C_8  and  N_9
REMARK    5  A    between atoms: C_19  and  C_20
REMARK                            x       y       z     vdW  Elec       q    Type
REMARK                         _______ _______ _______ _____ _____    ______ ____
ROOT
ATOM      1  O   UNL     1       2.841   8.652  16.930  0.00  0.00    +0.000 OA
ATOM      2  C   UNL     1       2.532   8.308  18.061  0.00  0.00    +0.000 C 
ATOM      3  N   UNL     1       1.894   9.165  18.945  0.00  0.00    +0.000 N 
ATOM      4  H   UNL     1       1.667   8.871  19.882  0.00  0.00    +0.000 HD
ENDROOT
BRANCH   2   5
ATOM      5  C   UNL     1       2.848   6.921  18.562  0.00  0.00    +0.000 A 
ATOM      6  C   UNL     1       1.973   6.312  19.475  0.00  0.00    +0.000 A 
ATOM      7  C   UNL     1       2.235   5.023  19.924  0.00  0.00    +0.000 A 
ATOM      8  N   UNL     1       3.395   4.410  19.609  0.00  0.00    +0.000 NA
ATOM      9  C   UNL     1       4.286   5.014  18.815  0.00  0.00    +0.000 A 
ATOM     10  C   UNL     1       5.500   4.367  18.633  0.00  0.00    +0.000 A 
ATOM     11  C   UNL     1       6.502   4.897  17.823  0.00  0.00    +0.000 A 
ATOM     12  C   UNL     1       6.253   6.057  17.111  0.00  0.00    +0.000 A 
ATOM     13  C   UNL     1       5.032   6.719  17.274  0.00  0.00    +0.000 A 
ATOM     14  C   UNL     1       4.050   6.253  18.190  0.00  0.00    +0.000 A 
BRANCH   7  15
ATOM     15  C   UNL     1       1.223   4.194  20.677  0.00  0.00    +0.000 C 
ATOM     16  C   UNL     1       1.535   2.858  21.298  0.00  0.00    +0.000 C 
ATOM     17  C   UNL     1       0.690   2.924  20.053  0.00  0.00    +0.000 C 
ENDBRANCH   7  15
ENDBRANCH   2   5
BRANCH   3  18
ATOM     18  C   UNL     1       1.614  10.550  18.604  0.00  0.00    +0.000 C 
BRANCH  18  19
ATOM     19  C   UNL     1       0.131  10.828  18.557  0.00  0.00    +0.000 A 
ATOM     20  C   UNL     1      -0.403  12.009  19.078  0.00  0.00    +0.000 A 
ATOM     21  C   UNL     1      -1.787  12.266  19.019  0.00  0.00    +0.000 A 
ATOM     22  C   UNL     1      -2.681  11.350  18.460  0.00  0.00    +0.000 A 
ATOM     23  C   UNL     1      -2.138  10.164  17.942  0.00  0.00    +0.000 A 
ATOM     24  C   UNL     1      -0.753   9.910  17.983  0.00  0.00    +0.000 A 
BRANCH  22  25
ATOM     25  N   UNL     1      -4.091  11.596  18.419  0.00  0.00    +0.000 N 
ATOM     26  C   UNL     1      -4.818  12.149  19.541  0.00  0.00    +0.000 C 
ATOM     27  C   UNL     1      -6.279  11.973  19.184  0.00  0.00    +0.000 C 
ATOM     28  C   UNL     1      -6.293  12.001  17.670  0.00  0.00    +0.000 C 
ATOM     29  C   UNL     1      -4.918  11.507  17.288  0.00  0.00    +0.000 C 
ATOM     30  O   UNL     1      -4.647  11.141  16.154  0.00  0.00    +0.000 OA
ENDBRANCH  22  25
ENDBRANCH  18  19
ENDBRANCH   3  18
TORSDOF 5
ENDMDL
MODEL 3
REMARK VINA RESULT:      -8.7      0.926      1.473
REMARK  Name = 
REMARK  5 active torsions:
REMARK  status: ('A' for Active; 'I' for Inactive)
REMARK    1  A    between atoms: C_2  and  C_17
REMARK    2  A    between atoms: N_3  and  C_4
REMARK    3  A    between atoms: C_4  and  C_5
REMARK    4  A    between atoms: C_8  and  N_9
REMARK    5  A    between atoms: C_19  and  C_20
REMARK                            x       y       z     vdW  Elec       q    Type
REMARK                         _______ _______ _______ _____ _____    ______ ____
ROOT
ATOM      1  O   UNL     1       2.625   9.076  17.063  0.00  0.00    +0.000 OA
ATOM      2  C   UNL     1       2.294   8.597  18.137  0.00  0.00    +0.000 C 
ATOM      3  N   UNL     1       1.610   9.331  19.094  0.00  0.00    +0.000 N 
ATOM      4  H   UNL     1       1.366   8.926  19.983  0.00  0.00    +0.000 HD
ENDROOT
BRANCH   2   5
ATOM      5  C   UNL     1       2.635   7.169  18.486  0.00  0.00    +0.000 A 
ATOM      6  C   UNL     1       2.002   6.569  19.586  0.00  0.00    +0.000 A 
ATOM      7  C   UNL     1       2.284   5.246  19.904  0.00  0.00    +0.000 A 
ATOM      8  N   UNL     1       3.265   4.580  19.259  0.00  0.00    +0.000 NA
ATOM      9  C   UNL     1       3.946   5.169  18.269  0.00  0.00    +0.000 A 
ATOM     10  C   UNL     1       5.013   4.459  17.738  0.00  0.00    +0.000 A 
ATOM     11  C   UNL     1       5.790   4.967  16.700  0.00  0.00    +0.000 A 
ATOM     12  C   UNL     1       5.440   6.175  16.122  0.00  0.00    +0.000 A 
ATOM     13  C   UNL     1       4.361   6.901  16.637  0.00  0.00    +0.000 A 
ATOM     14  C   UNL     1       3.637   6.449  17.774  0.00  0.00    +0.000 A 
BRANCH   7  15
ATOM     15  C   UNL     1       1.460   4.443  20.880  0.00  0.00    +0.000 C 
ATOM     16  C   UNL     1       1.951   3.186  21.551  0.00  0.00    +0.000 C 
ATOM     17  C   UNL     1       0.914   3.097  20.463  0.00  0.00    +0.000 C 
ENDBRANCH   7  15
ENDBRANCH   2   5
BRANCH   3  18
ATOM     18  C   UNL     1       1.301  10.739  18.903  0.00  0.00    +0.000 C 
BRANCH  18  19
ATOM     19  C   UNL     1      -0.186  10.981  18.818  0.00  0.00    +0.000 A 
ATOM     20  C   UNL     1      -0.792  12.033  19.511  0.00  0.00    +0.000 A 
ATOM     21  C   UNL     1      -2.179  12.259  19.415  0.00  0.00    +0.000 A 
ATOM     22  C   UNL     1      -3.007  11.437  18.647  0.00  0.00    +0.000 A 
ATOM     23  C   UNL     1      -2.392  10.381  17.957  0.00  0.00    +0.000 A 
ATOM     24  C   UNL     1      -1.003  10.161  18.035  0.00  0.00    +0.000 A 
BRANCH  22  25
ATOM     25  N   UNL     1      -4.420  11.649  18.565  0.00  0.00    +0.000 N 
ATOM     26  C   UNL     1      -5.193  11.305  17.391  0.00  0.00    +0.000 C 
ATOM     27  C   UNL     1      -6.546  11.948  17.611  0.00  0.00    +0.000 C 
ATOM     28  C   UNL     1      -6.690  11.992  19.118  0.00  0.00    +0.000 C 
ATOM     29  C   UNL     1      -5.264  12.044  19.615  0.00  0.00    +0.000 C 
ATOM     30  O   UNL     1      -4.983  12.355  20.763  0.00  0.00    +0.000 OA
ENDBRANCH  22  25
ENDBRANCH  18  19
ENDBRANCH   3  18
TORSDOF 5
ENDMDL
MODEL 4
REMARK VINA RESULT:      -8.6      2.285      8.957
REMARK  Name = 
REMARK  5 active torsions:
REMARK  status: ('A' for Active; 'I' for Inactive)
REMARK    1  A    between atoms: C_2  and  C_17
REMARK    2  A    between atoms: N_3  and  C_4
REMARK    3  A    between atoms: C_4  and  C_5
REMARK    4  A    between atoms: C_8  and  N_9
REMARK    5  A    between atoms: C_19  and  C_20
REMARK                            x       y       z     vdW  Elec       q    Type
REMARK                         _______ _______ _______ _____ _____    ______ ____
ROOT
ATOM      1  O   UNL     1       0.510  11.970  20.016  0.00  0.00    +0.000 OA
ATOM      2  C   UNL     1      -0.451  11.244  20.223  0.00  0.00    +0.000 C 
ATOM      3  N   UNL     1      -0.340  10.054  20.926  0.00  0.00    +0.000 N 
ATOM      4  H   UNL     1      -1.139   9.457  21.067  0.00  0.00    +0.000 HD
ENDROOT
BRANCH   2   5
ATOM      5  C   UNL     1      -1.819  11.604  19.701  0.00  0.00    +0.000 A 
ATOM      6  C   UNL     1      -2.679  12.359  20.513  0.00  0.00    +0.000 A 
ATOM      7  C   UNL     1      -3.933  12.723  20.035  0.00  0.00    +0.000 A 
ATOM      8  N   UNL     1      -4.388  12.235  18.862  0.00  0.00    +0.000 NA
ATOM      9  C   UNL     1      -3.617  11.434  18.117  0.00  0.00    +0.000 A 
ATOM     10  C   UNL     1      -4.200  10.883  16.986  0.00  0.00    +0.000 A 
ATOM     11  C   UNL     1      -3.493  10.041  16.131  0.00  0.00    +0.000 A 
ATOM     12  C   UNL     1      -2.149   9.812  16.365  0.00  0.00    +0.000 A 
ATOM     13  C   UNL     1      -1.541  10.367  17.495  0.00  0.00    +0.000 A 
ATOM     14  C   UNL     1      -2.281  11.128  18.440  0.00  0.00    +0.000 A 
BRANCH   7  15
ATOM     15  C   UNL     1      -4.803  13.753  20.713  0.00  0.00    +0.000 C 
ATOM     16  C   UNL     1      -4.784  14.014  22.197  0.00  0.00    +0.000 C 
ATOM     17  C   UNL     1      -5.956  13.299  21.579  0.00  0.00    +0.000 C 
ENDBRANCH   7  15
ENDBRANCH   2   5
BRANCH   3  18
ATOM     18  C   UNL     1       0.943   9.563  21.405  0.00  0.00    +0.000 C 
BRANCH  18  19
ATOM     19  C   UNL     1       1.458   8.424  20.561  0.00  0.00    +0.000 A 
ATOM     20  C   UNL     1       1.862   8.625  19.238  0.00  0.00    +0.000 A 
ATOM     21  C   UNL     1       2.354   7.557  18.461  0.00  0.00    +0.000 A 
ATOM     22  C   UNL     1       2.441   6.259  18.967  0.00  0.00    +0.000 A 
ATOM     23  C   UNL     1       2.032   6.064  20.295  0.00  0.00    +0.000 A 
ATOM     24  C   UNL     1       1.555   7.131  21.082  0.00  0.00    +0.000 A 
BRANCH  22  25
ATOM     25  N   UNL     1       2.919   5.167  18.174  0.00  0.00    +0.000 N 
ATOM     26  C   UNL     1       4.326   4.848  18.055  0.00  0.00    +0.000 C 
ATOM     27  C   UNL     1       4.405   3.843  16.925  0.00  0.00    +0.000 C 
ATOM     28  C   UNL     1       3.060   3.147  16.959  0.00  0.00    +0.000 C 
ATOM     29  C   UNL     1       2.134   4.182  17.556  0.00  0.00    +0.000 C 
ATOM     30  O   UNL     1       0.918   4.082  17.495  0.00  0.00    +0.000 OA
ENDBRANCH  22  25
ENDBRANCH  18  19
ENDBRANCH   3  18
TORSDOF 5
ENDMDL
MODEL 5
REMARK VINA RESULT:      -8.5      2.169      9.025
REMARK  Name = 
REMARK  5 active torsions:
REMARK  status: ('A' for Active; 'I' for Inactive)
REMARK    1  A    between atoms: C_2  and  C_17
REMARK    2  A    between atoms: N_3  and  C_4
REMARK    3  A    between atoms: C_4  and  C_5
REMARK    4  A    between atoms: C_8  and  N_9
REMARK    5  A    between atoms: C_19  and  C_20
REMARK                            x       y       z     vdW  Elec       q    Type
REMARK                         _______ _______ _______ _____ _____    ______ ____
ROOT
ATOM      1  O   UNL     1       0.231  12.283  19.378  0.00  0.00    +0.000 OA
ATOM      2  C   UNL     1      -0.676  11.584  19.807  0.00  0.00    +0.000 C 
ATOM      3  N   UNL     1      -0.446  10.520  20.665  0.00  0.00    +0.000 N 
ATOM      4  H   UNL     1      -1.203   9.940  20.990  0.00  0.00    +0.000 HD
ENDROOT
BRANCH   2   5
ATOM      5  C   UNL     1      -2.107  11.839  19.403  0.00  0.00    +0.000 A 
ATOM      6  C   UNL     1      -2.983  12.416  20.335  0.00  0.00    +0.000 A 
ATOM      7  C   UNL     1      -4.297  12.684  19.969  0.00  0.00    +0.000 A 
ATOM      8  N   UNL     1      -4.778  12.261  18.782  0.00  0.00    +0.000 NA
ATOM      9  C   UNL     1      -3.981  11.624  17.917  0.00  0.00    +0.000 A 
ATOM     10  C   UNL     1      -4.579  11.121  16.771  0.00  0.00    +0.000 A 
ATOM     11  C   UNL     1      -3.849  10.445  15.796  0.00  0.00    +0.000 A 
ATOM     12  C   UNL     1      -2.475  10.344  15.928  0.00  0.00    +0.000 A 
ATOM     13  C   UNL     1      -1.852  10.854  17.072  0.00  0.00    +0.000 A 
ATOM     14  C   UNL     1      -2.602  11.437  18.130  0.00  0.00    +0.000 A 
BRANCH   7  15
ATOM     15  C   UNL     1      -5.221  13.544  20.798  0.00  0.00    +0.000 C 
ATOM     16  C   UNL     1      -4.850  14.112  22.142  0.00  0.00    +0.000 C 
ATOM     17  C   UNL     1      -5.835  12.977  22.057  0.00  0.00    +0.000 C 
ENDBRANCH   7  15
ENDBRANCH   2   5
BRANCH   3  18
ATOM     18  C   UNL     1       0.899  10.127  21.057  0.00  0.00    +0.000 C 
BRANCH  18  19
ATOM     19  C   UNL     1       1.367   8.905  20.306  0.00  0.00    +0.000 A 
ATOM     20  C   UNL     1       1.522   7.673  20.948  0.00  0.00    +0.000 A 
ATOM     21  C   UNL     1       1.948   6.534  20.236  0.00  0.00    +0.000 A 
ATOM     22  C   UNL     1       2.250   6.589  18.873  0.00  0.00    +0.000 A 
ATOM     23  C   UNL     1       2.095   7.830  18.236  0.00  0.00    +0.000 A 
ATOM     24  C   UNL     1       1.654   8.968  18.939  0.00  0.00    +0.000 A 
BRANCH  22  25
ATOM     25  N   UNL     1       2.705   5.440  18.152  0.00  0.00    +0.000 N 
ATOM     26  C   UNL     1       1.809   4.393  17.709  0.00  0.00    +0.000 C 
ATOM     27  C   UNL     1       2.715   3.266  17.262  0.00  0.00    +0.000 C 
ATOM     28  C   UNL     1       3.982   3.967  16.819  0.00  0.00    +0.000 C 
ATOM     29  C   UNL     1       3.994   5.238  17.635  0.00  0.00    +0.000 C 
ATOM     30  O   UNL     1       4.994   5.933  17.748  0.00  0.00    +0.000 OA
ENDBRANCH  22  25
ENDBRANCH  18  19
ENDBRANCH   3  18
TORSDOF 5
ENDMDL
MODEL 6
REMARK VINA RESULT:      -8.5      3.754      5.972
REMARK  Name = 
REMARK  5 active torsions:
REMARK  status: ('A' for Active; 'I' for Inactive)
REMARK    1  A    between atoms: C_2  and  C_17
REMARK    2  A    between atoms: N_3  and  C_4
REMARK    3  A    between atoms: C_4  and  C_5
REMARK    4  A    between atoms: C_8  and  N_9
REMARK    5  A    between atoms: C_19  and  C_20
REMARK                            x       y       z     vdW  Elec       q    Type
REMARK                         _______ _______ _______ _____ _____    ______ ____
ROOT
ATOM      1  O   UNL     1       1.870   7.720  19.771  0.00  0.00    +0.000 OA
ATOM      2  C   UNL     1       2.309   7.748  18.631  0.00  0.00    +0.000 C 
ATOM      3  N   UNL     1       1.877   8.676  17.696  0.00  0.00    +0.000 N 
ATOM      4  H   UNL     1       2.234   8.670  16.754  0.00  0.00    +0.000 HD
ENDROOT
BRANCH   2   5
ATOM      5  C   UNL     1       3.344   6.749  18.176  0.00  0.00    +0.000 A 
ATOM      6  C   UNL     1       4.608   7.213  17.780  0.00  0.00    +0.000 A 
ATOM      7  C   UNL     1       5.582   6.304  17.385  0.00  0.00    +0.000 A 
ATOM      8  N   UNL     1       5.279   4.997  17.235  0.00  0.00    +0.000 NA
ATOM      9  C   UNL     1       4.050   4.550  17.517  0.00  0.00    +0.000 A 
ATOM     10  C   UNL     1       3.789   3.219  17.228  0.00  0.00    +0.000 A 
ATOM     11  C   UNL     1       2.547   2.641  17.484  0.00  0.00    +0.000 A 
ATOM     12  C   UNL     1       1.572   3.387  18.123  0.00  0.00    +0.000 A 
ATOM     13  C   UNL     1       1.821   4.728  18.431  0.00  0.00    +0.000 A 
ATOM     14  C   UNL     1       3.039   5.362  18.065  0.00  0.00    +0.000 A 
BRANCH   7  15
ATOM     15  C   UNL     1       7.034   6.678  17.212  0.00  0.00    +0.000 C 
ATOM     16  C   UNL     1       7.970   6.941  18.362  0.00  0.00    +0.000 C 
ATOM     17  C   UNL     1       7.479   8.089  17.522  0.00  0.00    +0.000 C 
ENDBRANCH   7  15
ENDBRANCH   2   5
BRANCH   3  18
ATOM     18  C   UNL     1       0.824   9.633  17.995  0.00  0.00    +0.000 C 
BRANCH  18  19
ATOM     19  C   UNL     1       1.374  10.903  18.596  0.00  0.00    +0.000 A 
ATOM     20  C   UNL     1       1.000  11.323  19.875  0.00  0.00    +0.000 A 
ATOM     21  C   UNL     1       1.529  12.504  20.433  0.00  0.00    +0.000 A 
ATOM     22  C   UNL     1       2.428  13.310  19.732  0.00  0.00    +0.000 A 
ATOM     23  C   UNL     1       2.797  12.883  18.447  0.00  0.00    +0.000 A 
ATOM     24  C   UNL     1       2.285  11.695  17.891  0.00  0.00    +0.000 A 
BRANCH  22  25
ATOM     25  N   UNL     1       2.950  14.522  20.286  0.00  0.00    +0.000 N 
ATOM     26  C   UNL     1       2.580  15.830  19.788  0.00  0.00    +0.000 C 
ATOM     27  C   UNL     1       3.556  16.787  20.439  0.00  0.00    +0.000 C 
ATOM     28  C   UNL     1       3.923  16.107  21.742  0.00  0.00    +0.000 C 
ATOM     29  C   UNL     1       3.729  14.638  21.448  0.00  0.00    +0.000 C 
ATOM     30  O   UNL     1       4.180  13.762  22.172  0.00  0.00    +0.000 OA
ENDBRANCH  22  25
ENDBRANCH  18  19
ENDBRANCH   3  18
TORSDOF 5
ENDMDL
MODEL 7
REMARK VINA RESULT:      -8.5      1.567      3.510
REMARK  Name = 
REMARK  5 active torsions:
REMARK  status: ('A' for Active; 'I' for Inactive)
REMARK    1  A    between atoms: C_2  and  C_17
REMARK    2  A    between atoms: N_3  and  C_4
REMARK    3  A    between atoms: C_4  and  C_5
REMARK    4  A    between atoms: C_8  and  N_9
REMARK    5  A    between atoms: C_19  and  C_20
REMARK                            x       y       z     vdW  Elec       q    Type
REMARK                         _______ _______ _______ _____ _____    ______ ____
ROOT
ATOM      1  O   UNL     1       1.625   7.681  21.312  0.00  0.00    +0.000 OA
ATOM      2  C   UNL     1       1.846   7.918  20.134  0.00  0.00    +0.000 C 
ATOM      3  N   UNL     1       1.586   9.158  19.569  0.00  0.00    +0.000 N 
ATOM      4  H   UNL     1       1.752   9.328  18.590  0.00  0.00    +0.000 HD
ENDROOT
BRANCH   2   5
ATOM      5  C   UNL     1       2.401   6.854  19.220  0.00  0.00    +0.000 A 
ATOM      6  C   UNL     1       3.228   7.239  18.154  0.00  0.00    +0.000 A 
ATOM      7  C   UNL     1       3.772   6.268  17.320  0.00  0.00    +0.000 A 
ATOM      8  N   UNL     1       3.395   4.977  17.434  0.00  0.00    +0.000 NA
ATOM      9  C   UNL     1       2.532   4.606  18.387  0.00  0.00    +0.000 A 
ATOM     10  C   UNL     1       2.108   3.285  18.363  0.00  0.00    +0.000 A 
ATOM     11  C   UNL     1       1.216   2.783  19.308  0.00  0.00    +0.000 A 
ATOM     12  C   UNL     1       0.805   3.595  20.350  0.00  0.00    +0.000 A 
ATOM     13  C   UNL     1       1.230   4.927  20.396  0.00  0.00    +0.000 A 
ATOM     14  C   UNL     1       2.042   5.484  19.371  0.00  0.00    +0.000 A 
BRANCH   7  15
ATOM     15  C   UNL     1       4.878   6.558  16.335  0.00  0.00    +0.000 C 
ATOM     16  C   UNL     1       5.696   5.488  15.661  0.00  0.00    +0.000 C 
ATOM     17  C   UNL     1       6.315   6.332  16.742  0.00  0.00    +0.000 C 
ENDBRANCH   7  15
ENDBRANCH   2   5
BRANCH   3  18
ATOM     18  C   UNL     1       0.972  10.234  20.330  0.00  0.00    +0.000 C 
BRANCH  18  19
ATOM     19  C   UNL     1      -0.382  10.610  19.779  0.00  0.00    +0.000 A 
ATOM     20  C   UNL     1      -0.904   9.982  18.646  0.00  0.00    +0.000 A 
ATOM     21  C   UNL     1      -2.175  10.331  18.146  0.00  0.00    +0.000 A 
ATOM     22  C   UNL     1      -2.953  11.324  18.744  0.00  0.00    +0.000 A 
ATOM     23  C   UNL     1      -2.420  11.952  19.880  0.00  0.00    +0.000 A 
ATOM     24  C   UNL     1      -1.158  11.596  20.394  0.00  0.00    +0.000 A 
BRANCH  22  25
ATOM     25  N   UNL     1      -4.234  11.697  18.226  0.00  0.00    +0.000 N 
ATOM     26  C   UNL     1      -4.520  11.734  16.808  0.00  0.00    +0.000 C 
ATOM     27  C   UNL     1      -5.855  12.442  16.697  0.00  0.00    +0.000 C 
ATOM     28  C   UNL     1      -6.545  12.131  18.008  0.00  0.00    +0.000 C 
ATOM     29  C   UNL     1      -5.403  11.910  18.973  0.00  0.00    +0.000 C 
ATOM     30  O   UNL     1      -5.564  11.899  20.184  0.00  0.00    +0.000 OA
ENDBRANCH  22  25
ENDBRANCH  18  19
ENDBRANCH   3  18
TORSDOF 5
ENDMDL
MODEL 8
REMARK VINA RESULT:      -8.5      2.449      2.960
REMARK  Name = 
REMARK  5 active torsions:
REMARK  status: ('A' for Active; 'I' for Inactive)
REMARK    1  A    between atoms: C_2  and  C_17
REMARK    2  A    between atoms: N_3  and  C_4
REMARK    3  A    between atoms: C_4  and  C_5
REMARK    4  A    between atoms: C_8  and  N_9
REMARK    5  A    between atoms: C_19  and  C_20
REMARK                            x       y       z     vdW  Elec       q    Type
REMARK                         _______ _______ _______ _____ _____    ______ ____
ROOT
ATOM      1  O   UNL     1       2.787   8.543  16.942  0.00  0.00    +0.000 OA
ATOM      2  C   UNL     1       2.473   8.195  18.071  0.00  0.00    +0.000 C 
ATOM      3  N   UNL     1       1.677   8.981  18.891  0.00  0.00    +0.000 N 
ATOM      4  H   UNL     1       1.447   8.689  19.827  0.00  0.00    +0.000 HD
ENDROOT
BRANCH   2   5
ATOM      5  C   UNL     1       2.956   6.885  18.641  0.00  0.00    +0.000 A 
ATOM      6  C   UNL     1       2.222   6.281  19.673  0.00  0.00    +0.000 A 
ATOM      7  C   UNL     1       2.638   5.059  20.189  0.00  0.00    +0.000 A 
ATOM      8  N   UNL     1       3.818   4.522  19.813  0.00  0.00    +0.000 NA
ATOM      9  C   UNL     1       4.578   5.133  18.898  0.00  0.00    +0.000 A 
ATOM     10  C   UNL     1       5.826   4.577  18.652  0.00  0.00    +0.000 A 
ATOM     11  C   UNL     1       6.702   5.122  17.716  0.00  0.00    +0.000 A 
ATOM     12  C   UNL     1       6.288   6.196  16.947  0.00  0.00    +0.000 A 
ATOM     13  C   UNL     1       5.030   6.764  17.173  0.00  0.00    +0.000 A 
ATOM     14  C   UNL     1       4.177   6.293  18.208  0.00  0.00    +0.000 A 
BRANCH   7  15
ATOM     15  C   UNL     1       1.774   4.212  21.091  0.00  0.00    +0.000 C 
ATOM     16  C   UNL     1       2.107   2.793  21.473  0.00  0.00    +0.000 C 
ATOM     17  C   UNL     1       0.988   3.063  20.503  0.00  0.00    +0.000 C 
ENDBRANCH   7  15
ENDBRANCH   2   5
BRANCH   3  18
ATOM     18  C   UNL     1       1.221  10.300  18.482  0.00  0.00    +0.000 C 
BRANCH  18  19
ATOM     19  C   UNL     1       0.274  10.904  19.489  0.00  0.00    +0.000 A 
ATOM     20  C   UNL     1      -0.951  11.450  19.096  0.00  0.00    +0.000 A 
ATOM     21  C   UNL     1      -1.836  12.000  20.046  0.00  0.00    +0.000 A 
ATOM     22  C   UNL     1      -1.522  12.041  21.406  0.00  0.00    +0.000 A 
ATOM     23  C   UNL     1      -0.290  11.492  21.792  0.00  0.00    +0.000 A 
ATOM     24  C   UNL     1       0.591  10.926  20.849  0.00  0.00    +0.000 A 
BRANCH  22  25
ATOM     25  N   UNL     1      -2.408  12.619  22.370  0.00  0.00    +0.000 N 
ATOM     26  C   UNL     1      -2.859  11.900  23.543  0.00  0.00    +0.000 C 
ATOM     27  C   UNL     1      -3.976  12.748  24.115  0.00  0.00    +0.000 C 
ATOM     28  C   UNL     1      -3.624  14.157  23.686  0.00  0.00    +0.000 C 
ATOM     29  C   UNL     1      -2.823  13.959  22.421  0.00  0.00    +0.000 C 
ATOM     30  O   UNL     1      -2.592  14.873  21.644  0.00  0.00    +0.000 OA
ENDBRANCH  22  25
ENDBRANCH  18  19
ENDBRANCH   3  18
TORSDOF 5
ENDMDL
MODEL 9
REMARK VINA RESULT:      -8.5      2.623      3.164
REMARK  Name = 
REMARK  5 active torsions:
REMARK  status: ('A' for Active; 'I' for Inactive)
REMARK    1  A    between atoms: C_2  and  C_17
REMARK    2  A    between atoms: N_3  and  C_4
REMARK    3  A    between atoms: C_4  and  C_5
REMARK    4  A    between atoms: C_8  and  N_9
REMARK    5  A    between atoms: C_19  and  C_20
REMARK                            x       y       z     vdW  Elec       q    Type
REMARK                         _______ _______ _______ _____ _____    ______ ____
ROOT
ATOM      1  O   UNL     1       2.941   8.660  16.915  0.00  0.00    +0.000 OA
ATOM      2  C   UNL     1       2.483   8.238  17.966  0.00  0.00    +0.000 C 
ATOM      3  N   UNL     1       1.509   8.924  18.675  0.00  0.00    +0.000 N 
ATOM      4  H   UNL     1       1.159   8.573  19.552  0.00  0.00    +0.000 HD
ENDROOT
BRANCH   2   5
ATOM      5  C   UNL     1       2.976   6.942  18.561  0.00  0.00    +0.000 A 
ATOM      6  C   UNL     1       2.253   6.360  19.613  0.00  0.00    +0.000 A 
ATOM      7  C   UNL     1       2.677   5.151  20.153  0.00  0.00    +0.000 A 
ATOM      8  N   UNL     1       3.855   4.609  19.778  0.00  0.00    +0.000 NA
ATOM      9  C   UNL     1       4.605   5.201  18.843  0.00  0.00    +0.000 A 
ATOM     10  C   UNL     1       5.852   4.643  18.598  0.00  0.00    +0.000 A 
ATOM     11  C   UNL     1       6.718   5.169  17.643  0.00  0.00    +0.000 A 
ATOM     12  C   UNL     1       6.294   6.225  16.853  0.00  0.00    +0.000 A 
ATOM     13  C   UNL     1       5.037   6.793  17.078  0.00  0.00    +0.000 A 
ATOM     14  C   UNL     1       4.194   6.344  18.131  0.00  0.00    +0.000 A 
BRANCH   7  15
ATOM     15  C   UNL     1       1.824   4.321  21.082  0.00  0.00    +0.000 C 
ATOM     16  C   UNL     1       2.149   2.903  21.470  0.00  0.00    +0.000 C 
ATOM     17  C   UNL     1       1.013   3.176  20.522  0.00  0.00    +0.000 C 
ENDBRANCH   7  15
ENDBRANCH   2   5
BRANCH   3  18
ATOM     18  C   UNL     1       1.018  10.223  18.244  0.00  0.00    +0.000 C 
BRANCH  18  19
ATOM     19  C   UNL     1       0.160  10.877  19.299  0.00  0.00    +0.000 A 
ATOM     20  C   UNL     1       0.080  10.358  20.594  0.00  0.00    +0.000 A 
ATOM     21  C   UNL     1      -0.714  10.984  21.576  0.00  0.00    +0.000 A 
ATOM     22  C   UNL     1      -1.465  12.127  21.296  0.00  0.00    +0.000 A 
ATOM     23  C   UNL     1      -1.381  12.641  19.993  0.00  0.00    +0.000 A 
ATOM     24  C   UNL     1      -0.576  12.030  19.012  0.00  0.00    +0.000 A 
BRANCH  22  25
ATOM     25  N   UNL     1      -2.290  12.752  22.285  0.00  0.00    +0.000 N 
ATOM     26  C   UNL     1      -3.722  12.551  22.345  0.00  0.00    +0.000 C 
ATOM     27  C   UNL     1      -4.223  13.594  23.321  0.00  0.00    +0.000 C 
ATOM     28  C   UNL     1      -3.048  13.822  24.249  0.00  0.00    +0.000 C 
ATOM     29  C   UNL     1      -1.846  13.483  23.398  0.00  0.00    +0.000 C 
ATOM     30  O   UNL     1      -0.710  13.801  23.716  0.00  0.00    +0.000 OA
ENDBRANCH  22  25
ENDBRANCH  18  19
ENDBRANCH   3  18
TORSDOF 5
ENDMDL
