MODEL 1
REMARK VINA RESULT:      -9.3      0.000      0.000
REMARK  Name = 
REMARK  5 active torsions:
REMARK  status: ('A' for Active; 'I' for Inactive)
REMARK    1  A    between atoms: C_1  and  C_2
REMARK    2  A    between atoms: C_2  and  C_3
REMARK    3  A    between atoms: N_15  and  C_16
REMARK    4  A    between atoms: C_16  and  C_17
REMARK    5  A    between atoms: C_19  and  C_20
REMARK                            x       y       z     vdW  Elec       q    Type
REMARK                         _______ _______ _______ _____ _____    ______ ____
ROOT
ATOM      1  C   UNL     1       3.047   3.341  17.821  0.00  0.00    +0.000 C 
ATOM      2  C   UNL     1       3.985   4.531  17.680  0.00  0.00    +0.000 C 
ATOM      3  N   UNL     1       4.476   4.653  16.322  0.00  0.00    +0.000 N 
ATOM      4  C   UNL     1       5.808   5.007  16.303  0.00  0.00    +0.000 C 
ATOM      5  O   UNL     1       6.382   5.441  15.319  0.00  0.00    +0.000 OA
ATOM      6  N   UNL     1       6.314   4.838  17.549  0.00  0.00    +0.000 N 
ATOM      7  C   UNL     1       5.352   4.350  18.390  0.00  0.00    +0.000 C 
ATOM      8  O   UNL     1       5.521   3.996  19.550  0.00  0.00    +0.000 OA
ATOM      9  H   UNL     1       3.897   4.847  15.516  0.00  0.00    +0.000 HD
ENDROOT
BRANCH   2  10
ATOM     10  C   UNL     1       3.362   5.836  18.208  0.00  0.00    +0.000 A 
ATOM     11  C   UNL     1       3.353   6.989  17.374  0.00  0.00    +0.000 A 
ATOM     12  C   UNL     1       2.717   8.173  17.763  0.00  0.00    +0.000 A 
ATOM     13  C   UNL     1       2.101   8.191  18.992  0.00  0.00    +0.000 A 
ATOM     14  C   UNL     1       2.098   7.090  19.812  0.00  0.00    +0.000 A 
ATOM     15  C   UNL     1       2.712   5.908  19.455  0.00  0.00    +0.000 A 
ATOM     16  O   UNL     1       1.421   7.308  20.971  0.00  0.00    +0.000 OA
ATOM     17  C   UNL     1       1.044   8.691  20.807  0.00  0.00    +0.000 C 
ATOM     18  O   UNL     1       1.431   9.243  19.532  0.00  0.00    +0.000 OA
ENDBRANCH   2  10
BRANCH   6  19
ATOM     19  C   UNL     1       7.611   5.296  17.977  0.00  0.00    +0.000 C 
BRANCH  19  20
ATOM     20  C   UNL     1       7.741   6.765  17.927  0.00  0.00    +0.000 A 
ATOM     21  N   UNL     1       8.570   7.589  18.528  0.00  0.00    +0.000 NA
ATOM     22  C   UNL     1       8.118   8.823  18.103  0.00  0.00    +0.000 A 
ATOM     23  N   UNL     1       7.075   8.757  17.258  0.00  0.00    +0.000 NA
ATOM     24  O   UNL     1       6.829   7.401  17.137  0.00  0.00    +0.000 OA
BRANCH  22  25
ATOM     25  C   UNL     1       8.707  10.071  18.566  0.00  0.00    +0.000 A 
ATOM     26  C   UNL     1       8.702  11.204  17.743  0.00  0.00    +0.000 A 
ATOM     27  C   UNL     1       9.290  12.395  18.174  0.00  0.00    +0.000 A 
ATOM     28  C   UNL     1       9.891  12.465  19.430  0.00  0.00    +0.000 A 
ATOM     29  C   UNL     1       9.899  11.345  20.259  0.00  0.00    +0.000 A 
ATOM     30  C   UNL     1       9.311  10.155  19.831  0.00  0.00    +0.000 A 
ENDBRANCH  22  25
ENDBRANCH  19  20
ENDBRANCH   6  19
TORSDOF 4
ENDMDL
MODEL 2
REMARK VINA RESULT:      -9.3      0.856      1.235
REMARK  Name = 
REMARK  5 active torsions:
REMARK  status: ('A' for Active; 'I' for Inactive)
REMARK    1  A    between atoms: C_1  and  C_2
REMARK    2  A    between atoms: C_2  and  C_3
REMARK    3  A    between atoms: N_15  and  C_16
REMARK    4  A    between atoms: C_16  and  C_17
REMARK    5  A    between atoms: C_19  and  C_20
REMARK                            x       y       z     vdW  Elec       q    Type
REMARK                         _______ _______ _______ _____ _____    ______ ____
ROOT
ATOM      1  C   UNL     1       2.680   3.505  19.202  0.00  0.00    +0.000 C 
ATOM      2  C   UNL     1       3.643   4.425  18.467  0.00  0.00    +0.000 C 
ATOM      3  N   UNL     1       3.877   3.965  17.113  0.00  0.00    +0.000 N 
ATOM      4  C   UNL     1       5.200   4.114  16.757  0.00  0.00    +0.000 C 
ATOM      5  O   UNL     1       5.603   4.070  15.607  0.00  0.00    +0.000 OA
ATOM      6  N   UNL     1       5.920   4.363  17.878  0.00  0.00    +0.000 N 
ATOM      7  C   UNL     1       5.106   4.353  18.977  0.00  0.00    +0.000 C 
ATOM      8  O   UNL     1       5.468   4.443  20.143  0.00  0.00    +0.000 OA
ATOM      9  H   UNL     1       3.170   3.913  16.392  0.00  0.00    +0.000 HD
ENDROOT
BRANCH   2  10
ATOM     10  C   UNL     1       3.207   5.900  18.527  0.00  0.00    +0.000 A 
ATOM     11  C   UNL     1       3.468   6.748  17.415  0.00  0.00    +0.000 A 
ATOM     12  C   UNL     1       3.012   8.070  17.376  0.00  0.00    +0.000 A 
ATOM     13  C   UNL     1       2.301   8.532  18.458  0.00  0.00    +0.000 A 
ATOM     14  C   UNL     1       2.039   7.731  19.542  0.00  0.00    +0.000 A 
ATOM     15  C   UNL     1       2.472   6.423  19.609  0.00  0.00    +0.000 A 
ATOM     16  O   UNL     1       1.310   8.370  20.495  0.00  0.00    +0.000 OA
ATOM     17  C   UNL     1       1.190   9.682  19.908  0.00  0.00    +0.000 C 
ATOM     18  O   UNL     1       1.776   9.778  18.594  0.00  0.00    +0.000 OA
ENDBRANCH   2  10
BRANCH   6  19
ATOM     19  C   UNL     1       7.299   4.780  17.892  0.00  0.00    +0.000 C 
BRANCH  19  20
ATOM     20  C   UNL     1       7.453   6.241  17.756  0.00  0.00    +0.000 A 
ATOM     21  N   UNL     1       8.240   7.097  18.367  0.00  0.00    +0.000 NA
ATOM     22  C   UNL     1       7.842   8.303  17.825  0.00  0.00    +0.000 A 
ATOM     23  N   UNL     1       6.872   8.189  16.902  0.00  0.00    +0.000 NA
ATOM     24  O   UNL     1       6.618   6.830  16.852  0.00  0.00    +0.000 OA
BRANCH  22  25
ATOM     25  C   UNL     1       8.408   9.574  18.252  0.00  0.00    +0.000 A 
ATOM     26  C   UNL     1       9.163   9.652  19.430  0.00  0.00    +0.000 A 
ATOM     27  C   UNL     1       9.685  10.875  19.857  0.00  0.00    +0.000 A 
ATOM     28  C   UNL     1       9.456  12.031  19.114  0.00  0.00    +0.000 A 
ATOM     29  C   UNL     1       8.710  11.966  17.939  0.00  0.00    +0.000 A 
ATOM     30  C   UNL     1       8.189  10.746  17.510  0.00  0.00    +0.000 A 
ENDBRANCH  22  25
ENDBRANCH  19  20
ENDBRANCH   6  19
TORSDOF 4
ENDMDL
MODEL 3
REMARK VINA RESULT:      -9.1      0.814      1.427
REMARK  Name = 
REMARK  5 active torsions:
REMARK  status: ('A' for Active; 'I' for Inactive)
REMARK    1  A    between atoms: C_1  and  C_2
REMARK    2  A    between atoms: C_2  and  C_3
REMARK    3  A    between atoms: N_15  and  C_16
REMARK    4  A    between atoms: C_16  and  C_17
REMARK    5  A    between atoms: C_19  and  C_20
REMARK                            x       y       z     vdW  Elec       q    Type
REMARK                         _______ _______ _______ _____ _____    ______ ____
ROOT
ATOM      1  C   UNL     1       2.892   2.855  18.271  0.00  0.00    +0.000 C 
ATOM      2  C   UNL     1       3.805   4.030  17.954  0.00  0.00    +0.000 C 
ATOM      3  N   UNL     1       4.248   3.993  16.575  0.00  0.00    +0.000 N 
ATOM      4  C   UNL     1       5.573   4.358  16.466  0.00  0.00    +0.000 C 
ATOM      5  O   UNL     1       6.105   4.677  15.417  0.00  0.00    +0.000 OA
ATOM      6  N   UNL     1       6.123   4.349  17.705  0.00  0.00    +0.000 N 
ATOM      7  C   UNL     1       5.198   3.954  18.632  0.00  0.00    +0.000 C 
ATOM      8  O   UNL     1       5.412   3.746  19.820  0.00  0.00    +0.000 OA
ATOM      9  H   UNL     1       3.639   4.080  15.772  0.00  0.00    +0.000 HD
ENDROOT
BRANCH   2  10
ATOM     10  C   UNL     1       3.178   5.382  18.342  0.00  0.00    +0.000 A 
ATOM     11  C   UNL     1       2.655   5.555  19.654  0.00  0.00    +0.000 A 
ATOM     12  C   UNL     1       2.161   6.788  20.091  0.00  0.00    +0.000 A 
ATOM     13  C   UNL     1       2.190   7.838  19.205  0.00  0.00    +0.000 A 
ATOM     14  C   UNL     1       2.690   7.693  17.934  0.00  0.00    +0.000 A 
ATOM     15  C   UNL     1       3.188   6.491  17.474  0.00  0.00    +0.000 A 
ATOM     16  O   UNL     1       2.646   8.851  17.224  0.00  0.00    +0.000 OA
ATOM     17  C   UNL     1       2.011   9.728  18.177  0.00  0.00    +0.000 C 
ATOM     18  O   UNL     1       1.762   9.104  19.453  0.00  0.00    +0.000 OA
ENDBRANCH   2  10
BRANCH   6  19
ATOM     19  C   UNL     1       7.426   4.871  18.028  0.00  0.00    +0.000 C 
BRANCH  19  20
ATOM     20  C   UNL     1       7.504   6.337  17.878  0.00  0.00    +0.000 A 
ATOM     21  N   UNL     1       8.311   7.227  18.411  0.00  0.00    +0.000 NA
ATOM     22  C   UNL     1       7.811   8.413  17.911  0.00  0.00    +0.000 A 
ATOM     23  N   UNL     1       6.760   8.256  17.088  0.00  0.00    +0.000 NA
ATOM     24  O   UNL     1       6.560   6.887  17.062  0.00  0.00    +0.000 OA
BRANCH  22  25
ATOM     25  C   UNL     1       8.362   9.709  18.282  0.00  0.00    +0.000 A 
ATOM     26  C   UNL     1       8.123  10.834  17.483  0.00  0.00    +0.000 A 
ATOM     27  C   UNL     1       8.673  12.073  17.821  0.00  0.00    +0.000 A 
ATOM     28  C   UNL     1       9.468  12.198  18.958  0.00  0.00    +0.000 A 
ATOM     29  C   UNL     1       9.709  11.087  19.764  0.00  0.00    +0.000 A 
ATOM     30  C   UNL     1       9.160   9.849  19.429  0.00  0.00    +0.000 A 
ENDBRANCH  22  25
ENDBRANCH  19  20
ENDBRANCH   6  19
TORSDOF 4
ENDMDL
MODEL 4
REMARK VINA RESULT:      -8.5      5.863      8.885
REMARK  Name = 
REMARK  5 active torsions:
REMARK  status: ('A' for Active; 'I' for Inactive)
REMARK    1  A    between atoms: C_1  and  C_2
REMARK    2  A    between atoms: C_2  and  C_3
REMARK    3  A    between atoms: N_15  and  C_16
REMARK    4  A    between atoms: C_16  and  C_17
REMARK    5  A    between atoms: C_19  and  C_20
REMARK                            x       y       z     vdW  Elec       q    Type
REMARK                         _______ _______ _______ _____ _____    ______ ____
ROOT
ATOM      1  C   UNL     1      -2.762  10.768  15.743  0.00  0.00    +0.000 C 
ATOM      2  C   UNL     1      -2.584  11.352  17.136  0.00  0.00    +0.000 C 
ATOM      3  N   UNL     1      -1.604  12.420  17.136  0.00  0.00    +0.000 N 
ATOM      4  C   UNL     1      -0.805  12.364  18.258  0.00  0.00    +0.000 C 
ATOM      5  O   UNL     1      -0.103  13.285  18.638  0.00  0.00    +0.000 OA
ATOM      6  N   UNL     1      -0.990  11.162  18.856  0.00  0.00    +0.000 N 
ATOM      7  C   UNL     1      -1.873  10.405  18.137  0.00  0.00    +0.000 C 
ATOM      8  O   UNL     1      -2.168   9.237  18.358  0.00  0.00    +0.000 OA
ATOM      9  H   UNL     1      -1.706  13.295  16.639  0.00  0.00    +0.000 HD
ENDROOT
BRANCH   2  10
ATOM     10  C   UNL     1      -3.922  11.772  17.772  0.00  0.00    +0.000 A 
ATOM     11  C   UNL     1      -5.092  11.816  16.964  0.00  0.00    +0.000 A 
ATOM     12  C   UNL     1      -6.350  12.098  17.507  0.00  0.00    +0.000 A 
ATOM     13  C   UNL     1      -6.422  12.340  18.858  0.00  0.00    +0.000 A 
ATOM     14  C   UNL     1      -5.305  12.303  19.657  0.00  0.00    +0.000 A 
ATOM     15  C   UNL     1      -4.051  12.024  19.152  0.00  0.00    +0.000 A 
ATOM     16  O   UNL     1      -5.591  12.552  20.962  0.00  0.00    +0.000 OA
ATOM     17  C   UNL     1      -7.010  12.802  20.884  0.00  0.00    +0.000 C 
ATOM     18  O   UNL     1      -7.552  12.622  19.559  0.00  0.00    +0.000 OA
ENDBRANCH   2  10
BRANCH   6  19
ATOM     19  C   UNL     1      -0.491  10.809  20.160  0.00  0.00    +0.000 C 
BRANCH  19  20
ATOM     20  C   UNL     1       0.425   9.653  20.126  0.00  0.00    +0.000 A 
ATOM     21  N   UNL     1       1.278   9.242  19.215  0.00  0.00    +0.000 NA
ATOM     22  C   UNL     1       1.764   8.075  19.772  0.00  0.00    +0.000 A 
ATOM     23  N   UNL     1       1.251   7.797  20.983  0.00  0.00    +0.000 NA
ATOM     24  O   UNL     1       0.372   8.839  21.219  0.00  0.00    +0.000 OA
BRANCH  22  25
ATOM     25  C   UNL     1       2.718   7.220  19.081  0.00  0.00    +0.000 A 
ATOM     26  C   UNL     1       3.254   7.611  17.847  0.00  0.00    +0.000 A 
ATOM     27  C   UNL     1       4.148   6.781  17.167  0.00  0.00    +0.000 A 
ATOM     28  C   UNL     1       4.513   5.552  17.713  0.00  0.00    +0.000 A 
ATOM     29  C   UNL     1       3.990   5.153  18.941  0.00  0.00    +0.000 A 
ATOM     30  C   UNL     1       3.097   5.981  19.622  0.00  0.00    +0.000 A 
ENDBRANCH  22  25
ENDBRANCH  19  20
ENDBRANCH   6  19
TORSDOF 4
ENDMDL
MODEL 5
REMARK VINA RESULT:      -8.4      3.123      6.206
REMARK  Name = 
REMARK  5 active torsions:
REMARK  status: ('A' for Active; 'I' for Inactive)
REMARK    1  A    between atoms: C_1  and  C_2
REMARK    2  A    between atoms: C_2  and  C_3
REMARK    3  A    between atoms: N_15  and  C_16
REMARK    4  A    between atoms: C_16  and  C_17
REMARK    5  A    between atoms: C_19  and  C_20
REMARK                            x       y       z     vdW  Elec       q    Type
REMARK                         _______ _______ _______ _____ _____    ______ ____
ROOT
ATOM      1  C   UNL     1       3.400   2.034  16.851  0.00  0.00    +0.000 C 
ATOM      2  C   UNL     1       3.694   2.903  18.065  0.00  0.00    +0.000 C 
ATOM      3  N   UNL     1       4.169   2.107  19.178  0.00  0.00    +0.000 N 
ATOM      4  C   UNL     1       3.636   2.548  20.371  0.00  0.00    +0.000 C 
ATOM      5  O   UNL     1       4.077   2.243  21.465  0.00  0.00    +0.000 OA
ATOM      6  N   UNL     1       2.611   3.391  20.096  0.00  0.00    +0.000 N 
ATOM      7  C   UNL     1       2.432   3.496  18.744  0.00  0.00    +0.000 C 
ATOM      8  O   UNL     1       1.525   4.097  18.182  0.00  0.00    +0.000 OA
ATOM      9  H   UNL     1       5.032   1.580  19.182  0.00  0.00    +0.000 HD
ENDROOT
BRANCH   2  10
ATOM     10  C   UNL     1       4.630   4.079  17.731  0.00  0.00    +0.000 A 
ATOM     11  C   UNL     1       4.341   4.901  16.606  0.00  0.00    +0.000 A 
ATOM     12  C   UNL     1       5.102   6.037  16.312  0.00  0.00    +0.000 A 
ATOM     13  C   UNL     1       6.152   6.336  17.146  0.00  0.00    +0.000 A 
ATOM     14  C   UNL     1       6.449   5.556  18.237  0.00  0.00    +0.000 A 
ATOM     15  C   UNL     1       5.716   4.432  18.556  0.00  0.00    +0.000 A 
ATOM     16  O   UNL     1       7.510   6.032  18.941  0.00  0.00    +0.000 OA
ATOM     17  C   UNL     1       7.879   7.171  18.137  0.00  0.00    +0.000 C 
ATOM     18  O   UNL     1       6.992   7.398  17.023  0.00  0.00    +0.000 OA
ENDBRANCH   2  10
BRANCH   6  19
ATOM     19  C   UNL     1       1.941   4.213  21.070  0.00  0.00    +0.000 C 
BRANCH  19  20
ATOM     20  C   UNL     1       1.935   5.642  20.702  0.00  0.00    +0.000 A 
ATOM     21  N   UNL     1       1.094   6.612  20.980  0.00  0.00    +0.000 NA
ATOM     22  C   UNL     1       1.632   7.677  20.284  0.00  0.00    +0.000 A 
ATOM     23  N   UNL     1       2.767   7.380  19.629  0.00  0.00    +0.000 NA
ATOM     24  O   UNL     1       2.971   6.039  19.908  0.00  0.00    +0.000 OA
BRANCH  22  25
ATOM     25  C   UNL     1       0.994   8.985  20.246  0.00  0.00    +0.000 A 
ATOM     26  C   UNL     1       1.096   9.789  19.103  0.00  0.00    +0.000 A 
ATOM     27  C   UNL     1       0.508  11.055  19.073  0.00  0.00    +0.000 A 
ATOM     28  C   UNL     1      -0.185  11.531  20.184  0.00  0.00    +0.000 A 
ATOM     29  C   UNL     1      -0.297  10.740  21.325  0.00  0.00    +0.000 A 
ATOM     30  C   UNL     1       0.288   9.474  21.357  0.00  0.00    +0.000 A 
ENDBRANCH  22  25
ENDBRANCH  19  20
ENDBRANCH   6  19
TORSDOF 4
ENDMDL
MODEL 6
REMARK VINA RESULT:      -8.3      6.158      9.871
REMARK  Name = 
REMARK  5 active torsions:
REMARK  status: ('A' for Active; 'I' for Inactive)
REMARK    1  A    between atoms: C_1  and  C_2
REMARK    2  A    between atoms: C_2  and  C_3
REMARK    3  A    between atoms: N_15  and  C_16
REMARK    4  A    between atoms: C_16  and  C_17
REMARK    5  A    between atoms: C_19  and  C_20
REMARK                            x       y       z     vdW  Elec       q    Type
REMARK                         _______ _______ _______ _____ _____    ______ ____
ROOT
ATOM      1  C   UNL     1      -5.032  14.225  21.480  0.00  0.00    +0.000 C 
ATOM      2  C   UNL     1      -3.872  13.266  21.255  0.00  0.00    +0.000 C 
ATOM      3  N   UNL     1      -3.718  12.358  22.374  0.00  0.00    +0.000 N 
ATOM      4  C   UNL     1      -2.387  12.152  22.670  0.00  0.00    +0.000 C 
ATOM      5  O   UNL     1      -1.980  11.238  23.365  0.00  0.00    +0.000 OA
ATOM      6  N   UNL     1      -1.654  13.089  22.020  0.00  0.00    +0.000 N 
ATOM      7  C   UNL     1      -2.473  13.933  21.322  0.00  0.00    +0.000 C 
ATOM      8  O   UNL     1      -2.125  14.940  20.719  0.00  0.00    +0.000 OA
ATOM      9  H   UNL     1      -4.403  11.670  22.656  0.00  0.00    +0.000 HD
ENDROOT
BRANCH   2  10
ATOM     10  C   UNL     1      -3.969  12.535  19.904  0.00  0.00    +0.000 A 
ATOM     11  C   UNL     1      -5.243  12.367  19.294  0.00  0.00    +0.000 A 
ATOM     12  C   UNL     1      -5.381  11.796  18.024  0.00  0.00    +0.000 A 
ATOM     13  C   UNL     1      -4.236  11.392  17.379  0.00  0.00    +0.000 A 
ATOM     14  C   UNL     1      -2.997  11.544  17.950  0.00  0.00    +0.000 A 
ATOM     15  C   UNL     1      -2.828  12.107  19.198  0.00  0.00    +0.000 A 
ATOM     16  O   UNL     1      -1.996  11.099  17.144  0.00  0.00    +0.000 OA
ATOM     17  C   UNL     1      -2.755  10.600  16.023  0.00  0.00    +0.000 C 
ATOM     18  O   UNL     1      -4.174  10.826  16.145  0.00  0.00    +0.000 OA
ENDBRANCH   2  10
BRANCH   6  19
ATOM     19  C   UNL     1      -0.218  13.078  21.913  0.00  0.00    +0.000 C 
BRANCH  19  20
ATOM     20  C   UNL     1       0.270  12.117  20.905  0.00  0.00    +0.000 A 
ATOM     21  N   UNL     1       0.584  10.844  20.992  0.00  0.00    +0.000 NA
ATOM     22  C   UNL     1       1.024  10.561  19.714  0.00  0.00    +0.000 A 
ATOM     23  N   UNL     1       0.959  11.607  18.873  0.00  0.00    +0.000 NA
ATOM     24  O   UNL     1       0.456  12.632  19.656  0.00  0.00    +0.000 OA
BRANCH  22  25
ATOM     25  C   UNL     1       1.543   9.253  19.340  0.00  0.00    +0.000 A 
ATOM     26  C   UNL     1       1.610   8.222  20.287  0.00  0.00    +0.000 A 
ATOM     27  C   UNL     1       2.132   6.974  19.939  0.00  0.00    +0.000 A 
ATOM     28  C   UNL     1       2.594   6.745  18.644  0.00  0.00    +0.000 A 
ATOM     29  C   UNL     1       2.529   7.761  17.693  0.00  0.00    +0.000 A 
ATOM     30  C   UNL     1       2.007   9.008  18.038  0.00  0.00    +0.000 A 
ENDBRANCH  22  25
ENDBRANCH  19  20
ENDBRANCH   6  19
TORSDOF 4
ENDMDL
MODEL 7
REMARK VINA RESULT:      -8.2      5.174      8.549
REMARK  Name = 
REMARK  5 active torsions:
REMARK  status: ('A' for Active; 'I' for Inactive)
REMARK    1  A    between atoms: C_1  and  C_2
REMARK    2  A    between atoms: C_2  and  C_3
REMARK    3  A    between atoms: N_15  and  C_16
REMARK    4  A    between atoms: C_16  and  C_17
REMARK    5  A    between atoms: C_19  and  C_20
REMARK                            x       y       z     vdW  Elec       q    Type
REMARK                         _______ _______ _______ _____ _____    ______ ____
ROOT
ATOM      1  C   UNL     1      -3.138  11.522  16.477  0.00  0.00    +0.000 C 
ATOM      2  C   UNL     1      -2.357  11.748  17.763  0.00  0.00    +0.000 C 
ATOM      3  N   UNL     1      -1.318  12.741  17.578  0.00  0.00    +0.000 N 
ATOM      4  C   UNL     1      -0.163  12.383  18.240  0.00  0.00    +0.000 C 
ATOM      5  O   UNL     1       0.750  13.155  18.478  0.00  0.00    +0.000 OA
ATOM      6  N   UNL     1      -0.265  11.082  18.607  0.00  0.00    +0.000 N 
ATOM      7  C   UNL     1      -1.451  10.558  18.174  0.00  0.00    +0.000 C 
ATOM      8  O   UNL     1      -1.794   9.386  18.257  0.00  0.00    +0.000 OA
ATOM      9  H   UNL     1      -1.483  13.712  17.353  0.00  0.00    +0.000 HD
ENDROOT
BRANCH   2  10
ATOM     10  C   UNL     1      -3.274  12.062  18.959  0.00  0.00    +0.000 A 
ATOM     11  C   UNL     1      -4.675  11.844  18.837  0.00  0.00    +0.000 A 
ATOM     12  C   UNL     1      -5.543  12.022  19.920  0.00  0.00    +0.000 A 
ATOM     13  C   UNL     1      -4.998  12.423  21.116  0.00  0.00    +0.000 A 
ATOM     14  C   UNL     1      -3.649  12.640  21.255  0.00  0.00    +0.000 A 
ATOM     15  C   UNL     1      -2.767  12.470  20.208  0.00  0.00    +0.000 A 
ATOM     16  O   UNL     1      -3.311  13.013  22.518  0.00  0.00    +0.000 OA
ATOM     17  C   UNL     1      -4.611  13.058  23.143  0.00  0.00    +0.000 C 
ATOM     18  O   UNL     1      -5.681  12.638  22.271  0.00  0.00    +0.000 OA
ENDBRANCH   2  10
BRANCH   6  19
ATOM     19  C   UNL     1       0.646  10.406  19.495  0.00  0.00    +0.000 C 
BRANCH  19  20
ATOM     20  C   UNL     1       1.421   9.349  18.818  0.00  0.00    +0.000 A 
ATOM     21  N   UNL     1       1.644   8.093  19.131  0.00  0.00    +0.000 NA
ATOM     22  C   UNL     1       2.491   7.682  18.121  0.00  0.00    +0.000 A 
ATOM     23  N   UNL     1       2.756   8.637  17.213  0.00  0.00    +0.000 NA
ATOM     24  O   UNL     1       2.047   9.735  17.668  0.00  0.00    +0.000 OA
BRANCH  22  25
ATOM     25  C   UNL     1       3.064   6.344  18.079  0.00  0.00    +0.000 A 
ATOM     26  C   UNL     1       2.230   5.218  18.085  0.00  0.00    +0.000 A 
ATOM     27  C   UNL     1       2.777   3.932  18.073  0.00  0.00    +0.000 A 
ATOM     28  C   UNL     1       4.160   3.761  18.056  0.00  0.00    +0.000 A 
ATOM     29  C   UNL     1       4.998   4.873  18.046  0.00  0.00    +0.000 A 
ATOM     30  C   UNL     1       4.455   6.158  18.057  0.00  0.00    +0.000 A 
ENDBRANCH  22  25
ENDBRANCH  19  20
ENDBRANCH   6  19
TORSDOF 4
ENDMDL
MODEL 8
REMARK VINA RESULT:      -8.2      5.398      8.675
REMARK  Name = 
REMARK  5 active torsions:
REMARK  status: ('A' for Active; 'I' for Inactive)
REMARK    1  A    between atoms: C_1  and  C_2
REMARK    2  A    between atoms: C_2  and  C_3
REMARK    3  A    between atoms: N_15  and  C_16
REMARK    4  A    between atoms: C_16  and  C_17
REMARK    5  A    between atoms: C_19  and  C_20
REMARK                            x       y       z     vdW  Elec       q    Type
REMARK                         _______ _______ _______ _____ _____    ______ ____
ROOT
ATOM      1  C   UNL     1      -2.806  10.998  16.291  0.00  0.00    +0.000 C 
ATOM      2  C   UNL     1      -2.290  11.530  17.620  0.00  0.00    +0.000 C 
ATOM      3  N   UNL     1      -1.323  12.590  17.421  0.00  0.00    +0.000 N 
ATOM      4  C   UNL     1      -0.279  12.489  18.316  0.00  0.00    +0.000 C 
ATOM      5  O   UNL     1       0.507  13.391  18.548  0.00  0.00    +0.000 OA
ATOM      6  N   UNL     1      -0.333  11.266  18.900  0.00  0.00    +0.000 N 
ATOM      7  C   UNL     1      -1.374  10.541  18.388  0.00  0.00    +0.000 C 
ATOM      8  O   UNL     1      -1.625   9.368  18.634  0.00  0.00    +0.000 OA
ATOM      9  H   UNL     1      -1.528  13.483  16.993  0.00  0.00    +0.000 HD
ENDROOT
BRANCH   2  10
ATOM     10  C   UNL     1      -3.430  11.934  18.573  0.00  0.00    +0.000 A 
ATOM     11  C   UNL     1      -4.773  11.615  18.226  0.00  0.00    +0.000 A 
ATOM     12  C   UNL     1      -5.838  11.873  19.095  0.00  0.00    +0.000 A 
ATOM     13  C   UNL     1      -5.547  12.456  20.305  0.00  0.00    +0.000 A 
ATOM     14  C   UNL     1      -4.258  12.773  20.660  0.00  0.00    +0.000 A 
ATOM     15  C   UNL     1      -3.186  12.527  19.827  0.00  0.00    +0.000 A 
ATOM     16  O   UNL     1      -4.182  13.324  21.901  0.00  0.00    +0.000 OA
ATOM     17  C   UNL     1      -5.578  13.366  22.263  0.00  0.00    +0.000 C 
ATOM     18  O   UNL     1      -6.445  12.773  21.275  0.00  0.00    +0.000 OA
ENDBRANCH   2  10
BRANCH   6  19
ATOM     19  C   UNL     1       0.458  10.863  20.034  0.00  0.00    +0.000 C 
BRANCH  19  20
ATOM     20  C   UNL     1       1.121   9.561  19.830  0.00  0.00    +0.000 A 
ATOM     21  N   UNL     1       1.808   9.079  18.819  0.00  0.00    +0.000 NA
ATOM     22  C   UNL     1       2.092   7.795  19.240  0.00  0.00    +0.000 A 
ATOM     23  N   UNL     1       1.623   7.510  20.467  0.00  0.00    +0.000 NA
ATOM     24  O   UNL     1       0.987   8.675  20.859  0.00  0.00    +0.000 OA
BRANCH  22  25
ATOM     25  C   UNL     1       2.804   6.840  18.403  0.00  0.00    +0.000 A 
ATOM     26  C   UNL     1       2.404   5.498  18.365  0.00  0.00    +0.000 A 
ATOM     27  C   UNL     1       3.102   4.573  17.584  0.00  0.00    +0.000 A 
ATOM     28  C   UNL     1       4.205   4.979  16.837  0.00  0.00    +0.000 A 
ATOM     29  C   UNL     1       4.610   6.312  16.864  0.00  0.00    +0.000 A 
ATOM     30  C   UNL     1       3.915   7.238  17.642  0.00  0.00    +0.000 A 
ENDBRANCH  22  25
ENDBRANCH  19  20
ENDBRANCH   6  19
TORSDOF 4
ENDMDL
MODEL 9
REMARK VINA RESULT:      -8.2      5.503      8.628
REMARK  Name = 
REMARK  5 active torsions:
REMARK  status: ('A' for Active; 'I' for Inactive)
REMARK    1  A    between atoms: C_1  and  C_2
REMARK    2  A    between atoms: C_2  and  C_3
REMARK    3  A    between atoms: N_15  and  C_16
REMARK    4  A    between atoms: C_16  and  C_17
REMARK    5  A    between atoms: C_19  and  C_20
REMARK                            x       y       z     vdW  Elec       q    Type
REMARK                         _______ _______ _______ _____ _____    ______ ____
ROOT
ATOM      1  C   UNL     1      -2.991  11.320  16.065  0.00  0.00    +0.000 C 
ATOM      2  C   UNL     1      -2.426  11.565  17.456  0.00  0.00    +0.000 C 
ATOM      3  N   UNL     1      -1.474  12.658  17.450  0.00  0.00    +0.000 N 
ATOM      4  C   UNL     1      -0.395  12.383  18.264  0.00  0.00    +0.000 C 
ATOM      5  O   UNL     1       0.395  13.227  18.652  0.00  0.00    +0.000 OA
ATOM      6  N   UNL     1      -0.418  11.064  18.576  0.00  0.00    +0.000 N 
ATOM      7  C   UNL     1      -1.474  10.450  17.962  0.00  0.00    +0.000 C 
ATOM      8  O   UNL     1      -1.708   9.248  17.962  0.00  0.00    +0.000 OA
ATOM      9  H   UNL     1      -1.700  13.618  17.230  0.00  0.00    +0.000 HD
ENDROOT
BRANCH   2  10
ATOM     10  C   UNL     1      -3.529  11.743  18.515  0.00  0.00    +0.000 A 
ATOM     11  C   UNL     1      -3.252  12.499  19.688  0.00  0.00    +0.000 A 
ATOM     12  C   UNL     1      -4.243  12.773  20.637  0.00  0.00    +0.000 A 
ATOM     13  C   UNL     1      -5.504  12.279  20.403  0.00  0.00    +0.000 A 
ATOM     14  C   UNL     1      -5.793  11.546  19.278  0.00  0.00    +0.000 A 
ATOM     15  C   UNL     1      -4.840  11.263  18.322  0.00  0.00    +0.000 A 
ATOM     16  O   UNL     1      -7.098  11.167  19.227  0.00  0.00    +0.000 OA
ATOM     17  C   UNL     1      -7.583  11.700  20.476  0.00  0.00    +0.000 C 
ATOM     18  O   UNL     1      -6.589  12.449  21.205  0.00  0.00    +0.000 OA
ENDBRANCH   2  10
BRANCH   6  19
ATOM     19  C   UNL     1       0.420  10.441  19.568  0.00  0.00    +0.000 C 
BRANCH  19  20
ATOM     20  C   UNL     1       1.281   9.385  19.003  0.00  0.00    +0.000 A 
ATOM     21  N   UNL     1       1.685   8.233  19.490  0.00  0.00    +0.000 NA
ATOM     22  C   UNL     1       2.513   7.764  18.489  0.00  0.00    +0.000 A 
ATOM     23  N   UNL     1       2.593   8.580  17.424  0.00  0.00    +0.000 NA
ATOM     24  O   UNL     1       1.778   9.647  17.759  0.00  0.00    +0.000 OA
BRANCH  22  25
ATOM     25  C   UNL     1       3.251   6.515  18.610  0.00  0.00    +0.000 A 
ATOM     26  C   UNL     1       4.322   6.240  17.749  0.00  0.00    +0.000 A 
ATOM     27  C   UNL     1       5.015   5.031  17.844  0.00  0.00    +0.000 A 
ATOM     28  C   UNL     1       4.644   4.086  18.798  0.00  0.00    +0.000 A 
ATOM     29  C   UNL     1       3.583   4.349  19.662  0.00  0.00    +0.000 A 
ATOM     30  C   UNL     1       2.890   5.556  19.570  0.00  0.00    +0.000 A 
ENDBRANCH  22  25
ENDBRANCH  19  20
ENDBRANCH   6  19
TORSDOF 4
ENDMDL
