MODEL 1
REMARK VINA RESULT:      -8.7      0.000      0.000
REMARK  Name = 
REMARK  8 active torsions:
REMARK  status: ('A' for Active; 'I' for Inactive)
REMARK    1  A    between atoms: C_1  and  C_2
REMARK    2  A    between atoms: C_7  and  C_8
REMARK    3  A    between atoms: C_12  and  N_13
REMARK    4  A    between atoms: C_14  and  C_16
REMARK    5  A    between atoms: C_20  and  C_21
REMARK    6  A    between atoms: C_21  and  N_22
REMARK    7  A    between atoms: N_22  and  C_23
REMARK    8  A    between atoms: N_22  and  C_24
REMARK                            x       y       z     vdW  Elec       q    Type
REMARK                         _______ _______ _______ _____ _____    ______ ____
ROOT
ATOM      1  C   UNL     1       3.758   4.472  19.002  0.00  0.00    +0.000 A 
ATOM      2  C   UNL     1       3.350   3.197  19.413  0.00  0.00    +0.000 A 
ATOM      3  C   UNL     1       2.299   3.056  20.308  0.00  0.00    +0.000 A 
ATOM      4  C   UNL     1       1.665   4.188  20.815  0.00  0.00    +0.000 A 
ATOM      5  C   UNL     1       2.076   5.472  20.441  0.00  0.00    +0.000 A 
ATOM      6  C   UNL     1       3.103   5.611  19.498  0.00  0.00    +0.000 A 
ENDROOT
BRANCH   1  13
ATOM      7  C   UNL     1       5.487   4.448  14.486  0.00  0.00    +0.000 C 
ATOM      8  C   UNL     1       5.806   4.499  15.952  0.00  0.00    +0.000 A 
ATOM      9  C   UNL     1       7.069   4.526  16.393  0.00  0.00    +0.000 A 
ATOM     10  C   UNL     1       7.291   4.561  17.844  0.00  0.00    +0.000 A 
ATOM     11  O   UNL     1       8.421   4.531  18.324  0.00  0.00    +0.000 OA
ATOM     12  N   UNL     1       6.167   4.611  18.610  0.00  0.00    +0.000 N 
ATOM     13  C   UNL     1       4.910   4.542  18.061  0.00  0.00    +0.000 A 
ATOM     14  N   UNL     1       4.710   4.491  16.784  0.00  0.00    +0.000 NA
ATOM     15  H   UNL     1       6.323   4.577  19.604  0.00  0.00    +0.000 HD
ENDBRANCH   1  13
BRANCH   5  16
ATOM     16  N   UNL     1       1.503   6.643  20.992  0.00  0.00    +0.000 N 
ATOM     17  C   UNL     1       1.491   7.892  20.379  0.00  0.00    +0.000 C 
ATOM     18  O   UNL     1       1.942   8.150  19.268  0.00  0.00    +0.000 OA
ATOM     19  H   UNL     1       0.917   6.521  21.805  0.00  0.00    +0.000 HD
BRANCH  17  20
ATOM     20  C   UNL     1       0.803   8.985  21.116  0.00  0.00    +0.000 A 
ATOM     21  C   UNL     1       0.181   8.788  22.353  0.00  0.00    +0.000 A 
ATOM     22  C   UNL     1      -0.452   9.859  22.988  0.00  0.00    +0.000 A 
ATOM     23  C   UNL     1      -0.417  11.136  22.421  0.00  0.00    +0.000 A 
ATOM     24  C   UNL     1       0.279  11.365  21.227  0.00  0.00    +0.000 A 
ATOM     25  C   UNL     1       0.849  10.273  20.561  0.00  0.00    +0.000 A 
BRANCH  24  26
ATOM     26  C   UNL     1       0.498  12.771  20.702  0.00  0.00    +0.000 C 
BRANCH  26  27
ATOM     27  N   UNL     1       1.451  13.557  21.513  0.00  0.00    +0.000 NA
ATOM     28  C   UNL     1       2.698  13.841  20.791  0.00  0.00    +0.000 C 
ATOM     29  C   UNL     1       0.837  14.827  21.915  0.00  0.00    +0.000 C 
ENDBRANCH  26  27
ENDBRANCH  24  26
ENDBRANCH  17  20
ENDBRANCH   5  16
TORSDOF 5
ENDMDL
MODEL 2
REMARK VINA RESULT:      -8.6      3.770      9.323
REMARK  Name = 
REMARK  8 active torsions:
REMARK  status: ('A' for Active; 'I' for Inactive)
REMARK    1  A    between atoms: C_1  and  C_2
REMARK    2  A    between atoms: C_7  and  C_8
REMARK    3  A    between atoms: C_12  and  N_13
REMARK    4  A    between atoms: C_14  and  C_16
REMARK    5  A    between atoms: C_20  and  C_21
REMARK    6  A    between atoms: C_21  and  N_22
REMARK    7  A    between atoms: N_22  and  C_23
REMARK    8  A    between atoms: N_22  and  C_24
REMARK                            x       y       z     vdW  Elec       q    Type
REMARK                         _______ _______ _______ _____ _____    ______ ____
ROOT
ATOM      1  C   UNL     1      -1.172  10.786  18.895  0.00  0.00    +0.000 A 
ATOM      2  C   UNL     1      -1.025  11.558  20.054  0.00  0.00    +0.000 A 
ATOM      3  C   UNL     1       0.029  11.317  20.924  0.00  0.00    +0.000 A 
ATOM      4  C   UNL     1       0.930  10.289  20.652  0.00  0.00    +0.000 A 
ATOM      5  C   UNL     1       0.785   9.487  19.515  0.00  0.00    +0.000 A 
ATOM      6  C   UNL     1      -0.251   9.764  18.613  0.00  0.00    +0.000 A 
ENDROOT
BRANCH   1  13
ATOM      7  C   UNL     1      -5.721  12.346  18.390  0.00  0.00    +0.000 C 
ATOM      8  C   UNL     1      -4.506  11.776  17.715  0.00  0.00    +0.000 A 
ATOM      9  C   UNL     1      -4.506  11.480  16.410  0.00  0.00    +0.000 A 
ATOM     10  C   UNL     1      -3.280  10.913  15.834  0.00  0.00    +0.000 A 
ATOM     11  O   UNL     1      -3.222  10.564  14.658  0.00  0.00    +0.000 OA
ATOM     12  N   UNL     1      -2.231  10.787  16.692  0.00  0.00    +0.000 N 
ATOM     13  C   UNL     1      -2.343  11.087  18.027  0.00  0.00    +0.000 A 
ATOM     14  N   UNL     1      -3.428  11.568  18.543  0.00  0.00    +0.000 NA
ATOM     15  H   UNL     1      -1.412  10.345  16.306  0.00  0.00    +0.000 HD
ENDBRANCH   1  13
BRANCH   5  16
ATOM     16  N   UNL     1       1.637   8.389  19.247  0.00  0.00    +0.000 N 
ATOM     17  C   UNL     1       2.358   8.205  18.072  0.00  0.00    +0.000 C 
ATOM     18  O   UNL     1       2.386   8.977  17.119  0.00  0.00    +0.000 OA
ATOM     19  H   UNL     1       1.866   7.792  20.029  0.00  0.00    +0.000 HD
BRANCH  17  20
ATOM     20  C   UNL     1       3.225   6.998  18.009  0.00  0.00    +0.000 A 
ATOM     21  C   UNL     1       4.512   7.019  17.464  0.00  0.00    +0.000 A 
ATOM     22  C   UNL     1       5.270   5.847  17.432  0.00  0.00    +0.000 A 
ATOM     23  C   UNL     1       4.771   4.668  17.994  0.00  0.00    +0.000 A 
ATOM     24  C   UNL     1       3.519   4.655  18.624  0.00  0.00    +0.000 A 
ATOM     25  C   UNL     1       2.736   5.816  18.587  0.00  0.00    +0.000 A 
BRANCH  24  26
ATOM     26  C   UNL     1       3.047   3.448  19.412  0.00  0.00    +0.000 C 
BRANCH  26  27
ATOM     27  N   UNL     1       1.585   3.423  19.624  0.00  0.00    +0.000 NA
ATOM     28  C   UNL     1       0.918   2.404  18.802  0.00  0.00    +0.000 C 
ATOM     29  C   UNL     1       1.289   3.161  21.035  0.00  0.00    +0.000 C 
ENDBRANCH  26  27
ENDBRANCH  24  26
ENDBRANCH  17  20
ENDBRANCH   5  16
TORSDOF 5
ENDMDL
MODEL 3
REMARK VINA RESULT:      -8.5      4.841      6.929
REMARK  Name = 
REMARK  8 active torsions:
REMARK  status: ('A' for Active; 'I' for Inactive)
REMARK    1  A    between atoms: C_1  and  C_2
REMARK    2  A    between atoms: C_7  and  C_8
REMARK    3  A    between atoms: C_12  and  N_13
REMARK    4  A    between atoms: C_14  and  C_16
REMARK    5  A    between atoms: C_20  and  C_21
REMARK    6  A    between atoms: C_21  and  N_22
REMARK    7  A    between atoms: N_22  and  C_23
REMARK    8  A    between atoms: N_22  and  C_24
REMARK                            x       y       z     vdW  Elec       q    Type
REMARK                         _______ _______ _______ _____ _____    ______ ____
ROOT
ATOM      1  C   UNL     1       5.278   4.605  17.709  0.00  0.00    +0.000 A 
ATOM      2  C   UNL     1       5.424   4.009  16.452  0.00  0.00    +0.000 A 
ATOM      3  C   UNL     1       6.145   4.652  15.455  0.00  0.00    +0.000 A 
ATOM      4  C   UNL     1       6.705   5.903  15.703  0.00  0.00    +0.000 A 
ATOM      5  C   UNL     1       6.545   6.530  16.944  0.00  0.00    +0.000 A 
ATOM      6  C   UNL     1       5.860   5.857  17.964  0.00  0.00    +0.000 A 
ENDROOT
BRANCH   1  13
ATOM      7  C   UNL     1       1.069   3.863  19.972  0.00  0.00    +0.000 C 
ATOM      8  C   UNL     1       2.518   3.484  19.859  0.00  0.00    +0.000 A 
ATOM      9  C   UNL     1       3.071   2.582  20.677  0.00  0.00    +0.000 A 
ATOM     10  C   UNL     1       4.497   2.280  20.506  0.00  0.00    +0.000 A 
ATOM     11  O   UNL     1       5.087   1.506  21.255  0.00  0.00    +0.000 OA
ATOM     12  N   UNL     1       5.116   2.927  19.481  0.00  0.00    +0.000 N 
ATOM     13  C   UNL     1       4.467   3.866  18.717  0.00  0.00    +0.000 A 
ATOM     14  N   UNL     1       3.215   4.149  18.877  0.00  0.00    +0.000 NA
ATOM     15  H   UNL     1       6.106   2.761  19.404  0.00  0.00    +0.000 HD
ENDBRANCH   1  13
BRANCH   5  16
ATOM     16  N   UNL     1       7.037   7.831  17.205  0.00  0.00    +0.000 N 
ATOM     17  C   UNL     1       8.012   8.142  18.147  0.00  0.00    +0.000 C 
ATOM     18  O   UNL     1       8.606   7.338  18.859  0.00  0.00    +0.000 OA
ATOM     19  H   UNL     1       6.785   8.552  16.545  0.00  0.00    +0.000 HD
BRANCH  17  20
ATOM     20  C   UNL     1       8.413   9.572  18.238  0.00  0.00    +0.000 A 
ATOM     21  C   UNL     1       8.057  10.519  17.273  0.00  0.00    +0.000 A 
ATOM     22  C   UNL     1       8.472  11.845  17.419  0.00  0.00    +0.000 A 
ATOM     23  C   UNL     1       9.190  12.239  18.550  0.00  0.00    +0.000 A 
ATOM     24  C   UNL     1       9.476  11.320  19.568  0.00  0.00    +0.000 A 
ATOM     25  C   UNL     1       9.119   9.978  19.380  0.00  0.00    +0.000 A 
BRANCH  24  26
ATOM     26  C   UNL     1      10.075  11.766  20.888  0.00  0.00    +0.000 C 
BRANCH  26  27
ATOM     27  N   UNL     1       9.310  12.848  21.541  0.00  0.00    +0.000 NA
ATOM     28  C   UNL     1       8.853  12.476  22.886  0.00  0.00    +0.000 C 
ATOM     29  C   UNL     1      10.135  14.056  21.639  0.00  0.00    +0.000 C 
ENDBRANCH  26  27
ENDBRANCH  24  26
ENDBRANCH  17  20
ENDBRANCH   5  16
TORSDOF 5
ENDMDL
MODEL 4
REMARK VINA RESULT:      -8.5      0.887      1.212
REMARK  Name = 
REMARK  8 active torsions:
REMARK  status: ('A' for Active; 'I' for Inactive)
REMARK    1  A    between atoms: C_1  and  C_2
REMARK    2  A    between atoms: C_7  and  C_8
REMARK    3  A    between atoms: C_12  and  N_13
REMARK    4  A    between atoms: C_14  and  C_16
REMARK    5  A    between atoms: C_20  and  C_21
REMARK    6  A    between atoms: C_21  and  N_22
REMARK    7  A    between atoms: N_22  and  C_23
REMARK    8  A    between atoms: N_22  and  C_24
REMARK                            x       y       z     vdW  Elec       q    Type
REMARK                         _______ _______ _______ _____ _____    ______ ____
ROOT
ATOM      1  C   UNL     1       3.818   4.525  19.084  0.00  0.00    +0.000 A 
ATOM      2  C   UNL     1       3.448   3.266  19.569  0.00  0.00    +0.000 A 
ATOM      3  C   UNL     1       2.421   3.150  20.496  0.00  0.00    +0.000 A 
ATOM      4  C   UNL     1       1.774   4.294  20.959  0.00  0.00    +0.000 A 
ATOM      5  C   UNL     1       2.149   5.565  20.510  0.00  0.00    +0.000 A 
ATOM      6  C   UNL     1       3.151   5.675  19.537  0.00  0.00    +0.000 A 
ENDROOT
BRANCH   1  13
ATOM      7  C   UNL     1       5.428   4.462  14.524  0.00  0.00    +0.000 C 
ATOM      8  C   UNL     1       5.786   4.506  15.982  0.00  0.00    +0.000 A 
ATOM      9  C   UNL     1       7.061   4.505  16.389  0.00  0.00    +0.000 A 
ATOM     10  C   UNL     1       7.321   4.535  17.834  0.00  0.00    +0.000 A 
ATOM     11  O   UNL     1       8.463   4.480  18.284  0.00  0.00    +0.000 OA
ATOM     12  N   UNL     1       6.219   4.610  18.629  0.00  0.00    +0.000 N 
ATOM     13  C   UNL     1       4.947   4.569  18.113  0.00  0.00    +0.000 A 
ATOM     14  N   UNL     1       4.712   4.523  16.842  0.00  0.00    +0.000 NA
ATOM     15  H   UNL     1       6.400   4.573  19.619  0.00  0.00    +0.000 HD
ENDBRANCH   1  13
BRANCH   5  16
ATOM     16  N   UNL     1       1.565   6.751  21.013  0.00  0.00    +0.000 N 
ATOM     17  C   UNL     1       1.513   7.966  20.338  0.00  0.00    +0.000 C 
ATOM     18  O   UNL     1       1.935   8.176  19.206  0.00  0.00    +0.000 OA
ATOM     19  H   UNL     1       0.998   6.659  21.845  0.00  0.00    +0.000 HD
BRANCH  17  20
ATOM     20  C   UNL     1       0.819   9.082  21.035  0.00  0.00    +0.000 A 
ATOM     21  C   UNL     1       0.191   8.925  22.274  0.00  0.00    +0.000 A 
ATOM     22  C   UNL     1      -0.447  10.015  22.870  0.00  0.00    +0.000 A 
ATOM     23  C   UNL     1      -0.413  11.273  22.260  0.00  0.00    +0.000 A 
ATOM     24  C   UNL     1       0.289  11.463  21.062  0.00  0.00    +0.000 A 
ATOM     25  C   UNL     1       0.865  10.350  20.437  0.00  0.00    +0.000 A 
BRANCH  24  26
ATOM     26  C   UNL     1       0.508  12.851  20.491  0.00  0.00    +0.000 C 
BRANCH  26  27
ATOM     27  N   UNL     1      -0.689  13.406  19.826  0.00  0.00    +0.000 NA
ATOM     28  C   UNL     1      -0.688  14.874  19.806  0.00  0.00    +0.000 C 
ATOM     29  C   UNL     1      -0.769  12.914  18.447  0.00  0.00    +0.000 C 
ENDBRANCH  26  27
ENDBRANCH  24  26
ENDBRANCH  17  20
ENDBRANCH   5  16
TORSDOF 5
ENDMDL
MODEL 5
REMARK VINA RESULT:      -8.5      1.145      1.520
REMARK  Name = 
REMARK  8 active torsions:
REMARK  status: ('A' for Active; 'I' for Inactive)
REMARK    1  A    between atoms: C_1  and  C_2
REMARK    2  A    between atoms: C_7  and  C_8
REMARK    3  A    between atoms: C_12  and  N_13
REMARK    4  A    between atoms: C_14  and  C_16
REMARK    5  A    between atoms: C_20  and  C_21
REMARK    6  A    between atoms: C_21  and  N_22
REMARK    7  A    between atoms: N_22  and  C_23
REMARK    8  A    between atoms: N_22  and  C_24
REMARK                            x       y       z     vdW  Elec       q    Type
REMARK                         _______ _______ _______ _____ _____    ______ ____
ROOT
ATOM      1  C   UNL     1       3.759   4.954  18.937  0.00  0.00    +0.000 A 
ATOM      2  C   UNL     1       3.373   3.650  19.268  0.00  0.00    +0.000 A 
ATOM      3  C   UNL     1       2.307   3.437  20.131  0.00  0.00    +0.000 A 
ATOM      4  C   UNL     1       1.635   4.525  20.685  0.00  0.00    +0.000 A 
ATOM      5  C   UNL     1       2.024   5.836  20.391  0.00  0.00    +0.000 A 
ATOM      6  C   UNL     1       3.068   6.049  19.481  0.00  0.00    +0.000 A 
ENDROOT
BRANCH   1  13
ATOM      7  C   UNL     1       7.636   7.442  17.467  0.00  0.00    +0.000 C 
ATOM      8  C   UNL     1       6.756   6.245  17.250  0.00  0.00    +0.000 A 
ATOM      9  C   UNL     1       6.968   5.395  16.239  0.00  0.00    +0.000 A 
ATOM     10  C   UNL     1       6.051   4.258  16.092  0.00  0.00    +0.000 A 
ATOM     11  O   UNL     1       6.149   3.468  15.156  0.00  0.00    +0.000 OA
ATOM     12  N   UNL     1       5.086   4.153  17.046  0.00  0.00    +0.000 N 
ATOM     13  C   UNL     1       4.928   5.101  18.027  0.00  0.00    +0.000 A 
ATOM     14  N   UNL     1       5.722   6.116  18.149  0.00  0.00    +0.000 NA
ATOM     15  H   UNL     1       4.425   3.406  16.908  0.00  0.00    +0.000 HD
ENDBRANCH   1  13
BRANCH   5  16
ATOM     16  N   UNL     1       1.413   6.962  20.992  0.00  0.00    +0.000 N 
ATOM     17  C   UNL     1       1.312   8.222  20.412  0.00  0.00    +0.000 C 
ATOM     18  O   UNL     1       1.705   8.530  19.292  0.00  0.00    +0.000 OA
ATOM     19  H   UNL     1       0.865   6.790  21.824  0.00  0.00    +0.000 HD
BRANCH  17  20
ATOM     20  C   UNL     1       0.597   9.259  21.202  0.00  0.00    +0.000 A 
ATOM     21  C   UNL     1      -0.034   8.982  22.418  0.00  0.00    +0.000 A 
ATOM     22  C   UNL     1      -0.693  10.004  23.105  0.00  0.00    +0.000 A 
ATOM     23  C   UNL     1      -0.675  11.312  22.612  0.00  0.00    +0.000 A 
ATOM     24  C   UNL     1       0.029  11.621  21.441  0.00  0.00    +0.000 A 
ATOM     25  C   UNL     1       0.625  10.577  20.721  0.00  0.00    +0.000 A 
BRANCH  24  26
ATOM     26  C   UNL     1       0.229  13.057  20.998  0.00  0.00    +0.000 C 
BRANCH  26  27
ATOM     27  N   UNL     1       1.425  13.691  21.590  0.00  0.00    +0.000 NA
ATOM     28  C   UNL     1       2.557  13.729  20.655  0.00  0.00    +0.000 C 
ATOM     29  C   UNL     1       1.110  15.061  22.008  0.00  0.00    +0.000 C 
ENDBRANCH  26  27
ENDBRANCH  24  26
ENDBRANCH  17  20
ENDBRANCH   5  16
TORSDOF 5
ENDMDL
MODEL 6
REMARK VINA RESULT:      -8.4      3.899      9.666
REMARK  Name = 
REMARK  8 active torsions:
REMARK  status: ('A' for Active; 'I' for Inactive)
REMARK    1  A    between atoms: C_1  and  C_2
REMARK    2  A    between atoms: C_7  and  C_8
REMARK    3  A    between atoms: C_12  and  N_13
REMARK    4  A    between atoms: C_14  and  C_16
REMARK    5  A    between atoms: C_20  and  C_21
REMARK    6  A    between atoms: C_21  and  N_22
REMARK    7  A    between atoms: N_22  and  C_23
REMARK    8  A    between atoms: N_22  and  C_24
REMARK                            x       y       z     vdW  Elec       q    Type
REMARK                         _______ _______ _______ _____ _____    ______ ____
ROOT
ATOM      1  C   UNL     1      -0.935  10.791  18.392  0.00  0.00    +0.000 A 
ATOM      2  C   UNL     1      -0.674  11.410  19.619  0.00  0.00    +0.000 A 
ATOM      3  C   UNL     1       0.519  11.164  20.284  0.00  0.00    +0.000 A 
ATOM      4  C   UNL     1       1.448  10.280  19.737  0.00  0.00    +0.000 A 
ATOM      5  C   UNL     1       1.193   9.628  18.526  0.00  0.00    +0.000 A 
ATOM      6  C   UNL     1       0.011   9.916  17.832  0.00  0.00    +0.000 A 
ENDROOT
BRANCH   1  13
ATOM      7  C   UNL     1      -5.585  12.066  18.767  0.00  0.00    +0.000 C 
ATOM      8  C   UNL     1      -4.468  11.643  17.856  0.00  0.00    +0.000 A 
ATOM      9  C   UNL     1      -4.665  11.464  16.545  0.00  0.00    +0.000 A 
ATOM     10  C   UNL     1      -3.521  11.036  15.729  0.00  0.00    +0.000 A 
ATOM     11  O   UNL     1      -3.638  10.797  14.531  0.00  0.00    +0.000 OA
ATOM     12  N   UNL     1      -2.340  10.910  16.394  0.00  0.00    +0.000 N 
ATOM     13  C   UNL     1      -2.248  11.084  17.753  0.00  0.00    +0.000 A 
ATOM     14  N   UNL     1      -3.258  11.441  18.479  0.00  0.00    +0.000 NA
ATOM     15  H   UNL     1      -1.573  10.562  15.842  0.00  0.00    +0.000 HD
ENDBRANCH   1  13
BRANCH   5  16
ATOM     16  N   UNL     1       2.080   8.670  17.980  0.00  0.00    +0.000 N 
ATOM     17  C   UNL     1       2.520   7.523  18.632  0.00  0.00    +0.000 C 
ATOM     18  O   UNL     1       2.180   7.162  19.755  0.00  0.00    +0.000 OA
ATOM     19  H   UNL     1       2.268   8.740  16.989  0.00  0.00    +0.000 HD
BRANCH  17  20
ATOM     20  C   UNL     1       3.424   6.628  17.862  0.00  0.00    +0.000 A 
ATOM     21  C   UNL     1       4.426   7.113  17.017  0.00  0.00    +0.000 A 
ATOM     22  C   UNL     1       5.237   6.214  16.319  0.00  0.00    +0.000 A 
ATOM     23  C   UNL     1       5.089   4.838  16.506  0.00  0.00    +0.000 A 
ATOM     24  C   UNL     1       4.148   4.341  17.418  0.00  0.00    +0.000 A 
ATOM     25  C   UNL     1       3.292   5.245  18.059  0.00  0.00    +0.000 A 
BRANCH  24  26
ATOM     26  C   UNL     1       4.107   2.870  17.784  0.00  0.00    +0.000 C 
BRANCH  26  27
ATOM     27  N   UNL     1       3.459   2.608  19.086  0.00  0.00    +0.000 NA
ATOM     28  C   UNL     1       2.266   1.762  18.956  0.00  0.00    +0.000 C 
ATOM     29  C   UNL     1       4.406   1.954  19.994  0.00  0.00    +0.000 C 
ENDBRANCH  26  27
ENDBRANCH  24  26
ENDBRANCH  17  20
ENDBRANCH   5  16
TORSDOF 5
ENDMDL
MODEL 7
REMARK VINA RESULT:      -8.4      3.809      9.323
REMARK  Name = 
REMARK  8 active torsions:
REMARK  status: ('A' for Active; 'I' for Inactive)
REMARK    1  A    between atoms: C_1  and  C_2
REMARK    2  A    between atoms: C_7  and  C_8
REMARK    3  A    between atoms: C_12  and  N_13
REMARK    4  A    between atoms: C_14  and  C_16
REMARK    5  A    between atoms: C_20  and  C_21
REMARK    6  A    between atoms: C_21  and  N_22
REMARK    7  A    between atoms: N_22  and  C_23
REMARK    8  A    between atoms: N_22  and  C_24
REMARK                            x       y       z     vdW  Elec       q    Type
REMARK                         _______ _______ _______ _____ _____    ______ ____
ROOT
ATOM      1  C   UNL     1      -0.785  10.630  18.340  0.00  0.00    +0.000 A 
ATOM      2  C   UNL     1      -0.397  11.342  19.481  0.00  0.00    +0.000 A 
ATOM      3  C   UNL     1       0.798  11.039  20.119  0.00  0.00    +0.000 A 
ATOM      4  C   UNL     1       1.601  10.009  19.633  0.00  0.00    +0.000 A 
ATOM      5  C   UNL     1       1.217   9.265  18.512  0.00  0.00    +0.000 A 
ATOM      6  C   UNL     1       0.035   9.605  17.841  0.00  0.00    +0.000 A 
ENDROOT
BRANCH   1  13
ATOM      7  C   UNL     1      -5.345  12.170  18.811  0.00  0.00    +0.000 C 
ATOM      8  C   UNL     1      -4.275  11.681  17.878  0.00  0.00    +0.000 A 
ATOM      9  C   UNL     1      -4.511  11.507  16.572  0.00  0.00    +0.000 A 
ATOM     10  C   UNL     1      -3.412  11.011  15.734  0.00  0.00    +0.000 A 
ATOM     11  O   UNL     1      -3.569  10.774  14.540  0.00  0.00    +0.000 OA
ATOM     12  N   UNL     1      -2.225  10.820  16.373  0.00  0.00    +0.000 N 
ATOM     13  C   UNL     1      -2.093  10.995  17.729  0.00  0.00    +0.000 A 
ATOM     14  N   UNL     1      -3.065  11.412  18.475  0.00  0.00    +0.000 NA
ATOM     15  H   UNL     1      -1.491  10.427  15.807  0.00  0.00    +0.000 HD
ENDBRANCH   1  13
BRANCH   5  16
ATOM     16  N   UNL     1       1.970   8.166  18.037  0.00  0.00    +0.000 N 
ATOM     17  C   UNL     1       2.314   7.047  18.789  0.00  0.00    +0.000 C 
ATOM     18  O   UNL     1       1.990   6.838  19.953  0.00  0.00    +0.000 OA
ATOM     19  H   UNL     1       2.119   8.116  17.039  0.00  0.00    +0.000 HD
BRANCH  17  20
ATOM     20  C   UNL     1       3.082   5.986  18.084  0.00  0.00    +0.000 A 
ATOM     21  C   UNL     1       2.621   4.671  17.968  0.00  0.00    +0.000 A 
ATOM     22  C   UNL     1       3.396   3.723  17.296  0.00  0.00    +0.000 A 
ATOM     23  C   UNL     1       4.600   4.095  16.692  0.00  0.00    +0.000 A 
ATOM     24  C   UNL     1       5.030   5.428  16.725  0.00  0.00    +0.000 A 
ATOM     25  C   UNL     1       4.283   6.357  17.461  0.00  0.00    +0.000 A 
BRANCH  24  26
ATOM     26  C   UNL     1       6.223   5.891  15.911  0.00  0.00    +0.000 C 
BRANCH  26  27
ATOM     27  N   UNL     1       7.467   5.993  16.702  0.00  0.00    +0.000 NA
ATOM     28  C   UNL     1       7.560   7.260  17.437  0.00  0.00    +0.000 C 
ATOM     29  C   UNL     1       7.545   4.884  17.657  0.00  0.00    +0.000 C 
ENDBRANCH  26  27
ENDBRANCH  24  26
ENDBRANCH  17  20
ENDBRANCH   5  16
TORSDOF 5
ENDMDL
MODEL 8
REMARK VINA RESULT:      -8.4      1.874      2.473
REMARK  Name = 
REMARK  8 active torsions:
REMARK  status: ('A' for Active; 'I' for Inactive)
REMARK    1  A    between atoms: C_1  and  C_2
REMARK    2  A    between atoms: C_7  and  C_8
REMARK    3  A    between atoms: C_12  and  N_13
REMARK    4  A    between atoms: C_14  and  C_16
REMARK    5  A    between atoms: C_20  and  C_21
REMARK    6  A    between atoms: C_21  and  N_22
REMARK    7  A    between atoms: N_22  and  C_23
REMARK    8  A    between atoms: N_22  and  C_24
REMARK                            x       y       z     vdW  Elec       q    Type
REMARK                         _______ _______ _______ _____ _____    ______ ____
ROOT
ATOM      1  C   UNL     1       3.957   4.747  19.092  0.00  0.00    +0.000 A 
ATOM      2  C   UNL     1       3.702   3.440  19.521  0.00  0.00    +0.000 A 
ATOM      3  C   UNL     1       2.681   3.190  20.428  0.00  0.00    +0.000 A 
ATOM      4  C   UNL     1       1.925   4.248  20.928  0.00  0.00    +0.000 A 
ATOM      5  C   UNL     1       2.183   5.566  20.535  0.00  0.00    +0.000 A 
ATOM      6  C   UNL     1       3.180   5.810  19.582  0.00  0.00    +0.000 A 
ENDROOT
BRANCH   1  13
ATOM      7  C   UNL     1       7.701   7.362  17.501  0.00  0.00    +0.000 C 
ATOM      8  C   UNL     1       6.848   6.141  17.306  0.00  0.00    +0.000 A 
ATOM      9  C   UNL     1       7.046   5.307  16.278  0.00  0.00    +0.000 A 
ATOM     10  C   UNL     1       6.157   4.145  16.154  0.00  0.00    +0.000 A 
ATOM     11  O   UNL     1       6.241   3.367  15.208  0.00  0.00    +0.000 OA
ATOM     12  N   UNL     1       5.233   4.003  17.144  0.00  0.00    +0.000 N 
ATOM     13  C   UNL     1       5.086   4.937  18.140  0.00  0.00    +0.000 A 
ATOM     14  N   UNL     1       5.854   5.973  18.242  0.00  0.00    +0.000 NA
ATOM     15  H   UNL     1       4.589   3.238  17.024  0.00  0.00    +0.000 HD
ENDBRANCH   1  13
BRANCH   5  16
ATOM     16  N   UNL     1       1.484   6.670  21.078  0.00  0.00    +0.000 N 
ATOM     17  C   UNL     1       1.439   7.942  20.517  0.00  0.00    +0.000 C 
ATOM     18  O   UNL     1       1.967   8.280  19.463  0.00  0.00    +0.000 OA
ATOM     19  H   UNL     1       0.837   6.472  21.829  0.00  0.00    +0.000 HD
BRANCH  17  20
ATOM     20  C   UNL     1       0.614   8.952  21.232  0.00  0.00    +0.000 A 
ATOM     21  C   UNL     1       0.524   9.006  22.626  0.00  0.00    +0.000 A 
ATOM     22  C   UNL     1      -0.274   9.979  23.231  0.00  0.00    +0.000 A 
ATOM     23  C   UNL     1      -0.936  10.933  22.453  0.00  0.00    +0.000 A 
ATOM     24  C   UNL     1      -0.783  10.945  21.061  0.00  0.00    +0.000 A 
ATOM     25  C   UNL     1      -0.040   9.923  20.457  0.00  0.00    +0.000 A 
BRANCH  24  26
ATOM     26  C   UNL     1      -1.327  12.084  20.219  0.00  0.00    +0.000 C 
BRANCH  26  27
ATOM     27  N   UNL     1      -2.325  11.650  19.220  0.00  0.00    +0.000 NA
ATOM     28  C   UNL     1      -3.631  12.289  19.420  0.00  0.00    +0.000 C 
ATOM     29  C   UNL     1      -1.847  11.960  17.869  0.00  0.00    +0.000 C 
ENDBRANCH  26  27
ENDBRANCH  24  26
ENDBRANCH  17  20
ENDBRANCH   5  16
TORSDOF 5
ENDMDL
MODEL 9
REMARK VINA RESULT:      -8.4      3.795      9.296
REMARK  Name = 
REMARK  8 active torsions:
REMARK  status: ('A' for Active; 'I' for Inactive)
REMARK    1  A    between atoms: C_1  and  C_2
REMARK    2  A    between atoms: C_7  and  C_8
REMARK    3  A    between atoms: C_12  and  N_13
REMARK    4  A    between atoms: C_14  and  C_16
REMARK    5  A    between atoms: C_20  and  C_21
REMARK    6  A    between atoms: C_21  and  N_22
REMARK    7  A    between atoms: N_22  and  C_23
REMARK    8  A    between atoms: N_22  and  C_24
REMARK                            x       y       z     vdW  Elec       q    Type
REMARK                         _______ _______ _______ _____ _____    ______ ____
ROOT
ATOM      1  C   UNL     1      -1.250  11.050  18.828  0.00  0.00    +0.000 A 
ATOM      2  C   UNL     1      -1.064  11.984  19.853  0.00  0.00    +0.000 A 
ATOM      3  C   UNL     1      -0.002  11.846  20.737  0.00  0.00    +0.000 A 
ATOM      4  C   UNL     1       0.866  10.763  20.614  0.00  0.00    +0.000 A 
ATOM      5  C   UNL     1       0.679   9.802  19.614  0.00  0.00    +0.000 A 
ATOM      6  C   UNL     1      -0.363   9.970  18.693  0.00  0.00    +0.000 A 
ENDROOT
BRANCH   1  13
ATOM      7  C   UNL     1      -5.926  12.140  18.247  0.00  0.00    +0.000 C 
ATOM      8  C   UNL     1      -4.643  11.718  17.589  0.00  0.00    +0.000 A 
ATOM      9  C   UNL     1      -4.582  11.459  16.278  0.00  0.00    +0.000 A 
ATOM     10  C   UNL     1      -3.292  11.039  15.718  0.00  0.00    +0.000 A 
ATOM     11  O   UNL     1      -3.171  10.730  14.536  0.00  0.00    +0.000 OA
ATOM     12  N   UNL     1      -2.254  11.000  16.599  0.00  0.00    +0.000 N 
ATOM     13  C   UNL     1      -2.428  11.251  17.938  0.00  0.00    +0.000 A 
ATOM     14  N   UNL     1      -3.567  11.602  18.438  0.00  0.00    +0.000 NA
ATOM     15  H   UNL     1      -1.385  10.656  16.223  0.00  0.00    +0.000 HD
ENDBRANCH   1  13
BRANCH   5  16
ATOM     16  N   UNL     1       1.496   8.651  19.506  0.00  0.00    +0.000 N 
ATOM     17  C   UNL     1       2.223   8.290  18.376  0.00  0.00    +0.000 C 
ATOM     18  O   UNL     1       2.286   8.927  17.330  0.00  0.00    +0.000 OA
ATOM     19  H   UNL     1       1.697   8.156  20.363  0.00  0.00    +0.000 HD
BRANCH  17  20
ATOM     20  C   UNL     1       3.048   7.058  18.486  0.00  0.00    +0.000 A 
ATOM     21  C   UNL     1       2.807   6.069  19.445  0.00  0.00    +0.000 A 
ATOM     22  C   UNL     1       3.626   4.939  19.494  0.00  0.00    +0.000 A 
ATOM     23  C   UNL     1       4.647   4.765  18.556  0.00  0.00    +0.000 A 
ATOM     24  C   UNL     1       4.842   5.704  17.535  0.00  0.00    +0.000 A 
ATOM     25  C   UNL     1       4.064   6.869  17.536  0.00  0.00    +0.000 A 
BRANCH  24  26
ATOM     26  C   UNL     1       5.806   5.439  16.395  0.00  0.00    +0.000 C 
BRANCH  26  27
ATOM     27  N   UNL     1       7.218   5.690  16.751  0.00  0.00    +0.000 NA
ATOM     28  C   UNL     1       7.400   6.974  17.440  0.00  0.00    +0.000 C 
ATOM     29  C   UNL     1       7.715   4.614  17.613  0.00  0.00    +0.000 C 
ENDBRANCH  26  27
ENDBRANCH  24  26
ENDBRANCH  17  20
ENDBRANCH   5  16
TORSDOF 5
ENDMDL
