MODEL 1
REMARK VINA RESULT:      -8.5      0.000      0.000
REMARK  Name = 
REMARK  10 active torsions:
REMARK  status: ('A' for Active; 'I' for Inactive)
REMARK    1  A    between atoms: C_1  and  N_2
REMARK    2  A    between atoms: C_6  and  C_7
REMARK    3  A    between atoms: C_7  and  C_8
REMARK    4  A    between atoms: C_8  and  C_9
REMARK    5  A    between atoms: C_9  and  C_10
REMARK    6  A    between atoms: C_9  and  C_12
REMARK    7  A    between atoms: C_10  and  O_11
REMARK    8  A    between atoms: C_16  and  N_17
REMARK    9  A    between atoms: C_22  and  C_23
REMARK   10  A    between atoms: C_23  and  C_24
REMARK                            x       y       z     vdW  Elec       q    Type
REMARK                         _______ _______ _______ _____ _____    ______ ____
ROOT
ATOM      1  C   UNL     1       3.140   4.080  19.724  0.00  0.00    +0.000 A 
ATOM      2  C   UNL     1       2.665   3.472  18.552  0.00  0.00    +0.000 A 
ATOM      3  C   UNL     1       3.544   3.111  17.535  0.00  0.00    +0.000 A 
ATOM      4  C   UNL     1       4.892   3.438  17.634  0.00  0.00    +0.000 A 
ATOM      5  C   UNL     1       5.335   4.243  18.696  0.00  0.00    +0.000 A 
ATOM      6  C   UNL     1       4.496   4.434  19.799  0.00  0.00    +0.000 A 
ENDROOT
BRANCH   5   7
ATOM      7  N   UNL     1       6.405   5.210  18.474  0.00  0.00    +0.000 N 
ATOM      8  C   UNL     1       5.856   6.431  17.832  0.00  0.00    +0.000 C 
ATOM      9  C   UNL     1       5.999   6.098  16.382  0.00  0.00    +0.000 A 
ATOM     10  C   UNL     1       5.119   6.298  15.335  0.00  0.00    +0.000 A 
ATOM     11  C   UNL     1       5.340   5.590  14.148  0.00  0.00    +0.000 A 
ATOM     12  C   UNL     1       6.444   4.714  14.004  0.00  0.00    +0.000 A 
ATOM     13  C   UNL     1       7.337   4.538  15.072  0.00  0.00    +0.000 A 
ATOM     14  C   UNL     1       7.071   5.218  16.245  0.00  0.00    +0.000 A 
ATOM     15  C   UNL     1       7.446   4.779  17.609  0.00  0.00    +0.000 C 
ATOM     16  O   UNL     1       8.367   4.013  17.853  0.00  0.00    +0.000 OA
BRANCH  12  17
ATOM     17  C   UNL     1       6.588   3.875  12.754  0.00  0.00    +0.000 C 
BRANCH  17  18
ATOM     18  C   UNL     1       5.284   3.279  12.226  0.00  0.00    +0.000 C 
ATOM     19  F   UNL     1       4.301   3.224  13.149  0.00  0.00    +0.000 F 
ATOM     20  F   UNL     1       4.816   4.009  11.186  0.00  0.00    +0.000 F 
ATOM     21  F   UNL     1       5.484   2.018  11.774  0.00  0.00    +0.000 F 
ENDBRANCH  17  18
ENDBRANCH  12  17
ENDBRANCH   5   7
BRANCH   1  22
ATOM     22  C   UNL     1       2.165   4.392  20.851  0.00  0.00    +0.000 C 
BRANCH  22  23
ATOM     23  C   UNL     1       1.387   5.680  20.499  0.00  0.00    +0.000 C 
BRANCH  23  24
ATOM     24  C   UNL     1       2.144   7.005  20.628  0.00  0.00    +0.000 C 
BRANCH  24  30
ATOM     25  C   UNL     1       0.394   9.589  20.400  0.00  0.00    +0.000 C 
ATOM     26  N   UNL     1       1.245   9.039  19.381  0.00  0.00    +0.000 N 
ATOM     27  C   UNL     1       1.451   9.564  18.145  0.00  0.00    +0.000 A 
ATOM     28  N   UNL     1       2.229   8.765  17.452  0.00  0.00    +0.000 NA
ATOM     29  N   UNL     1       2.574   7.716  18.268  0.00  0.00    +0.000 NA
ATOM     30  C   UNL     1       1.995   7.891  19.440  0.00  0.00    +0.000 A 
ENDBRANCH  24  30
ENDBRANCH  23  24
ENDBRANCH  22  23
BRANCH  22  31
ATOM     31  C   UNL     1       1.284   3.166  21.169  0.00  0.00    +0.000 C 
BRANCH  31  32
ATOM     32  O   UNL     1       1.814   2.345  22.198  0.00  0.00    +0.000 OA
ATOM     33  H   UNL     1       2.791   2.435  22.204  0.00  0.00    +0.000 HD
ENDBRANCH  31  32
ENDBRANCH  22  31
ENDBRANCH   1  22
TORSDOF 9
ENDMDL
MODEL 2
REMARK VINA RESULT:      -8.2      0.838      1.355
REMARK  Name = 
REMARK  10 active torsions:
REMARK  status: ('A' for Active; 'I' for Inactive)
REMARK    1  A    between atoms: C_1  and  N_2
REMARK    2  A    between atoms: C_6  and  C_7
REMARK    3  A    between atoms: C_7  and  C_8
REMARK    4  A    between atoms: C_8  and  C_9
REMARK    5  A    between atoms: C_9  and  C_10
REMARK    6  A    between atoms: C_9  and  C_12
REMARK    7  A    between atoms: C_10  and  O_11
REMARK    8  A    between atoms: C_16  and  N_17
REMARK    9  A    between atoms: C_22  and  C_23
REMARK   10  A    between atoms: C_23  and  C_24
REMARK                            x       y       z     vdW  Elec       q    Type
REMARK                         _______ _______ _______ _____ _____    ______ ____
ROOT
ATOM      1  C   UNL     1       3.233   4.346  19.792  0.00  0.00    +0.000 A 
ATOM      2  C   UNL     1       2.657   3.764  18.652  0.00  0.00    +0.000 A 
ATOM      3  C   UNL     1       3.453   3.364  17.583  0.00  0.00    +0.000 A 
ATOM      4  C   UNL     1       4.819   3.625  17.597  0.00  0.00    +0.000 A 
ATOM      5  C   UNL     1       5.366   4.406  18.628  0.00  0.00    +0.000 A 
ATOM      6  C   UNL     1       4.607   4.634  19.782  0.00  0.00    +0.000 A 
ENDROOT
BRANCH   5   7
ATOM      7  N   UNL     1       6.464   5.321  18.340  0.00  0.00    +0.000 N 
ATOM      8  C   UNL     1       5.948   6.528  17.647  0.00  0.00    +0.000 C 
ATOM      9  C   UNL     1       6.050   6.119  16.213  0.00  0.00    +0.000 A 
ATOM     10  C   UNL     1       5.158   6.300  15.174  0.00  0.00    +0.000 A 
ATOM     11  C   UNL     1       5.330   5.526  14.019  0.00  0.00    +0.000 A 
ATOM     12  C   UNL     1       6.400   4.605  13.900  0.00  0.00    +0.000 A 
ATOM     13  C   UNL     1       7.306   4.448  14.960  0.00  0.00    +0.000 A 
ATOM     14  C   UNL     1       7.087   5.195  16.102  0.00  0.00    +0.000 A 
ATOM     15  C   UNL     1       7.473   4.810  17.479  0.00  0.00    +0.000 C 
ATOM     16  O   UNL     1       8.370   4.023  17.745  0.00  0.00    +0.000 OA
BRANCH  12  17
ATOM     17  C   UNL     1       6.488   3.700  12.691  0.00  0.00    +0.000 C 
BRANCH  17  18
ATOM     18  C   UNL     1       5.144   3.251  12.123  0.00  0.00    +0.000 C 
ATOM     19  F   UNL     1       4.154   3.212  13.040  0.00  0.00    +0.000 F 
ATOM     20  F   UNL     1       4.742   4.088  11.137  0.00  0.00    +0.000 F 
ATOM     21  F   UNL     1       5.243   2.013  11.583  0.00  0.00    +0.000 F 
ENDBRANCH  17  18
ENDBRANCH  12  17
ENDBRANCH   5   7
BRANCH   1  22
ATOM     22  C   UNL     1       2.347   4.701  20.978  0.00  0.00    +0.000 C 
BRANCH  22  23
ATOM     23  C   UNL     1       1.377   5.829  20.558  0.00  0.00    +0.000 C 
BRANCH  23  24
ATOM     24  C   UNL     1       2.002   7.109  19.997  0.00  0.00    +0.000 C 
BRANCH  24  30
ATOM     25  C   UNL     1       0.969   9.714  18.604  0.00  0.00    +0.000 C 
ATOM     26  N   UNL     1       1.027   9.465  20.018  0.00  0.00    +0.000 N 
ATOM     27  C   UNL     1       0.621  10.317  20.995  0.00  0.00    +0.000 A 
ATOM     28  N   UNL     1       0.886   9.797  22.171  0.00  0.00    +0.000 NA
ATOM     29  N   UNL     1       1.439   8.558  21.958  0.00  0.00    +0.000 NA
ATOM     30  C   UNL     1       1.507   8.350  20.658  0.00  0.00    +0.000 A 
ENDBRANCH  24  30
ENDBRANCH  23  24
ENDBRANCH  22  23
BRANCH  22  31
ATOM     31  C   UNL     1       1.669   3.440  21.553  0.00  0.00    +0.000 C 
BRANCH  31  32
ATOM     32  O   UNL     1       2.591   2.496  22.074  0.00  0.00    +0.000 OA
ATOM     33  H   UNL     1       2.947   2.836  22.923  0.00  0.00    +0.000 HD
ENDBRANCH  31  32
ENDBRANCH  22  31
ENDBRANCH   1  22
TORSDOF 9
ENDMDL
MODEL 3
REMARK VINA RESULT:      -8.0      4.263      8.013
REMARK  Name = 
REMARK  10 active torsions:
REMARK  status: ('A' for Active; 'I' for Inactive)
REMARK    1  A    between atoms: C_1  and  N_2
REMARK    2  A    between atoms: C_6  and  C_7
REMARK    3  A    between atoms: C_7  and  C_8
REMARK    4  A    between atoms: C_8  and  C_9
REMARK    5  A    between atoms: C_9  and  C_10
REMARK    6  A    between atoms: C_9  and  C_12
REMARK    7  A    between atoms: C_10  and  O_11
REMARK    8  A    between atoms: C_16  and  N_17
REMARK    9  A    between atoms: C_22  and  C_23
REMARK   10  A    between atoms: C_23  and  C_24
REMARK                            x       y       z     vdW  Elec       q    Type
REMARK                         _______ _______ _______ _____ _____    ______ ____
ROOT
ATOM      1  C   UNL     1       2.096   5.569  18.993  0.00  0.00    +0.000 A 
ATOM      2  C   UNL     1       2.201   6.434  17.892  0.00  0.00    +0.000 A 
ATOM      3  C   UNL     1       2.275   7.810  18.077  0.00  0.00    +0.000 A 
ATOM      4  C   UNL     1       2.151   8.347  19.354  0.00  0.00    +0.000 A 
ATOM      5  C   UNL     1       1.820   7.509  20.431  0.00  0.00    +0.000 A 
ATOM      6  C   UNL     1       1.939   6.123  20.273  0.00  0.00    +0.000 A 
ENDROOT
BRANCH   5   7
ATOM      7  N   UNL     1       0.958   8.005  21.498  0.00  0.00    +0.000 N 
ATOM      8  C   UNL     1      -0.427   8.175  20.989  0.00  0.00    +0.000 C 
ATOM      9  C   UNL     1      -0.396   9.587  20.500  0.00  0.00    +0.000 A 
ATOM     10  C   UNL     1      -0.914  10.135  19.342  0.00  0.00    +0.000 A 
ATOM     11  C   UNL     1      -0.455  11.399  18.953  0.00  0.00    +0.000 A 
ATOM     12  C   UNL     1       0.491  12.114  19.729  0.00  0.00    +0.000 A 
ATOM     13  C   UNL     1       0.993  11.547  20.910  0.00  0.00    +0.000 A 
ATOM     14  C   UNL     1       0.552  10.282  21.249  0.00  0.00    +0.000 A 
ATOM     15  C   UNL     1       1.312   9.275  22.026  0.00  0.00    +0.000 C 
ATOM     16  O   UNL     1       2.213   9.549  22.804  0.00  0.00    +0.000 OA
BRANCH  12  17
ATOM     17  C   UNL     1       1.056  13.421  19.219  0.00  0.00    +0.000 C 
BRANCH  17  18
ATOM     18  C   UNL     1       2.470  13.332  18.650  0.00  0.00    +0.000 C 
ATOM     19  F   UNL     1       2.776  12.118  18.147  0.00  0.00    +0.000 F 
ATOM     20  F   UNL     1       2.638  14.233  17.653  0.00  0.00    +0.000 F 
ATOM     21  F   UNL     1       3.387  13.617  19.605  0.00  0.00    +0.000 F 
ENDBRANCH  17  18
ENDBRANCH  12  17
ENDBRANCH   5   7
BRANCH   1  22
ATOM     22  C   UNL     1       2.096   4.064  18.763  0.00  0.00    +0.000 C 
BRANCH  22  23
ATOM     23  C   UNL     1       3.508   3.511  19.064  0.00  0.00    +0.000 C 
BRANCH  23  24
ATOM     24  C   UNL     1       4.579   3.723  17.991  0.00  0.00    +0.000 C 
BRANCH  24  30
ATOM     25  C   UNL     1       7.081   4.604  16.331  0.00  0.00    +0.000 C 
ATOM     26  N   UNL     1       6.851   4.850  17.728  0.00  0.00    +0.000 N 
ATOM     27  C   UNL     1       7.678   5.529  18.566  0.00  0.00    +0.000 A 
ATOM     28  N   UNL     1       7.191   5.498  19.784  0.00  0.00    +0.000 NA
ATOM     29  N   UNL     1       5.997   4.821  19.735  0.00  0.00    +0.000 NA
ATOM     30  C   UNL     1       5.783   4.446  18.489  0.00  0.00    +0.000 A 
ENDBRANCH  24  30
ENDBRANCH  23  24
ENDBRANCH  22  23
BRANCH  22  31
ATOM     31  C   UNL     1       0.952   3.390  19.549  0.00  0.00    +0.000 C 
BRANCH  31  32
ATOM     32  O   UNL     1       0.333   2.328  18.840  0.00  0.00    +0.000 OA
ATOM     33  H   UNL     1      -0.207   1.802  19.466  0.00  0.00    +0.000 HD
ENDBRANCH  31  32
ENDBRANCH  22  31
ENDBRANCH   1  22
TORSDOF 9
ENDMDL
MODEL 4
REMARK VINA RESULT:      -7.9      5.443      8.935
REMARK  Name = 
REMARK  10 active torsions:
REMARK  status: ('A' for Active; 'I' for Inactive)
REMARK    1  A    between atoms: C_1  and  N_2
REMARK    2  A    between atoms: C_6  and  C_7
REMARK    3  A    between atoms: C_7  and  C_8
REMARK    4  A    between atoms: C_8  and  C_9
REMARK    5  A    between atoms: C_9  and  C_10
REMARK    6  A    between atoms: C_9  and  C_12
REMARK    7  A    between atoms: C_10  and  O_11
REMARK    8  A    between atoms: C_16  and  N_17
REMARK    9  A    between atoms: C_22  and  C_23
REMARK   10  A    between atoms: C_23  and  C_24
REMARK                            x       y       z     vdW  Elec       q    Type
REMARK                         _______ _______ _______ _____ _____    ______ ____
ROOT
ATOM      1  C   UNL     1       0.853   9.028  21.126  0.00  0.00    +0.000 A 
ATOM      2  C   UNL     1       0.866   9.109  22.527  0.00  0.00    +0.000 A 
ATOM      3  C   UNL     1      -0.014   9.954  23.196  0.00  0.00    +0.000 A 
ATOM      4  C   UNL     1      -0.852  10.797  22.474  0.00  0.00    +0.000 A 
ATOM      5  C   UNL     1      -0.713  10.886  21.080  0.00  0.00    +0.000 A 
ATOM      6  C   UNL     1       0.027   9.906  20.407  0.00  0.00    +0.000 A 
ENDROOT
BRANCH   5   7
ATOM      7  N   UNL     1      -0.921  12.165  20.410  0.00  0.00    +0.000 N 
ATOM      8  C   UNL     1      -2.365  12.509  20.416  0.00  0.00    +0.000 C 
ATOM      9  C   UNL     1      -2.827  11.885  19.139  0.00  0.00    +0.000 A 
ATOM     10  C   UNL     1      -3.972  11.157  18.873  0.00  0.00    +0.000 A 
ATOM     11  C   UNL     1      -4.003  10.393  17.699  0.00  0.00    +0.000 A 
ATOM     12  C   UNL     1      -2.914  10.382  16.794  0.00  0.00    +0.000 A 
ATOM     13  C   UNL     1      -1.768  11.142  17.074  0.00  0.00    +0.000 A 
ATOM     14  C   UNL     1      -1.748  11.854  18.259  0.00  0.00    +0.000 A 
ATOM     15  C   UNL     1      -0.541  12.205  19.042  0.00  0.00    +0.000 C 
ATOM     16  O   UNL     1       0.582  12.287  18.568  0.00  0.00    +0.000 OA
BRANCH  12  17
ATOM     17  C   UNL     1      -2.931   9.455  15.599  0.00  0.00    +0.000 C 
BRANCH  17  18
ATOM     18  C   UNL     1      -3.416  10.091  14.298  0.00  0.00    +0.000 C 
ATOM     19  F   UNL     1      -4.612   9.626  13.879  0.00  0.00    +0.000 F 
ATOM     20  F   UNL     1      -3.537  11.433  14.442  0.00  0.00    +0.000 F 
ATOM     21  F   UNL     1      -2.526   9.874  13.300  0.00  0.00    +0.000 F 
ENDBRANCH  17  18
ENDBRANCH  12  17
ENDBRANCH   5   7
BRANCH   1  22
ATOM     22  C   UNL     1       1.773   8.037  20.426  0.00  0.00    +0.000 C 
BRANCH  22  23
ATOM     23  C   UNL     1       1.337   6.601  20.797  0.00  0.00    +0.000 C 
BRANCH  23  24
ATOM     24  C   UNL     1       2.354   5.482  20.555  0.00  0.00    +0.000 C 
BRANCH  24  30
ATOM     25  C   UNL     1       1.352   2.611  21.294  0.00  0.00    +0.000 C 
ATOM     26  N   UNL     1       1.399   3.189  19.979  0.00  0.00    +0.000 N 
ATOM     27  C   UNL     1       0.994   2.589  18.829  0.00  0.00    +0.000 A 
ATOM     28  N   UNL     1       1.248   3.376  17.810  0.00  0.00    +0.000 NA
ATOM     29  N   UNL     1       1.792   4.535  18.308  0.00  0.00    +0.000 NA
ATOM     30  C   UNL     1       1.865   4.429  19.621  0.00  0.00    +0.000 A 
ENDBRANCH  24  30
ENDBRANCH  23  24
ENDBRANCH  22  23
BRANCH  22  31
ATOM     31  C   UNL     1       1.841   8.327  18.913  0.00  0.00    +0.000 C 
BRANCH  31  32
ATOM     32  O   UNL     1       2.866   7.605  18.248  0.00  0.00    +0.000 OA
ATOM     33  H   UNL     1       2.522   7.288  17.386  0.00  0.00    +0.000 HD
ENDBRANCH  31  32
ENDBRANCH  22  31
ENDBRANCH   1  22
TORSDOF 9
ENDMDL
MODEL 5
REMARK VINA RESULT:      -7.8      3.348      5.269
REMARK  Name = 
REMARK  10 active torsions:
REMARK  status: ('A' for Active; 'I' for Inactive)
REMARK    1  A    between atoms: C_1  and  N_2
REMARK    2  A    between atoms: C_6  and  C_7
REMARK    3  A    between atoms: C_7  and  C_8
REMARK    4  A    between atoms: C_8  and  C_9
REMARK    5  A    between atoms: C_9  and  C_10
REMARK    6  A    between atoms: C_9  and  C_12
REMARK    7  A    between atoms: C_10  and  O_11
REMARK    8  A    between atoms: C_16  and  N_17
REMARK    9  A    between atoms: C_22  and  C_23
REMARK   10  A    between atoms: C_23  and  C_24
REMARK                            x       y       z     vdW  Elec       q    Type
REMARK                         _______ _______ _______ _____ _____    ______ ____
ROOT
ATOM      1  C   UNL     1       1.545   8.520  19.085  0.00  0.00    +0.000 A 
ATOM      2  C   UNL     1       1.055   8.853  20.358  0.00  0.00    +0.000 A 
ATOM      3  C   UNL     1       1.244   7.994  21.436  0.00  0.00    +0.000 A 
ATOM      4  C   UNL     1       1.841   6.753  21.240  0.00  0.00    +0.000 A 
ATOM      5  C   UNL     1       2.128   6.320  19.936  0.00  0.00    +0.000 A 
ATOM      6  C   UNL     1       2.115   7.253  18.892  0.00  0.00    +0.000 A 
ENDROOT
BRANCH   5   7
ATOM      7  N   UNL     1       1.989   4.909  19.593  0.00  0.00    +0.000 N 
ATOM      8  C   UNL     1       3.117   4.135  20.172  0.00  0.00    +0.000 C 
ATOM      9  C   UNL     1       4.122   4.197  19.067  0.00  0.00    +0.000 A 
ATOM     10  C   UNL     1       5.486   4.415  19.121  0.00  0.00    +0.000 A 
ATOM     11  C   UNL     1       6.140   4.770  17.934  0.00  0.00    +0.000 A 
ATOM     12  C   UNL     1       5.440   4.877  16.707  0.00  0.00    +0.000 A 
ATOM     13  C   UNL     1       4.058   4.635  16.671  0.00  0.00    +0.000 A 
ATOM     14  C   UNL     1       3.432   4.326  17.863  0.00  0.00    +0.000 A 
ATOM     15  C   UNL     1       2.019   4.613  18.204  0.00  0.00    +0.000 C 
ATOM     16  O   UNL     1       1.133   4.767  17.376  0.00  0.00    +0.000 OA
BRANCH  12  17
ATOM     17  C   UNL     1       6.151   5.378  15.470  0.00  0.00    +0.000 C 
BRANCH  17  18
ATOM     18  C   UNL     1       6.168   4.401  14.298  0.00  0.00    +0.000 C 
ATOM     19  F   UNL     1       5.014   4.373  13.598  0.00  0.00    +0.000 F 
ATOM     20  F   UNL     1       7.155   4.721  13.427  0.00  0.00    +0.000 F 
ATOM     21  F   UNL     1       6.409   3.140  14.731  0.00  0.00    +0.000 F 
ENDBRANCH  17  18
ENDBRANCH  12  17
ENDBRANCH   5   7
BRANCH   1  22
ATOM     22  C   UNL     1       1.391   9.515  17.943  0.00  0.00    +0.000 C 
BRANCH  22  23
ATOM     23  C   UNL     1      -0.090   9.543  17.499  0.00  0.00    +0.000 C 
BRANCH  23  24
ATOM     24  C   UNL     1      -0.948  10.698  18.020  0.00  0.00    +0.000 C 
BRANCH  24  30
ATOM     25  C   UNL     1      -3.618  11.933  19.088  0.00  0.00    +0.000 C 
ATOM     26  N   UNL     1      -3.371  11.450  17.757  0.00  0.00    +0.000 N 
ATOM     27  C   UNL     1      -4.254  11.468  16.725  0.00  0.00    +0.000 A 
ATOM     28  N   UNL     1      -3.720  10.883  15.679  0.00  0.00    +0.000 NA
ATOM     29  N   UNL     1      -2.442  10.512  16.021  0.00  0.00    +0.000 NA
ATOM     30  C   UNL     1      -2.225  10.872  17.270  0.00  0.00    +0.000 A 
ENDBRANCH  24  30
ENDBRANCH  23  24
ENDBRANCH  22  23
BRANCH  22  31
ATOM     31  C   UNL     1       1.982  10.886  18.327  0.00  0.00    +0.000 C 
BRANCH  31  32
ATOM     32  O   UNL     1       2.489  11.611  17.217  0.00  0.00    +0.000 OA
ATOM     33  H   UNL     1       1.829  12.286  16.951  0.00  0.00    +0.000 HD
ENDBRANCH  31  32
ENDBRANCH  22  31
ENDBRANCH   1  22
TORSDOF 9
ENDMDL
MODEL 6
REMARK VINA RESULT:      -7.7      2.021      2.585
REMARK  Name = 
REMARK  10 active torsions:
REMARK  status: ('A' for Active; 'I' for Inactive)
REMARK    1  A    between atoms: C_1  and  N_2
REMARK    2  A    between atoms: C_6  and  C_7
REMARK    3  A    between atoms: C_7  and  C_8
REMARK    4  A    between atoms: C_8  and  C_9
REMARK    5  A    between atoms: C_9  and  C_10
REMARK    6  A    between atoms: C_9  and  C_12
REMARK    7  A    between atoms: C_10  and  O_11
REMARK    8  A    between atoms: C_16  and  N_17
REMARK    9  A    between atoms: C_22  and  C_23
REMARK   10  A    between atoms: C_23  and  C_24
REMARK                            x       y       z     vdW  Elec       q    Type
REMARK                         _______ _______ _______ _____ _____    ______ ____
ROOT
ATOM      1  C   UNL     1       3.200   5.659  19.168  0.00  0.00    +0.000 A 
ATOM      2  C   UNL     1       3.017   4.284  18.956  0.00  0.00    +0.000 A 
ATOM      3  C   UNL     1       4.095   3.407  19.027  0.00  0.00    +0.000 A 
ATOM      4  C   UNL     1       5.381   3.900  19.217  0.00  0.00    +0.000 A 
ATOM      5  C   UNL     1       5.602   5.287  19.205  0.00  0.00    +0.000 A 
ATOM      6  C   UNL     1       4.506   6.150  19.326  0.00  0.00    +0.000 A 
ENDROOT
BRANCH   5   7
ATOM      7  N   UNL     1       6.832   5.820  18.629  0.00  0.00    +0.000 N 
ATOM      8  C   UNL     1       6.516   6.957  17.728  0.00  0.00    +0.000 C 
ATOM      9  C   UNL     1       6.329   6.259  16.419  0.00  0.00    +0.000 A 
ATOM     10  C   UNL     1       5.370   6.450  15.442  0.00  0.00    +0.000 A 
ATOM     11  C   UNL     1       5.205   5.445  14.481  0.00  0.00    +0.000 A 
ATOM     12  C   UNL     1       6.009   4.280  14.484  0.00  0.00    +0.000 A 
ATOM     13  C   UNL     1       6.989   4.112  15.474  0.00  0.00    +0.000 A 
ATOM     14  C   UNL     1       7.103   5.101  16.433  0.00  0.00    +0.000 A 
ATOM     15  C   UNL     1       7.572   4.912  17.826  0.00  0.00    +0.000 C 
ATOM     16  O   UNL     1       8.292   3.993  18.186  0.00  0.00    +0.000 OA
BRANCH  12  17
ATOM     17  C   UNL     1       5.726   3.161  13.506  0.00  0.00    +0.000 C 
BRANCH  17  18
ATOM     18  C   UNL     1       6.232   3.404  12.087  0.00  0.00    +0.000 C 
ATOM     19  F   UNL     1       6.780   2.312  11.512  0.00  0.00    +0.000 F 
ATOM     20  F   UNL     1       5.219   3.811  11.285  0.00  0.00    +0.000 F 
ATOM     21  F   UNL     1       7.170   4.381  12.075  0.00  0.00    +0.000 F 
ENDBRANCH  17  18
ENDBRANCH  12  17
ENDBRANCH   5   7
BRANCH   1  22
ATOM     22  C   UNL     1       1.991   6.584  19.161  0.00  0.00    +0.000 C 
BRANCH  22  23
ATOM     23  C   UNL     1       2.055   7.502  20.403  0.00  0.00    +0.000 C 
BRANCH  23  24
ATOM     24  C   UNL     1       0.734   8.104  20.890  0.00  0.00    +0.000 C 
BRANCH  24  30
ATOM     25  C   UNL     1      -0.180  10.073  18.636  0.00  0.00    +0.000 C 
ATOM     26  N   UNL     1       0.303  10.431  19.942  0.00  0.00    +0.000 N 
ATOM     27  C   UNL     1       0.425  11.694  20.429  0.00  0.00    +0.000 A 
ATOM     28  N   UNL     1       0.965  11.654  21.624  0.00  0.00    +0.000 NA
ATOM     29  N   UNL     1       1.161  10.333  21.945  0.00  0.00    +0.000 NA
ATOM     30  C   UNL     1       0.743   9.594  20.936  0.00  0.00    +0.000 A 
ENDBRANCH  24  30
ENDBRANCH  23  24
ENDBRANCH  22  23
BRANCH  22  31
ATOM     31  C   UNL     1       1.873   7.321  17.811  0.00  0.00    +0.000 C 
BRANCH  31  32
ATOM     32  O   UNL     1       2.759   8.424  17.694  0.00  0.00    +0.000 OA
ATOM     33  H   UNL     1       3.648   8.090  17.449  0.00  0.00    +0.000 HD
ENDBRANCH  31  32
ENDBRANCH  22  31
ENDBRANCH   1  22
TORSDOF 9
ENDMDL
MODEL 7
REMARK VINA RESULT:      -7.6      1.020      1.243
REMARK  Name = 
REMARK  10 active torsions:
REMARK  status: ('A' for Active; 'I' for Inactive)
REMARK    1  A    between atoms: C_1  and  N_2
REMARK    2  A    between atoms: C_6  and  C_7
REMARK    3  A    between atoms: C_7  and  C_8
REMARK    4  A    between atoms: C_8  and  C_9
REMARK    5  A    between atoms: C_9  and  C_10
REMARK    6  A    between atoms: C_9  and  C_12
REMARK    7  A    between atoms: C_10  and  O_11
REMARK    8  A    between atoms: C_16  and  N_17
REMARK    9  A    between atoms: C_22  and  C_23
REMARK   10  A    between atoms: C_23  and  C_24
REMARK                            x       y       z     vdW  Elec       q    Type
REMARK                         _______ _______ _______ _____ _____    ______ ____
ROOT
ATOM      1  C   UNL     1       3.194   4.151  19.861  0.00  0.00    +0.000 A 
ATOM      2  C   UNL     1       2.808   3.322  18.796  0.00  0.00    +0.000 A 
ATOM      3  C   UNL     1       3.755   2.832  17.902  0.00  0.00    +0.000 A 
ATOM      4  C   UNL     1       5.081   3.237  18.002  0.00  0.00    +0.000 A 
ATOM      5  C   UNL     1       5.433   4.239  18.921  0.00  0.00    +0.000 A 
ATOM      6  C   UNL     1       4.528   4.580  19.933  0.00  0.00    +0.000 A 
ENDROOT
BRANCH   5   7
ATOM      7  N   UNL     1       6.473   5.204  18.579  0.00  0.00    +0.000 N 
ATOM      8  C   UNL     1       5.867   6.383  17.912  0.00  0.00    +0.000 C 
ATOM      9  C   UNL     1       5.919   5.975  16.475  0.00  0.00    +0.000 A 
ATOM     10  C   UNL     1       4.968   6.111  15.480  0.00  0.00    +0.000 A 
ATOM     11  C   UNL     1       5.121   5.344  14.319  0.00  0.00    +0.000 A 
ATOM     12  C   UNL     1       6.225   4.473  14.148  0.00  0.00    +0.000 A 
ATOM     13  C   UNL     1       7.188   4.362  15.162  0.00  0.00    +0.000 A 
ATOM     14  C   UNL     1       6.991   5.101  16.314  0.00  0.00    +0.000 A 
ATOM     15  C   UNL     1       7.461   4.738  17.671  0.00  0.00    +0.000 C 
ATOM     16  O   UNL     1       8.405   3.995  17.892  0.00  0.00    +0.000 OA
BRANCH  12  17
ATOM     17  C   UNL     1       6.297   3.570  12.937  0.00  0.00    +0.000 C 
BRANCH  17  18
ATOM     18  C   UNL     1       7.179   4.085  11.802  0.00  0.00    +0.000 C 
ATOM     19  F   UNL     1       7.912   3.122  11.204  0.00  0.00    +0.000 F 
ATOM     20  F   UNL     1       6.423   4.667  10.840  0.00  0.00    +0.000 F 
ATOM     21  F   UNL     1       8.042   5.025  12.257  0.00  0.00    +0.000 F 
ENDBRANCH  17  18
ENDBRANCH  12  17
ENDBRANCH   5   7
BRANCH   1  22
ATOM     22  C   UNL     1       2.148   4.608  20.868  0.00  0.00    +0.000 C 
BRANCH  22  23
ATOM     23  C   UNL     1       1.473   5.895  20.341  0.00  0.00    +0.000 C 
BRANCH  23  24
ATOM     24  C   UNL     1       2.329   7.164  20.308  0.00  0.00    +0.000 C 
BRANCH  24  30
ATOM     25  C   UNL     1       0.263   9.250  21.391  0.00  0.00    +0.000 C 
ATOM     26  N   UNL     1       0.820   9.205  20.067  0.00  0.00    +0.000 N 
ATOM     27  C   UNL     1       0.558  10.081  19.061  0.00  0.00    +0.000 A 
ATOM     28  N   UNL     1       1.181   9.697  17.972  0.00  0.00    +0.000 NA
ATOM     29  N   UNL     1       1.902   8.570  18.283  0.00  0.00    +0.000 NA
ATOM     30  C   UNL     1       1.699   8.284  19.554  0.00  0.00    +0.000 A 
ENDBRANCH  24  30
ENDBRANCH  23  24
ENDBRANCH  22  23
BRANCH  22  31
ATOM     31  C   UNL     1       1.179   3.458  21.212  0.00  0.00    +0.000 C 
BRANCH  31  32
ATOM     32  O   UNL     1       1.717   2.528  22.139  0.00  0.00    +0.000 OA
ATOM     33  H   UNL     1       2.605   2.837  22.419  0.00  0.00    +0.000 HD
ENDBRANCH  31  32
ENDBRANCH  22  31
ENDBRANCH   1  22
TORSDOF 9
ENDMDL
MODEL 8
REMARK VINA RESULT:      -7.6      5.186      8.461
REMARK  Name = 
REMARK  10 active torsions:
REMARK  status: ('A' for Active; 'I' for Inactive)
REMARK    1  A    between atoms: C_1  and  N_2
REMARK    2  A    between atoms: C_6  and  C_7
REMARK    3  A    between atoms: C_7  and  C_8
REMARK    4  A    between atoms: C_8  and  C_9
REMARK    5  A    between atoms: C_9  and  C_10
REMARK    6  A    between atoms: C_9  and  C_12
REMARK    7  A    between atoms: C_10  and  O_11
REMARK    8  A    between atoms: C_16  and  N_17
REMARK    9  A    between atoms: C_22  and  C_23
REMARK   10  A    between atoms: C_23  and  C_24
REMARK                            x       y       z     vdW  Elec       q    Type
REMARK                         _______ _______ _______ _____ _____    ______ ____
ROOT
ATOM      1  C   UNL     1       2.099   5.422  19.218  0.00  0.00    +0.000 A 
ATOM      2  C   UNL     1       2.225   6.208  18.062  0.00  0.00    +0.000 A 
ATOM      3  C   UNL     1       2.288   7.595  18.152  0.00  0.00    +0.000 A 
ATOM      4  C   UNL     1       2.131   8.219  19.385  0.00  0.00    +0.000 A 
ATOM      5  C   UNL     1       1.779   7.456  20.510  0.00  0.00    +0.000 A 
ATOM      6  C   UNL     1       1.908   6.063  20.453  0.00  0.00    +0.000 A 
ENDROOT
BRANCH   5   7
ATOM      7  N   UNL     1       0.889   8.019  21.519  0.00  0.00    +0.000 N 
ATOM      8  C   UNL     1      -0.466   8.214  20.946  0.00  0.00    +0.000 C 
ATOM      9  C   UNL     1      -0.367   9.604  20.406  0.00  0.00    +0.000 A 
ATOM     10  C   UNL     1      -0.818  10.124  19.207  0.00  0.00    +0.000 A 
ATOM     11  C   UNL     1      -0.301  11.357  18.792  0.00  0.00    +0.000 A 
ATOM     12  C   UNL     1       0.634  12.070  19.581  0.00  0.00    +0.000 A 
ATOM     13  C   UNL     1       1.067  11.534  20.803  0.00  0.00    +0.000 A 
ATOM     14  C   UNL     1       0.570  10.297  21.169  0.00  0.00    +0.000 A 
ATOM     15  C   UNL     1       1.263   9.298  22.015  0.00  0.00    +0.000 C 
ATOM     16  O   UNL     1       2.139   9.572  22.821  0.00  0.00    +0.000 OA
BRANCH  12  17
ATOM     17  C   UNL     1       1.264  13.339  19.049  0.00  0.00    +0.000 C 
BRANCH  17  18
ATOM     18  C   UNL     1       0.581  14.630  19.492  0.00  0.00    +0.000 C 
ATOM     19  F   UNL     1       0.761  14.918  20.799  0.00  0.00    +0.000 F 
ATOM     20  F   UNL     1       1.052  15.684  18.782  0.00  0.00    +0.000 F 
ATOM     21  F   UNL     1      -0.754  14.564  19.274  0.00  0.00    +0.000 F 
ENDBRANCH  17  18
ENDBRANCH  12  17
ENDBRANCH   5   7
BRANCH   1  22
ATOM     22  C   UNL     1       2.111   3.905  19.095  0.00  0.00    +0.000 C 
BRANCH  22  23
ATOM     23  C   UNL     1       3.571   3.406  19.203  0.00  0.00    +0.000 C 
BRANCH  23  24
ATOM     24  C   UNL     1       4.519   3.784  18.063  0.00  0.00    +0.000 C 
BRANCH  24  30
ATOM     25  C   UNL     1       7.036   4.510  16.351  0.00  0.00    +0.000 C 
ATOM     26  N   UNL     1       6.832   4.810  17.741  0.00  0.00    +0.000 N 
ATOM     27  C   UNL     1       7.694   5.482  18.548  0.00  0.00    +0.000 A 
ATOM     28  N   UNL     1       7.220   5.511  19.771  0.00  0.00    +0.000 NA
ATOM     29  N   UNL     1       6.000   4.881  19.756  0.00  0.00    +0.000 NA
ATOM     30  C   UNL     1       5.757   4.474  18.526  0.00  0.00    +0.000 A 
ENDBRANCH  24  30
ENDBRANCH  23  24
ENDBRANCH  22  23
BRANCH  22  31
ATOM     31  C   UNL     1       1.129   3.265  20.097  0.00  0.00    +0.000 C 
BRANCH  31  32
ATOM     32  O   UNL     1       0.056   2.579  19.472  0.00  0.00    +0.000 OA
ATOM     33  H   UNL     1      -0.065   2.937  18.567  0.00  0.00    +0.000 HD
ENDBRANCH  31  32
ENDBRANCH  22  31
ENDBRANCH   1  22
TORSDOF 9
ENDMDL
MODEL 9
REMARK VINA RESULT:      -7.6      4.892      8.768
REMARK  Name = 
REMARK  10 active torsions:
REMARK  status: ('A' for Active; 'I' for Inactive)
REMARK    1  A    between atoms: C_1  and  N_2
REMARK    2  A    between atoms: C_6  and  C_7
REMARK    3  A    between atoms: C_7  and  C_8
REMARK    4  A    between atoms: C_8  and  C_9
REMARK    5  A    between atoms: C_9  and  C_10
REMARK    6  A    between atoms: C_9  and  C_12
REMARK    7  A    between atoms: C_10  and  O_11
REMARK    8  A    between atoms: C_16  and  N_17
REMARK    9  A    between atoms: C_22  and  C_23
REMARK   10  A    between atoms: C_23  and  C_24
REMARK                            x       y       z     vdW  Elec       q    Type
REMARK                         _______ _______ _______ _____ _____    ______ ____
ROOT
ATOM      1  C   UNL     1       1.034   8.757  21.023  0.00  0.00    +0.000 A 
ATOM      2  C   UNL     1       1.097   8.833  22.423  0.00  0.00    +0.000 A 
ATOM      3  C   UNL     1       0.282   9.718  23.121  0.00  0.00    +0.000 A 
ATOM      4  C   UNL     1      -0.536  10.604  22.428  0.00  0.00    +0.000 A 
ATOM      5  C   UNL     1      -0.438  10.690  21.030  0.00  0.00    +0.000 A 
ATOM      6  C   UNL     1       0.230   9.677  20.332  0.00  0.00    +0.000 A 
ENDROOT
BRANCH   5   7
ATOM      7  N   UNL     1      -0.604  11.981  20.370  0.00  0.00    +0.000 N 
ATOM      8  C   UNL     1      -2.027  12.399  20.428  0.00  0.00    +0.000 C 
ATOM      9  C   UNL     1      -2.567  11.803  19.168  0.00  0.00    +0.000 A 
ATOM     10  C   UNL     1      -3.756  11.135  18.942  0.00  0.00    +0.000 A 
ATOM     11  C   UNL     1      -3.870  10.377  17.770  0.00  0.00    +0.000 A 
ATOM     12  C   UNL     1      -2.816  10.313  16.826  0.00  0.00    +0.000 A 
ATOM     13  C   UNL     1      -1.623  11.012  17.065  0.00  0.00    +0.000 A 
ATOM     14  C   UNL     1      -1.523  11.719  18.249  0.00  0.00    +0.000 A 
ATOM     15  C   UNL     1      -0.272  12.005  18.988  0.00  0.00    +0.000 C 
ATOM     16  O   UNL     1       0.836  12.031  18.474  0.00  0.00    +0.000 OA
BRANCH  12  17
ATOM     17  C   UNL     1      -2.924   9.392  15.631  0.00  0.00    +0.000 C 
BRANCH  17  18
ATOM     18  C   UNL     1      -3.372  10.067  14.337  0.00  0.00    +0.000 C 
ATOM     19  F   UNL     1      -2.526   9.873  13.303  0.00  0.00    +0.000 F 
ATOM     20  F   UNL     1      -4.585   9.601  13.954  0.00  0.00    +0.000 F 
ATOM     21  F   UNL     1      -3.494  11.405  14.514  0.00  0.00    +0.000 F 
ENDBRANCH  17  18
ENDBRANCH  12  17
ENDBRANCH   5   7
BRANCH   1  22
ATOM     22  C   UNL     1       1.881   7.724  20.292  0.00  0.00    +0.000 C 
BRANCH  22  23
ATOM     23  C   UNL     1       1.330   6.314  20.603  0.00  0.00    +0.000 C 
BRANCH  23  24
ATOM     24  C   UNL     1       2.328   5.154  20.558  0.00  0.00    +0.000 C 
BRANCH  24  30
ATOM     25  C   UNL     1       4.924   4.673  18.878  0.00  0.00    +0.000 C 
ATOM     26  N   UNL     1       3.588   4.282  18.520  0.00  0.00    +0.000 N 
ATOM     27  C   UNL     1       3.227   3.614  17.393  0.00  0.00    +0.000 A 
ATOM     28  N   UNL     1       1.921   3.488  17.356  0.00  0.00    +0.000 NA
ATOM     29  N   UNL     1       1.419   4.047  18.506  0.00  0.00    +0.000 NA
ATOM     30  C   UNL     1       2.428   4.510  19.218  0.00  0.00    +0.000 A 
ENDBRANCH  24  30
ENDBRANCH  23  24
ENDBRANCH  22  23
BRANCH  22  31
ATOM     31  C   UNL     1       1.988   8.066  18.792  0.00  0.00    +0.000 C 
BRANCH  31  32
ATOM     32  O   UNL     1       3.246   7.729  18.227  0.00  0.00    +0.000 OA
ATOM     33  H   UNL     1       3.182   6.839  17.820  0.00  0.00    +0.000 HD
ENDBRANCH  31  32
ENDBRANCH  22  31
ENDBRANCH   1  22
TORSDOF 9
ENDMDL
