MODEL 1
REMARK VINA RESULT:      -8.9      0.000      0.000
REMARK  Name = 
REMARK  7 active torsions:
REMARK  status: ('A' for Active; 'I' for Inactive)
REMARK    1  A    between atoms: C_1  and  N_2
REMARK    2  A    between atoms: C_6  and  C_7
REMARK    3  A    between atoms: C_7  and  N_8
REMARK    4  A    between atoms: N_8  and  C_9
REMARK    5  A    between atoms: C_9  and  C_10
REMARK    6  A    between atoms: C_14  and  N_15
REMARK    7  A    between atoms: C_21  and  C_22
REMARK                            x       y       z     vdW  Elec       q    Type
REMARK                         _______ _______ _______ _____ _____    ______ ____
ROOT
ATOM      1  C   UNL     1       7.927   7.620  18.005  0.00  0.00    +0.000 A 
ATOM      2  C   UNL     1       8.112   6.762  19.098  0.00  0.00    +0.000 A 
ATOM      3  C   UNL     1       7.911   5.394  18.958  0.00  0.00    +0.000 A 
ATOM      4  C   UNL     1       7.415   4.885  17.762  0.00  0.00    +0.000 A 
ATOM      5  C   UNL     1       7.005   5.765  16.747  0.00  0.00    +0.000 A 
ATOM      6  C   UNL     1       7.382   7.111  16.819  0.00  0.00    +0.000 A 
ENDROOT
BRANCH   5   7
ATOM      7  N   UNL     1       5.866   5.429  15.905  0.00  0.00    +0.000 N 
ATOM      8  C   UNL     1       4.972   6.603  15.799  0.00  0.00    +0.000 C 
ATOM      9  C   UNL     1       4.049   6.377  16.951  0.00  0.00    +0.000 A 
ATOM     10  C   UNL     1       3.549   7.282  17.867  0.00  0.00    +0.000 A 
ATOM     11  C   UNL     1       2.914   6.772  19.000  0.00  0.00    +0.000 A 
ATOM     12  C   UNL     1       2.744   5.384  19.171  0.00  0.00    +0.000 A 
ATOM     13  C   UNL     1       3.253   4.461  18.239  0.00  0.00    +0.000 A 
ATOM     14  C   UNL     1       3.945   5.001  17.164  0.00  0.00    +0.000 A 
ATOM     15  C   UNL     1       5.030   4.370  16.367  0.00  0.00    +0.000 C 
ATOM     16  O   UNL     1       5.238   3.175  16.304  0.00  0.00    +0.000 OA
BRANCH  13  17
ATOM     17  C   UNL     1       3.100   2.981  18.421  0.00  0.00    +0.000 C 
ATOM     18  F   UNL     1       2.697   2.361  17.270  0.00  0.00    +0.000 F 
ATOM     19  F   UNL     1       4.269   2.375  18.759  0.00  0.00    +0.000 F 
ATOM     20  F   UNL     1       2.175   2.629  19.351  0.00  0.00    +0.000 F 
ENDBRANCH  13  17
ENDBRANCH   5   7
BRANCH   1  21
ATOM     21  C   UNL     1       8.292   9.078  18.122  0.00  0.00    +0.000 C 
BRANCH  21  22
ATOM     22  N   UNL     1       9.216   9.334  19.234  0.00  0.00    +0.000 NA
ATOM     23  H   UNL     1       8.861   8.826  20.047  0.00  0.00    +0.000 HD
BRANCH  22  24
ATOM     24  C   UNL     1       9.275  10.757  19.616  0.00  0.00    +0.000 C 
BRANCH  24  30
ATOM     25  C   UNL     1       8.358  12.832  17.480  0.00  0.00    +0.000 C 
ATOM     26  N   UNL     1       9.715  12.483  17.803  0.00  0.00    +0.000 N 
ATOM     27  C   UNL     1      10.832  13.013  17.238  0.00  0.00    +0.000 A 
ATOM     28  N   UNL     1      11.897  12.453  17.761  0.00  0.00    +0.000 NA
ATOM     29  N   UNL     1      11.476  11.535  18.683  0.00  0.00    +0.000 NA
ATOM     30  C   UNL     1      10.154  11.556  18.721  0.00  0.00    +0.000 A 
ENDBRANCH  24  30
ENDBRANCH  22  24
ENDBRANCH  21  22
ENDBRANCH   1  21
TORSDOF 6
ENDMDL
MODEL 2
REMARK VINA RESULT:      -8.7      0.548      1.316
REMARK  Name = 
REMARK  7 active torsions:
REMARK  status: ('A' for Active; 'I' for Inactive)
REMARK    1  A    between atoms: C_1  and  N_2
REMARK    2  A    between atoms: C_6  and  C_7
REMARK    3  A    between atoms: C_7  and  N_8
REMARK    4  A    between atoms: N_8  and  C_9
REMARK    5  A    between atoms: C_9  and  C_10
REMARK    6  A    between atoms: C_14  and  N_15
REMARK    7  A    between atoms: C_21  and  C_22
REMARK                            x       y       z     vdW  Elec       q    Type
REMARK                         _______ _______ _______ _____ _____    ______ ____
ROOT
ATOM      1  C   UNL     1       7.921   7.731  18.022  0.00  0.00    +0.000 A 
ATOM      2  C   UNL     1       8.112   6.887  19.125  0.00  0.00    +0.000 A 
ATOM      3  C   UNL     1       7.939   5.514  18.996  0.00  0.00    +0.000 A 
ATOM      4  C   UNL     1       7.464   4.985  17.800  0.00  0.00    +0.000 A 
ATOM      5  C   UNL     1       7.046   5.847  16.773  0.00  0.00    +0.000 A 
ATOM      6  C   UNL     1       7.398   7.201  16.837  0.00  0.00    +0.000 A 
ENDROOT
BRANCH   5   7
ATOM      7  N   UNL     1       5.922   5.482  15.924  0.00  0.00    +0.000 N 
ATOM      8  C   UNL     1       5.007   6.638  15.799  0.00  0.00    +0.000 C 
ATOM      9  C   UNL     1       4.078   6.404  16.944  0.00  0.00    +0.000 A 
ATOM     10  C   UNL     1       3.552   7.308  17.847  0.00  0.00    +0.000 A 
ATOM     11  C   UNL     1       2.916   6.796  18.979  0.00  0.00    +0.000 A 
ATOM     12  C   UNL     1       2.771   5.407  19.161  0.00  0.00    +0.000 A 
ATOM     13  C   UNL     1       3.307   4.486  18.242  0.00  0.00    +0.000 A 
ATOM     14  C   UNL     1       3.998   5.029  17.169  0.00  0.00    +0.000 A 
ATOM     15  C   UNL     1       5.102   4.412  16.388  0.00  0.00    +0.000 C 
ATOM     16  O   UNL     1       5.334   3.221  16.338  0.00  0.00    +0.000 OA
BRANCH  13  17
ATOM     17  C   UNL     1       3.179   3.005  18.436  0.00  0.00    +0.000 C 
ATOM     18  F   UNL     1       2.261   2.690  19.399  0.00  0.00    +0.000 F 
ATOM     19  F   UNL     1       2.749   2.368  17.314  0.00  0.00    +0.000 F 
ATOM     20  F   UNL     1       4.327   2.397  18.834  0.00  0.00    +0.000 F 
ENDBRANCH  13  17
ENDBRANCH   5   7
BRANCH   1  21
ATOM     21  C   UNL     1       8.257   9.197  18.129  0.00  0.00    +0.000 C 
BRANCH  21  22
ATOM     22  N   UNL     1       9.346   9.452  19.081  0.00  0.00    +0.000 NA
ATOM     23  H   UNL     1       9.215   8.815  19.870  0.00  0.00    +0.000 HD
BRANCH  22  24
ATOM     24  C   UNL     1       9.321  10.819  19.631  0.00  0.00    +0.000 C 
BRANCH  24  30
ATOM     25  C   UNL     1      12.322  11.655  19.700  0.00  0.00    +0.000 C 
ATOM     26  N   UNL     1      11.322  12.137  18.786  0.00  0.00    +0.000 N 
ATOM     27  C   UNL     1      11.524  13.032  17.782  0.00  0.00    +0.000 A 
ATOM     28  N   UNL     1      10.391  13.254  17.157  0.00  0.00    +0.000 NA
ATOM     29  N   UNL     1       9.426  12.496  17.761  0.00  0.00    +0.000 NA
ATOM     30  C   UNL     1       9.987  11.808  18.743  0.00  0.00    +0.000 A 
ENDBRANCH  24  30
ENDBRANCH  22  24
ENDBRANCH  21  22
ENDBRANCH   1  21
TORSDOF 6
ENDMDL
MODEL 3
REMARK VINA RESULT:      -8.4      1.351      1.853
REMARK  Name = 
REMARK  7 active torsions:
REMARK  status: ('A' for Active; 'I' for Inactive)
REMARK    1  A    between atoms: C_1  and  N_2
REMARK    2  A    between atoms: C_6  and  C_7
REMARK    3  A    between atoms: C_7  and  N_8
REMARK    4  A    between atoms: N_8  and  C_9
REMARK    5  A    between atoms: C_9  and  C_10
REMARK    6  A    between atoms: C_14  and  N_15
REMARK    7  A    between atoms: C_21  and  C_22
REMARK                            x       y       z     vdW  Elec       q    Type
REMARK                         _______ _______ _______ _____ _____    ______ ____
ROOT
ATOM      1  C   UNL     1       7.945   7.672  17.977  0.00  0.00    +0.000 A 
ATOM      2  C   UNL     1       8.122   6.843  19.094  0.00  0.00    +0.000 A 
ATOM      3  C   UNL     1       7.915   5.473  18.991  0.00  0.00    +0.000 A 
ATOM      4  C   UNL     1       7.420   4.934  17.807  0.00  0.00    +0.000 A 
ATOM      5  C   UNL     1       7.017   5.788  16.767  0.00  0.00    +0.000 A 
ATOM      6  C   UNL     1       7.402   7.133  16.804  0.00  0.00    +0.000 A 
ENDROOT
BRANCH   5   7
ATOM      7  N   UNL     1       5.880   5.435  15.931  0.00  0.00    +0.000 N 
ATOM      8  C   UNL     1       4.972   6.599  15.821  0.00  0.00    +0.000 C 
ATOM      9  C   UNL     1       4.056   6.369  16.978  0.00  0.00    +0.000 A 
ATOM     10  C   UNL     1       3.549   7.274  17.890  0.00  0.00    +0.000 A 
ATOM     11  C   UNL     1       2.923   6.764  19.028  0.00  0.00    +0.000 A 
ATOM     12  C   UNL     1       2.768   5.375  19.208  0.00  0.00    +0.000 A 
ATOM     13  C   UNL     1       3.285   4.452  18.279  0.00  0.00    +0.000 A 
ATOM     14  C   UNL     1       3.968   4.994  17.199  0.00  0.00    +0.000 A 
ATOM     15  C   UNL     1       5.057   4.370  16.402  0.00  0.00    +0.000 C 
ATOM     16  O   UNL     1       5.278   3.177  16.345  0.00  0.00    +0.000 OA
BRANCH  13  17
ATOM     17  C   UNL     1       3.148   2.972  18.470  0.00  0.00    +0.000 C 
ATOM     18  F   UNL     1       4.322   2.394  18.865  0.00  0.00    +0.000 F 
ATOM     19  F   UNL     1       2.252   2.654  19.442  0.00  0.00    +0.000 F 
ATOM     20  F   UNL     1       2.787   2.299  17.347  0.00  0.00    +0.000 F 
ENDBRANCH  13  17
ENDBRANCH   5   7
BRANCH   1  21
ATOM     21  C   UNL     1       8.317   9.131  18.056  0.00  0.00    +0.000 C 
BRANCH  21  22
ATOM     22  N   UNL     1       9.036   9.458  19.294  0.00  0.00    +0.000 NA
ATOM     23  H   UNL     1       8.334   9.632  20.016  0.00  0.00    +0.000 HD
BRANCH  22  24
ATOM     24  C   UNL     1       9.844  10.685  19.183  0.00  0.00    +0.000 C 
BRANCH  24  30
ATOM     25  C   UNL     1      11.025  13.553  19.493  0.00  0.00    +0.000 C 
ATOM     26  N   UNL     1      10.180  12.871  20.437  0.00  0.00    +0.000 N 
ATOM     27  C   UNL     1       9.740  13.372  21.621  0.00  0.00    +0.000 A 
ATOM     28  N   UNL     1       9.001  12.475  22.230  0.00  0.00    +0.000 NA
ATOM     29  N   UNL     1       8.958  11.362  21.437  0.00  0.00    +0.000 NA
ATOM     30  C   UNL     1       9.662  11.599  20.342  0.00  0.00    +0.000 A 
ENDBRANCH  24  30
ENDBRANCH  22  24
ENDBRANCH  21  22
ENDBRANCH   1  21
TORSDOF 6
ENDMDL
MODEL 4
REMARK VINA RESULT:      -8.3      1.064      1.645
REMARK  Name = 
REMARK  7 active torsions:
REMARK  status: ('A' for Active; 'I' for Inactive)
REMARK    1  A    between atoms: C_1  and  N_2
REMARK    2  A    between atoms: C_6  and  C_7
REMARK    3  A    between atoms: C_7  and  N_8
REMARK    4  A    between atoms: N_8  and  C_9
REMARK    5  A    between atoms: C_9  and  C_10
REMARK    6  A    between atoms: C_14  and  N_15
REMARK    7  A    between atoms: C_21  and  C_22
REMARK                            x       y       z     vdW  Elec       q    Type
REMARK                         _______ _______ _______ _____ _____    ______ ____
ROOT
ATOM      1  C   UNL     1       7.949   7.783  18.007  0.00  0.00    +0.000 A 
ATOM      2  C   UNL     1       8.100   6.975  19.143  0.00  0.00    +0.000 A 
ATOM      3  C   UNL     1       7.880   5.605  19.064  0.00  0.00    +0.000 A 
ATOM      4  C   UNL     1       7.400   5.047  17.883  0.00  0.00    +0.000 A 
ATOM      5  C   UNL     1       7.023   5.884  16.819  0.00  0.00    +0.000 A 
ATOM      6  C   UNL     1       7.421   7.226  16.836  0.00  0.00    +0.000 A 
ENDROOT
BRANCH   5   7
ATOM      7  N   UNL     1       5.896   5.526  15.972  0.00  0.00    +0.000 N 
ATOM      8  C   UNL     1       4.979   6.681  15.861  0.00  0.00    +0.000 C 
ATOM      9  C   UNL     1       4.055   6.436  17.008  0.00  0.00    +0.000 A 
ATOM     10  C   UNL     1       3.532   7.330  17.921  0.00  0.00    +0.000 A 
ATOM     11  C   UNL     1       2.901   6.807  19.051  0.00  0.00    +0.000 A 
ATOM     12  C   UNL     1       2.758   5.416  19.220  0.00  0.00    +0.000 A 
ATOM     13  C   UNL     1       3.291   4.504  18.290  0.00  0.00    +0.000 A 
ATOM     14  C   UNL     1       3.978   5.058  17.220  0.00  0.00    +0.000 A 
ATOM     15  C   UNL     1       5.080   4.450  16.429  0.00  0.00    +0.000 C 
ATOM     16  O   UNL     1       5.312   3.259  16.366  0.00  0.00    +0.000 OA
BRANCH  13  17
ATOM     17  C   UNL     1       3.167   3.021  18.471  0.00  0.00    +0.000 C 
ATOM     18  F   UNL     1       4.355   2.445  18.824  0.00  0.00    +0.000 F 
ATOM     19  F   UNL     1       2.302   2.689  19.467  0.00  0.00    +0.000 F 
ATOM     20  F   UNL     1       2.773   2.357  17.353  0.00  0.00    +0.000 F 
ENDBRANCH  13  17
ENDBRANCH   5   7
BRANCH   1  21
ATOM     21  C   UNL     1       8.335   9.239  18.063  0.00  0.00    +0.000 C 
BRANCH  21  22
ATOM     22  N   UNL     1       9.021   9.587  19.315  0.00  0.00    +0.000 NA
ATOM     23  H   UNL     1       8.306   9.899  19.975  0.00  0.00    +0.000 HD
BRANCH  22  24
ATOM     24  C   UNL     1       9.970  10.704  19.159  0.00  0.00    +0.000 C 
BRANCH  24  30
ATOM     25  C   UNL     1       9.463  12.533  21.630  0.00  0.00    +0.000 C 
ATOM     26  N   UNL     1       9.113  12.825  20.266  0.00  0.00    +0.000 N 
ATOM     27  C   UNL     1       8.513  13.961  19.821  0.00  0.00    +0.000 A 
ATOM     28  N   UNL     1       8.331  13.883  18.524  0.00  0.00    +0.000 NA
ATOM     29  N   UNL     1       8.815  12.673  18.107  0.00  0.00    +0.000 NA
ATOM     30  C   UNL     1       9.300  12.032  19.157  0.00  0.00    +0.000 A 
ENDBRANCH  24  30
ENDBRANCH  22  24
ENDBRANCH  21  22
ENDBRANCH   1  21
TORSDOF 6
ENDMDL
MODEL 5
REMARK VINA RESULT:      -8.2      0.909      1.402
REMARK  Name = 
REMARK  7 active torsions:
REMARK  status: ('A' for Active; 'I' for Inactive)
REMARK    1  A    between atoms: C_1  and  N_2
REMARK    2  A    between atoms: C_6  and  C_7
REMARK    3  A    between atoms: C_7  and  N_8
REMARK    4  A    between atoms: N_8  and  C_9
REMARK    5  A    between atoms: C_9  and  C_10
REMARK    6  A    between atoms: C_14  and  N_15
REMARK    7  A    between atoms: C_21  and  C_22
REMARK                            x       y       z     vdW  Elec       q    Type
REMARK                         _______ _______ _______ _____ _____    ______ ____
ROOT
ATOM      1  C   UNL     1       7.955   7.881  17.938  0.00  0.00    +0.000 A 
ATOM      2  C   UNL     1       8.135   7.079  19.074  0.00  0.00    +0.000 A 
ATOM      3  C   UNL     1       7.952   5.703  18.999  0.00  0.00    +0.000 A 
ATOM      4  C   UNL     1       7.480   5.131  17.821  0.00  0.00    +0.000 A 
ATOM      5  C   UNL     1       7.074   5.956  16.759  0.00  0.00    +0.000 A 
ATOM      6  C   UNL     1       7.434   7.308  16.772  0.00  0.00    +0.000 A 
ENDROOT
BRANCH   5   7
ATOM      7  N   UNL     1       5.952   5.565  15.919  0.00  0.00    +0.000 N 
ATOM      8  C   UNL     1       5.015   6.703  15.792  0.00  0.00    +0.000 C 
ATOM      9  C   UNL     1       4.097   6.460  16.944  0.00  0.00    +0.000 A 
ATOM     10  C   UNL     1       3.560   7.359  17.845  0.00  0.00    +0.000 A 
ATOM     11  C   UNL     1       2.940   6.843  18.983  0.00  0.00    +0.000 A 
ATOM     12  C   UNL     1       2.820   5.453  19.174  0.00  0.00    +0.000 A 
ATOM     13  C   UNL     1       3.368   4.535  18.258  0.00  0.00    +0.000 A 
ATOM     14  C   UNL     1       4.043   5.085  17.177  0.00  0.00    +0.000 A 
ATOM     15  C   UNL     1       5.154   4.483  16.394  0.00  0.00    +0.000 C 
ATOM     16  O   UNL     1       5.407   3.296  16.349  0.00  0.00    +0.000 OA
BRANCH  13  17
ATOM     17  C   UNL     1       3.268   3.054  18.462  0.00  0.00    +0.000 C 
ATOM     18  F   UNL     1       2.336   2.727  19.407  0.00  0.00    +0.000 F 
ATOM     19  F   UNL     1       2.876   2.399  17.336  0.00  0.00    +0.000 F 
ATOM     20  F   UNL     1       4.420   2.474  18.889  0.00  0.00    +0.000 F 
ENDBRANCH  13  17
ENDBRANCH   5   7
BRANCH   1  21
ATOM     21  C   UNL     1       8.301   9.347  17.990  0.00  0.00    +0.000 C 
BRANCH  21  22
ATOM     22  N   UNL     1       9.046   9.703  19.205  0.00  0.00    +0.000 NA
ATOM     23  H   UNL     1       8.389  10.154  19.843  0.00  0.00    +0.000 HD
BRANCH  22  24
ATOM     24  C   UNL     1      10.126  10.673  18.953  0.00  0.00    +0.000 C 
BRANCH  24  30
ATOM     25  C   UNL     1      10.707  13.185  17.202  0.00  0.00    +0.000 C 
ATOM     26  N   UNL     1       9.974  13.158  18.439  0.00  0.00    +0.000 N 
ATOM     27  C   UNL     1       9.396  14.227  19.048  0.00  0.00    +0.000 A 
ATOM     28  N   UNL     1       8.824  13.841  20.164  0.00  0.00    +0.000 NA
ATOM     29  N   UNL     1       9.033  12.495  20.296  0.00  0.00    +0.000 NA
ATOM     30  C   UNL     1       9.720  12.073  19.248  0.00  0.00    +0.000 A 
ENDBRANCH  24  30
ENDBRANCH  22  24
ENDBRANCH  21  22
ENDBRANCH   1  21
TORSDOF 6
ENDMDL
MODEL 6
REMARK VINA RESULT:      -8.1      0.858      1.365
REMARK  Name = 
REMARK  7 active torsions:
REMARK  status: ('A' for Active; 'I' for Inactive)
REMARK    1  A    between atoms: C_1  and  N_2
REMARK    2  A    between atoms: C_6  and  C_7
REMARK    3  A    between atoms: C_7  and  N_8
REMARK    4  A    between atoms: N_8  and  C_9
REMARK    5  A    between atoms: C_9  and  C_10
REMARK    6  A    between atoms: C_14  and  N_15
REMARK    7  A    between atoms: C_21  and  C_22
REMARK                            x       y       z     vdW  Elec       q    Type
REMARK                         _______ _______ _______ _____ _____    ______ ____
ROOT
ATOM      1  C   UNL     1       8.024   7.281  18.341  0.00  0.00    +0.000 A 
ATOM      2  C   UNL     1       8.147   6.263  19.298  0.00  0.00    +0.000 A 
ATOM      3  C   UNL     1       7.847   4.948  18.966  0.00  0.00    +0.000 A 
ATOM      4  C   UNL     1       7.314   4.653  17.714  0.00  0.00    +0.000 A 
ATOM      5  C   UNL     1       6.968   5.698  16.841  0.00  0.00    +0.000 A 
ATOM      6  C   UNL     1       7.443   6.988  17.102  0.00  0.00    +0.000 A 
ENDROOT
BRANCH   5   7
ATOM      7  N   UNL     1       5.807   5.569  15.973  0.00  0.00    +0.000 N 
ATOM      8  C   UNL     1       4.977   6.789  16.080  0.00  0.00    +0.000 C 
ATOM      9  C   UNL     1       4.052   6.420  17.192  0.00  0.00    +0.000 A 
ATOM     10  C   UNL     1       3.608   7.182  18.255  0.00  0.00    +0.000 A 
ATOM     11  C   UNL     1       2.953   6.522  19.295  0.00  0.00    +0.000 A 
ATOM     12  C   UNL     1       2.709   5.136  19.233  0.00  0.00    +0.000 A 
ATOM     13  C   UNL     1       3.161   4.359  18.150  0.00  0.00    +0.000 A 
ATOM     14  C   UNL     1       3.874   5.036  17.171  0.00  0.00    +0.000 A 
ATOM     15  C   UNL     1       4.918   4.493  16.263  0.00  0.00    +0.000 C 
ATOM     16  O   UNL     1       5.061   3.317  15.995  0.00  0.00    +0.000 OA
BRANCH  13  17
ATOM     17  C   UNL     1       2.929   2.879  18.082  0.00  0.00    +0.000 C 
ATOM     18  F   UNL     1       4.075   2.169  18.307  0.00  0.00    +0.000 F 
ATOM     19  F   UNL     1       2.052   2.447  19.028  0.00  0.00    +0.000 F 
ATOM     20  F   UNL     1       2.477   2.444  16.878  0.00  0.00    +0.000 F 
ENDBRANCH  13  17
ENDBRANCH   5   7
BRANCH   1  21
ATOM     21  C   UNL     1       8.494   8.677  18.663  0.00  0.00    +0.000 C 
BRANCH  21  22
ATOM     22  N   UNL     1       8.185   9.631  17.590  0.00  0.00    +0.000 NA
ATOM     23  H   UNL     1       8.855   9.469  16.836  0.00  0.00    +0.000 HD
BRANCH  22  24
ATOM     24  C   UNL     1       8.347  11.036  18.006  0.00  0.00    +0.000 C 
BRANCH  24  30
ATOM     25  C   UNL     1       9.383  11.474  20.912  0.00  0.00    +0.000 C 
ATOM     26  N   UNL     1      10.170  11.523  19.709  0.00  0.00    +0.000 N 
ATOM     27  C   UNL     1      11.508  11.754  19.638  0.00  0.00    +0.000 A 
ATOM     28  N   UNL     1      11.890  11.741  18.383  0.00  0.00    +0.000 NA
ATOM     29  N   UNL     1      10.786  11.502  17.613  0.00  0.00    +0.000 NA
ATOM     30  C   UNL     1       9.741  11.358  18.411  0.00  0.00    +0.000 A 
ENDBRANCH  24  30
ENDBRANCH  22  24
ENDBRANCH  21  22
ENDBRANCH   1  21
TORSDOF 6
ENDMDL
MODEL 7
REMARK VINA RESULT:      -8.0      1.363      1.931
REMARK  Name = 
REMARK  7 active torsions:
REMARK  status: ('A' for Active; 'I' for Inactive)
REMARK    1  A    between atoms: C_1  and  N_2
REMARK    2  A    between atoms: C_6  and  C_7
REMARK    3  A    between atoms: C_7  and  N_8
REMARK    4  A    between atoms: N_8  and  C_9
REMARK    5  A    between atoms: C_9  and  C_10
REMARK    6  A    between atoms: C_14  and  N_15
REMARK    7  A    between atoms: C_21  and  C_22
REMARK                            x       y       z     vdW  Elec       q    Type
REMARK                         _______ _______ _______ _____ _____    ______ ____
ROOT
ATOM      1  C   UNL     1       7.471   6.993  17.821  0.00  0.00    +0.000 A 
ATOM      2  C   UNL     1       7.656   6.522  19.128  0.00  0.00    +0.000 A 
ATOM      3  C   UNL     1       7.267   5.233  19.473  0.00  0.00    +0.000 A 
ATOM      4  C   UNL     1       6.589   4.444  18.548  0.00  0.00    +0.000 A 
ATOM      5  C   UNL     1       6.193   4.996  17.319  0.00  0.00    +0.000 A 
ATOM      6  C   UNL     1       6.746   6.215  16.910  0.00  0.00    +0.000 A 
ENDROOT
BRANCH   5   7
ATOM      7  N   UNL     1       4.940   4.585  16.704  0.00  0.00    +0.000 N 
ATOM      8  C   UNL     1       4.110   5.780  16.434  0.00  0.00    +0.000 C 
ATOM      9  C   UNL     1       3.328   5.888  17.701  0.00  0.00    +0.000 A 
ATOM     10  C   UNL     1       3.001   7.009  18.439  0.00  0.00    +0.000 A 
ATOM     11  C   UNL     1       2.484   6.812  19.720  0.00  0.00    +0.000 A 
ATOM     12  C   UNL     1       2.254   5.514  20.217  0.00  0.00    +0.000 A 
ATOM     13  C   UNL     1       2.587   4.371  19.466  0.00  0.00    +0.000 A 
ATOM     14  C   UNL     1       3.170   4.605  18.228  0.00  0.00    +0.000 A 
ATOM     15  C   UNL     1       4.107   3.726  17.480  0.00  0.00    +0.000 C 
ATOM     16  O   UNL     1       4.235   2.532  17.665  0.00  0.00    +0.000 OA
BRANCH  13  17
ATOM     17  C   UNL     1       2.371   2.984  19.992  0.00  0.00    +0.000 C 
ATOM     18  F   UNL     1       1.553   2.972  21.087  0.00  0.00    +0.000 F 
ATOM     19  F   UNL     1       1.761   2.174  19.085  0.00  0.00    +0.000 F 
ATOM     20  F   UNL     1       3.507   2.360  20.395  0.00  0.00    +0.000 F 
ENDBRANCH  13  17
ENDBRANCH   5   7
BRANCH   1  21
ATOM     21  C   UNL     1       8.030   8.333  17.417  0.00  0.00    +0.000 C 
BRANCH  21  22
ATOM     22  N   UNL     1       8.585   9.073  18.557  0.00  0.00    +0.000 NA
ATOM     23  H   UNL     1       7.847   9.144  19.261  0.00  0.00    +0.000 HD
BRANCH  22  24
ATOM     24  C   UNL     1       8.975  10.452  18.213  0.00  0.00    +0.000 C 
BRANCH  24  30
ATOM     25  C   UNL     1      11.734  11.891  18.033  0.00  0.00    +0.000 C 
ATOM     26  N   UNL     1      10.900  11.787  19.200  0.00  0.00    +0.000 N 
ATOM     27  C   UNL     1      11.169  12.316  20.423  0.00  0.00    +0.000 A 
ATOM     28  N   UNL     1      10.199  12.016  21.254  0.00  0.00    +0.000 NA
ATOM     29  N   UNL     1       9.277  11.274  20.569  0.00  0.00    +0.000 NA
ATOM     30  C   UNL     1       9.690  11.141  19.320  0.00  0.00    +0.000 A 
ENDBRANCH  24  30
ENDBRANCH  22  24
ENDBRANCH  21  22
ENDBRANCH   1  21
TORSDOF 6
ENDMDL
MODEL 8
REMARK VINA RESULT:      -7.8      4.964      7.104
REMARK  Name = 
REMARK  7 active torsions:
REMARK  status: ('A' for Active; 'I' for Inactive)
REMARK    1  A    between atoms: C_1  and  N_2
REMARK    2  A    between atoms: C_6  and  C_7
REMARK    3  A    between atoms: C_7  and  N_8
REMARK    4  A    between atoms: N_8  and  C_9
REMARK    5  A    between atoms: C_9  and  C_10
REMARK    6  A    between atoms: C_14  and  N_15
REMARK    7  A    between atoms: C_21  and  C_22
REMARK                            x       y       z     vdW  Elec       q    Type
REMARK                         _______ _______ _______ _____ _____    ______ ____
ROOT
ATOM      1  C   UNL     1       1.952   6.741  20.067  0.00  0.00    +0.000 A 
ATOM      2  C   UNL     1       2.370   7.801  19.250  0.00  0.00    +0.000 A 
ATOM      3  C   UNL     1       2.837   7.556  17.965  0.00  0.00    +0.000 A 
ATOM      4  C   UNL     1       3.000   6.245  17.525  0.00  0.00    +0.000 A 
ATOM      5  C   UNL     1       2.808   5.181  18.421  0.00  0.00    +0.000 A 
ATOM      6  C   UNL     1       2.162   5.424  19.639  0.00  0.00    +0.000 A 
ENDROOT
BRANCH   5   7
ATOM      7  N   UNL     1       3.633   3.986  18.323  0.00  0.00    +0.000 N 
ATOM      8  C   UNL     1       4.646   4.000  19.401  0.00  0.00    +0.000 C 
ATOM      9  C   UNL     1       5.779   4.705  18.732  0.00  0.00    +0.000 A 
ATOM     10  C   UNL     1       6.629   5.674  19.231  0.00  0.00    +0.000 A 
ATOM     11  C   UNL     1       7.438   6.356  18.321  0.00  0.00    +0.000 A 
ATOM     12  C   UNL     1       7.424   6.027  16.952  0.00  0.00    +0.000 A 
ATOM     13  C   UNL     1       6.558   5.041  16.442  0.00  0.00    +0.000 A 
ATOM     14  C   UNL     1       5.714   4.437  17.363  0.00  0.00    +0.000 A 
ATOM     15  C   UNL     1       4.379   3.832  17.118  0.00  0.00    +0.000 C 
ATOM     16  O   UNL     1       3.976   3.460  16.034  0.00  0.00    +0.000 OA
BRANCH  13  17
ATOM     17  C   UNL     1       6.516   4.698  14.983  0.00  0.00    +0.000 C 
ATOM     18  F   UNL     1       7.610   5.171  14.313  0.00  0.00    +0.000 F 
ATOM     19  F   UNL     1       6.519   3.356  14.765  0.00  0.00    +0.000 F 
ATOM     20  F   UNL     1       5.449   5.216  14.322  0.00  0.00    +0.000 F 
ENDBRANCH  13  17
ENDBRANCH   5   7
BRANCH   1  21
ATOM     21  C   UNL     1       1.306   7.025  21.398  0.00  0.00    +0.000 C 
BRANCH  21  22
ATOM     22  N   UNL     1       1.226   8.464  21.684  0.00  0.00    +0.000 NA
ATOM     23  H   UNL     1       1.690   8.621  22.581  0.00  0.00    +0.000 HD
BRANCH  22  24
ATOM     24  C   UNL     1      -0.159   8.944  21.834  0.00  0.00    +0.000 C 
BRANCH  24  30
ATOM     25  C   UNL     1       0.414  11.179  19.739  0.00  0.00    +0.000 C 
ATOM     26  N   UNL     1       0.001  11.374  21.103  0.00  0.00    +0.000 N 
ATOM     27  C   UNL     1      -0.225  12.571  21.706  0.00  0.00    +0.000 A 
ATOM     28  N   UNL     1      -0.575  12.374  22.956  0.00  0.00    +0.000 NA
ATOM     29  N   UNL     1      -0.575  11.025  23.182  0.00  0.00    +0.000 NA
ATOM     30  C   UNL     1      -0.237  10.412  22.059  0.00  0.00    +0.000 A 
ENDBRANCH  24  30
ENDBRANCH  22  24
ENDBRANCH  21  22
ENDBRANCH   1  21
TORSDOF 6
ENDMDL
MODEL 9
REMARK VINA RESULT:      -7.8      4.742      6.623
REMARK  Name = 
REMARK  7 active torsions:
REMARK  status: ('A' for Active; 'I' for Inactive)
REMARK    1  A    between atoms: C_1  and  N_2
REMARK    2  A    between atoms: C_6  and  C_7
REMARK    3  A    between atoms: C_7  and  N_8
REMARK    4  A    between atoms: N_8  and  C_9
REMARK    5  A    between atoms: C_9  and  C_10
REMARK    6  A    between atoms: C_14  and  N_15
REMARK    7  A    between atoms: C_21  and  C_22
REMARK                            x       y       z     vdW  Elec       q    Type
REMARK                         _______ _______ _______ _____ _____    ______ ____
ROOT
ATOM      1  C   UNL     1       1.857   7.073  20.081  0.00  0.00    +0.000 A 
ATOM      2  C   UNL     1       2.346   8.067  19.221  0.00  0.00    +0.000 A 
ATOM      3  C   UNL     1       2.831   7.731  17.963  0.00  0.00    +0.000 A 
ATOM      4  C   UNL     1       2.937   6.393  17.596  0.00  0.00    +0.000 A 
ATOM      5  C   UNL     1       2.671   5.388  18.540  0.00  0.00    +0.000 A 
ATOM      6  C   UNL     1       2.010   5.727  19.727  0.00  0.00    +0.000 A 
ENDROOT
BRANCH   5   7
ATOM      7  N   UNL     1       3.437   4.150  18.526  0.00  0.00    +0.000 N 
ATOM      8  C   UNL     1       4.458   4.193  19.595  0.00  0.00    +0.000 C 
ATOM      9  C   UNL     1       5.618   4.793  18.872  0.00  0.00    +0.000 A 
ATOM     10  C   UNL     1       6.517   5.752  19.297  0.00  0.00    +0.000 A 
ATOM     11  C   UNL     1       7.351   6.327  18.337  0.00  0.00    +0.000 A 
ATOM     12  C   UNL     1       7.311   5.901  16.995  0.00  0.00    +0.000 A 
ATOM     13  C   UNL     1       6.395   4.924  16.561  0.00  0.00    +0.000 A 
ATOM     14  C   UNL     1       5.530   4.430  17.527  0.00  0.00    +0.000 A 
ATOM     15  C   UNL     1       4.166   3.874  17.332  0.00  0.00    +0.000 C 
ATOM     16  O   UNL     1       3.737   3.445  16.279  0.00  0.00    +0.000 OA
BRANCH  13  17
ATOM     17  C   UNL     1       6.326   4.479  15.131  0.00  0.00    +0.000 C 
ATOM     18  F   UNL     1       5.253   5.018  14.478  0.00  0.00    +0.000 F 
ATOM     19  F   UNL     1       7.412   4.870  14.412  0.00  0.00    +0.000 F 
ATOM     20  F   UNL     1       6.194   3.137  14.974  0.00  0.00    +0.000 F 
ENDBRANCH  13  17
ENDBRANCH   5   7
BRANCH   1  21
ATOM     21  C   UNL     1       1.195   7.459  21.378  0.00  0.00    +0.000 C 
BRANCH  21  22
ATOM     22  N   UNL     1       1.650   8.766  21.870  0.00  0.00    +0.000 NA
ATOM     23  H   UNL     1       2.036   8.621  22.805  0.00  0.00    +0.000 HD
BRANCH  22  24
ATOM     24  C   UNL     1       0.554   9.741  22.010  0.00  0.00    +0.000 C 
BRANCH  24  30
ATOM     25  C   UNL     1      -0.804  10.122  19.231  0.00  0.00    +0.000 C 
ATOM     26  N   UNL     1       0.071  11.056  19.889  0.00  0.00    +0.000 N 
ATOM     27  C   UNL     1       0.441  12.274  19.413  0.00  0.00    +0.000 A 
ATOM     28  N   UNL     1       1.256  12.849  20.266  0.00  0.00    +0.000 NA
ATOM     29  N   UNL     1       1.429  11.994  21.320  0.00  0.00    +0.000 NA
ATOM     30  C   UNL     1       0.704  10.909  21.102  0.00  0.00    +0.000 A 
ENDBRANCH  24  30
ENDBRANCH  22  24
ENDBRANCH  21  22
ENDBRANCH   1  21
TORSDOF 6
ENDMDL
