MODEL 1
REMARK VINA RESULT:      -9.8      0.000      0.000
REMARK  Name = 
REMARK  6 active torsions:
REMARK  status: ('A' for Active; 'I' for Inactive)
REMARK    1  A    between atoms: C_1  and  N_2
REMARK    2  A    between atoms: C_6  and  C_7
REMARK    3  A    between atoms: C_7  and  C_8
REMARK    4  A    between atoms: C_8  and  C_9
REMARK    5  A    between atoms: C_13  and  N_14
REMARK    6  A    between atoms: C_20  and  C_21
REMARK                            x       y       z     vdW  Elec       q    Type
REMARK                         _______ _______ _______ _____ _____    ______ ____
ROOT
ATOM      1  C   UNL     1       4.547   4.972  17.325  0.00  0.00    +0.000 A 
ATOM      2  C   UNL     1       3.669   3.898  17.219  0.00  0.00    +0.000 A 
ATOM      3  C   UNL     1       2.356   4.059  17.630  0.00  0.00    +0.000 A 
ATOM      4  C   UNL     1       1.948   5.293  18.126  0.00  0.00    +0.000 A 
ATOM      5  C   UNL     1       2.852   6.349  18.216  0.00  0.00    +0.000 A 
ATOM      6  N   UNL     1       4.145   6.165  17.851  0.00  0.00    +0.000 NA
ENDROOT
BRANCH   5   7
ATOM      7  N   UNL     1       2.464   7.580  18.702  0.00  0.00    +0.000 N 
ATOM      8  C   UNL     1       2.220   8.674  17.755  0.00  0.00    +0.000 C 
ATOM      9  C   UNL     1       1.565   9.707  18.627  0.00  0.00    +0.000 A 
ATOM     10  C   UNL     1       1.284  11.031  18.333  0.00  0.00    +0.000 A 
ATOM     11  C   UNL     1       0.660  11.811  19.309  0.00  0.00    +0.000 A 
ATOM     12  C   UNL     1       0.314  11.260  20.553  0.00  0.00    +0.000 A 
ATOM     13  C   UNL     1       0.585   9.913  20.852  0.00  0.00    +0.000 A 
ATOM     14  C   UNL     1       1.224   9.155  19.869  0.00  0.00    +0.000 A 
ATOM     15  C   UNL     1       1.641   7.711  19.912  0.00  0.00    +0.000 C 
BRANCH  13  16
ATOM     16  C   UNL     1       0.203   9.313  22.178  0.00  0.00    +0.000 C 
ATOM     17  F   UNL     1      -0.653   8.257  22.078  0.00  0.00    +0.000 F 
ATOM     18  F   UNL     1       1.281   8.853  22.870  0.00  0.00    +0.000 F 
ATOM     19  F   UNL     1      -0.408  10.211  23.000  0.00  0.00    +0.000 F 
ENDBRANCH  13  16
ENDBRANCH   5   7
BRANCH   1  20
ATOM     20  C   UNL     1       6.050   4.951  16.826  0.00  0.00    +0.000 C 
ATOM     21  C   UNL     1       6.772   6.319  16.680  0.00  0.00    +0.000 C 
ATOM     22  O   UNL     1       7.769   5.969  17.664  0.00  0.00    +0.000 OA
ATOM     23  C   UNL     1       7.120   4.708  17.925  0.00  0.00    +0.000 C 
BRANCH  20  24
ATOM     24  C   UNL     1       6.230   3.986  15.639  0.00  0.00    +0.000 C 
BRANCH  24  30
ATOM     25  C   UNL     1       5.724   3.349  12.584  0.00  0.00    +0.000 C 
ATOM     26  N   UNL     1       6.675   4.279  13.134  0.00  0.00    +0.000 N 
ATOM     27  C   UNL     1       7.563   5.013  12.408  0.00  0.00    +0.000 A 
ATOM     28  N   UNL     1       8.275   5.762  13.215  0.00  0.00    +0.000 NA
ATOM     29  N   UNL     1       7.857   5.504  14.495  0.00  0.00    +0.000 NA
ATOM     30  C   UNL     1       6.897   4.601  14.450  0.00  0.00    +0.000 A 
ENDBRANCH  24  30
ENDBRANCH  20  24
ENDBRANCH   1  20
TORSDOF 5
ENDMDL
MODEL 2
REMARK VINA RESULT:      -9.4      1.306      1.725
REMARK  Name = 
REMARK  6 active torsions:
REMARK  status: ('A' for Active; 'I' for Inactive)
REMARK    1  A    between atoms: C_1  and  N_2
REMARK    2  A    between atoms: C_6  and  C_7
REMARK    3  A    between atoms: C_7  and  C_8
REMARK    4  A    between atoms: C_8  and  C_9
REMARK    5  A    between atoms: C_13  and  N_14
REMARK    6  A    between atoms: C_20  and  C_21
REMARK                            x       y       z     vdW  Elec       q    Type
REMARK                         _______ _______ _______ _____ _____    ______ ____
ROOT
ATOM      1  C   UNL     1       5.438   5.289  18.848  0.00  0.00    +0.000 A 
ATOM      2  C   UNL     1       4.938   4.033  19.176  0.00  0.00    +0.000 A 
ATOM      3  C   UNL     1       3.630   3.924  19.618  0.00  0.00    +0.000 A 
ATOM      4  C   UNL     1       2.848   5.071  19.711  0.00  0.00    +0.000 A 
ATOM      5  C   UNL     1       3.379   6.313  19.372  0.00  0.00    +0.000 A 
ATOM      6  N   UNL     1       4.674   6.412  18.982  0.00  0.00    +0.000 NA
ENDROOT
BRANCH   5   7
ATOM      7  N   UNL     1       2.617   7.460  19.454  0.00  0.00    +0.000 N 
ATOM      8  C   UNL     1       2.103   8.064  18.220  0.00  0.00    +0.000 C 
ATOM      9  C   UNL     1       1.128   9.079  18.745  0.00  0.00    +0.000 A 
ATOM     10  C   UNL     1       0.479  10.089  18.054  0.00  0.00    +0.000 A 
ATOM     11  C   UNL     1      -0.396  10.918  18.758  0.00  0.00    +0.000 A 
ATOM     12  C   UNL     1      -0.622  10.722  20.130  0.00  0.00    +0.000 A 
ATOM     13  C   UNL     1       0.024   9.690  20.833  0.00  0.00    +0.000 A 
ATOM     14  C   UNL     1       0.908   8.883  20.115  0.00  0.00    +0.000 A 
ATOM     15  C   UNL     1       1.735   7.724  20.599  0.00  0.00    +0.000 C 
BRANCH  13  16
ATOM     16  C   UNL     1      -0.226   9.466  22.300  0.00  0.00    +0.000 C 
ATOM     17  F   UNL     1       0.912   9.376  23.044  0.00  0.00    +0.000 F 
ATOM     18  F   UNL     1      -0.959  10.467  22.860  0.00  0.00    +0.000 F 
ATOM     19  F   UNL     1      -0.921   8.320  22.542  0.00  0.00    +0.000 F 
ENDBRANCH  13  16
ENDBRANCH   5   7
BRANCH   1  20
ATOM     20  C   UNL     1       6.885   5.550  18.261  0.00  0.00    +0.000 C 
ATOM     21  C   UNL     1       7.194   6.978  17.734  0.00  0.00    +0.000 C 
ATOM     22  O   UNL     1       8.250   7.175  18.698  0.00  0.00    +0.000 OA
ATOM     23  C   UNL     1       7.983   5.895  19.305  0.00  0.00    +0.000 C 
BRANCH  20  24
ATOM     24  C   UNL     1       7.327   4.400  17.336  0.00  0.00    +0.000 C 
BRANCH  24  30
ATOM     25  C   UNL     1       4.672   3.466  15.899  0.00  0.00    +0.000 C 
ATOM     26  N   UNL     1       5.792   4.144  15.303  0.00  0.00    +0.000 N 
ATOM     27  C   UNL     1       5.909   4.453  13.982  0.00  0.00    +0.000 A 
ATOM     28  N   UNL     1       7.045   5.073  13.775  0.00  0.00    +0.000 NA
ATOM     29  N   UNL     1       7.694   5.159  14.981  0.00  0.00    +0.000 NA
ATOM     30  C   UNL     1       6.944   4.590  15.904  0.00  0.00    +0.000 A 
ENDBRANCH  24  30
ENDBRANCH  20  24
ENDBRANCH   1  20
TORSDOF 5
ENDMDL
MODEL 3
REMARK VINA RESULT:      -9.4      1.694      2.771
REMARK  Name = 
REMARK  6 active torsions:
REMARK  status: ('A' for Active; 'I' for Inactive)
REMARK    1  A    between atoms: C_1  and  N_2
REMARK    2  A    between atoms: C_6  and  C_7
REMARK    3  A    between atoms: C_7  and  C_8
REMARK    4  A    between atoms: C_8  and  C_9
REMARK    5  A    between atoms: C_13  and  N_14
REMARK    6  A    between atoms: C_20  and  C_21
REMARK                            x       y       z     vdW  Elec       q    Type
REMARK                         _______ _______ _______ _____ _____    ______ ____
ROOT
ATOM      1  C   UNL     1       4.345   4.508  17.257  0.00  0.00    +0.000 A 
ATOM      2  C   UNL     1       3.598   3.394  17.625  0.00  0.00    +0.000 A 
ATOM      3  C   UNL     1       2.475   3.568  18.418  0.00  0.00    +0.000 A 
ATOM      4  C   UNL     1       2.119   4.852  18.816  0.00  0.00    +0.000 A 
ATOM      5  C   UNL     1       2.888   5.946  18.428  0.00  0.00    +0.000 A 
ATOM      6  N   UNL     1       4.009   5.759  17.688  0.00  0.00    +0.000 NA
ENDROOT
BRANCH   5   7
ATOM      7  N   UNL     1       2.548   7.227  18.811  0.00  0.00    +0.000 N 
ATOM      8  C   UNL     1       2.372   8.255  17.779  0.00  0.00    +0.000 C 
ATOM      9  C   UNL     1       1.749   9.381  18.556  0.00  0.00    +0.000 A 
ATOM     10  C   UNL     1       1.536  10.689  18.156  0.00  0.00    +0.000 A 
ATOM     11  C   UNL     1       0.930  11.568  19.056  0.00  0.00    +0.000 A 
ATOM     12  C   UNL     1       0.536  11.130  20.331  0.00  0.00    +0.000 A 
ATOM     13  C   UNL     1       0.740   9.800  20.737  0.00  0.00    +0.000 A 
ATOM     14  C   UNL     1       1.361   8.941  19.828  0.00  0.00    +0.000 A 
ATOM     15  C   UNL     1       1.711   7.488  19.989  0.00  0.00    +0.000 C 
BRANCH  13  16
ATOM     16  C   UNL     1       0.306   9.321  22.096  0.00  0.00    +0.000 C 
ATOM     17  F   UNL     1      -0.598   8.303  22.058  0.00  0.00    +0.000 F 
ATOM     18  F   UNL     1       1.349   8.864  22.842  0.00  0.00    +0.000 F 
ATOM     19  F   UNL     1      -0.273  10.307  22.836  0.00  0.00    +0.000 F 
ENDBRANCH  13  16
ENDBRANCH   5   7
BRANCH   1  20
ATOM     20  C   UNL     1       5.603   4.464  16.297  0.00  0.00    +0.000 C 
ATOM     21  C   UNL     1       5.567   3.448  15.121  0.00  0.00    +0.000 C 
ATOM     22  O   UNL     1       5.654   4.495  14.131  0.00  0.00    +0.000 OA
ATOM     23  C   UNL     1       5.612   5.512  15.151  0.00  0.00    +0.000 C 
BRANCH  20  24
ATOM     24  C   UNL     1       6.918   4.491  17.098  0.00  0.00    +0.000 C 
BRANCH  24  30
ATOM     25  C   UNL     1       7.932   5.606  19.877  0.00  0.00    +0.000 C 
ATOM     26  N   UNL     1       7.819   6.328  18.637  0.00  0.00    +0.000 N 
ATOM     27  C   UNL     1       8.092   7.652  18.474  0.00  0.00    +0.000 A 
ATOM     28  N   UNL     1       7.894   7.990  17.223  0.00  0.00    +0.000 NA
ATOM     29  N   UNL     1       7.469   6.870  16.555  0.00  0.00    +0.000 NA
ATOM     30  C   UNL     1       7.413   5.867  17.409  0.00  0.00    +0.000 A 
ENDBRANCH  24  30
ENDBRANCH  20  24
ENDBRANCH   1  20
TORSDOF 5
ENDMDL
MODEL 4
REMARK VINA RESULT:      -9.3      2.897      4.220
REMARK  Name = 
REMARK  6 active torsions:
REMARK  status: ('A' for Active; 'I' for Inactive)
REMARK    1  A    between atoms: C_1  and  N_2
REMARK    2  A    between atoms: C_6  and  C_7
REMARK    3  A    between atoms: C_7  and  C_8
REMARK    4  A    between atoms: C_8  and  C_9
REMARK    5  A    between atoms: C_13  and  N_14
REMARK    6  A    between atoms: C_20  and  C_21
REMARK                            x       y       z     vdW  Elec       q    Type
REMARK                         _______ _______ _______ _____ _____    ______ ____
ROOT
ATOM      1  C   UNL     1       3.137   5.715  18.263  0.00  0.00    +0.000 A 
ATOM      2  C   UNL     1       3.881   6.356  17.278  0.00  0.00    +0.000 A 
ATOM      3  C   UNL     1       3.721   7.720  17.095  0.00  0.00    +0.000 A 
ATOM      4  C   UNL     1       2.831   8.413  17.907  0.00  0.00    +0.000 A 
ATOM      5  C   UNL     1       2.103   7.741  18.887  0.00  0.00    +0.000 A 
ATOM      6  N   UNL     1       2.236   6.399  19.028  0.00  0.00    +0.000 NA
ENDROOT
BRANCH   5   7
ATOM      7  N   UNL     1       1.219   8.414  19.704  0.00  0.00    +0.000 N 
ATOM      8  C   UNL     1       1.267   8.178  21.151  0.00  0.00    +0.000 C 
ATOM      9  C   UNL     1       0.381   9.270  21.680  0.00  0.00    +0.000 A 
ATOM     10  C   UNL     1      -0.112   9.434  22.964  0.00  0.00    +0.000 A 
ATOM     11  C   UNL     1      -0.924  10.540  23.227  0.00  0.00    +0.000 A 
ATOM     12  C   UNL     1      -1.220  11.468  22.216  0.00  0.00    +0.000 A 
ATOM     13  C   UNL     1      -0.712  11.313  20.914  0.00  0.00    +0.000 A 
ATOM     14  C   UNL     1       0.083  10.192  20.668  0.00  0.00    +0.000 A 
ATOM     15  C   UNL     1       0.747   9.769  19.387  0.00  0.00    +0.000 C 
BRANCH  13  16
ATOM     16  C   UNL     1      -1.014  12.312  19.831  0.00  0.00    +0.000 C 
ATOM     17  F   UNL     1      -1.705  11.791  18.779  0.00  0.00    +0.000 F 
ATOM     18  F   UNL     1      -1.760  13.358  20.284  0.00  0.00    +0.000 F 
ATOM     19  F   UNL     1       0.112  12.864  19.301  0.00  0.00    +0.000 F 
ENDBRANCH  13  16
ENDBRANCH   5   7
BRANCH   1  20
ATOM     20  C   UNL     1       3.273   4.181  18.630  0.00  0.00    +0.000 C 
ATOM     21  C   UNL     1       2.846   3.750  20.061  0.00  0.00    +0.000 C 
ATOM     22  O   UNL     1       1.813   2.877  19.558  0.00  0.00    +0.000 OA
ATOM     23  C   UNL     1       2.085   3.278  18.200  0.00  0.00    +0.000 C 
BRANCH  20  24
ATOM     24  C   UNL     1       4.620   3.610  18.149  0.00  0.00    +0.000 C 
BRANCH  24  30
ATOM     25  C   UNL     1       7.067   4.548  16.382  0.00  0.00    +0.000 C 
ATOM     26  N   UNL     1       6.872   4.775  17.790  0.00  0.00    +0.000 N 
ATOM     27  C   UNL     1       7.757   5.403  18.613  0.00  0.00    +0.000 A 
ATOM     28  N   UNL     1       7.268   5.448  19.828  0.00  0.00    +0.000 NA
ATOM     29  N   UNL     1       6.046   4.825  19.806  0.00  0.00    +0.000 NA
ATOM     30  C   UNL     1       5.809   4.409  18.578  0.00  0.00    +0.000 A 
ENDBRANCH  24  30
ENDBRANCH  20  24
ENDBRANCH   1  20
TORSDOF 5
ENDMDL
MODEL 5
REMARK VINA RESULT:      -9.2      4.362      8.960
REMARK  Name = 
REMARK  6 active torsions:
REMARK  status: ('A' for Active; 'I' for Inactive)
REMARK    1  A    between atoms: C_1  and  N_2
REMARK    2  A    between atoms: C_6  and  C_7
REMARK    3  A    between atoms: C_7  and  C_8
REMARK    4  A    between atoms: C_8  and  C_9
REMARK    5  A    between atoms: C_13  and  N_14
REMARK    6  A    between atoms: C_20  and  C_21
REMARK                            x       y       z     vdW  Elec       q    Type
REMARK                         _______ _______ _______ _____ _____    ______ ____
ROOT
ATOM      1  C   UNL     1       0.548  10.146  19.955  0.00  0.00    +0.000 A 
ATOM      2  C   UNL     1       0.441   9.828  21.305  0.00  0.00    +0.000 A 
ATOM      3  C   UNL     1       0.981   8.637  21.761  0.00  0.00    +0.000 A 
ATOM      4  C   UNL     1       1.625   7.796  20.859  0.00  0.00    +0.000 A 
ATOM      5  C   UNL     1       1.717   8.145  19.515  0.00  0.00    +0.000 A 
ATOM      6  N   UNL     1       1.147   9.294  19.073  0.00  0.00    +0.000 NA
ENDROOT
BRANCH   5   7
ATOM      7  N   UNL     1       2.355   7.325  18.608  0.00  0.00    +0.000 N 
ATOM      8  C   UNL     1       3.472   7.863  17.824  0.00  0.00    +0.000 C 
ATOM      9  C   UNL     1       4.048   6.625  17.199  0.00  0.00    +0.000 A 
ATOM     10  C   UNL     1       5.001   6.526  16.199  0.00  0.00    +0.000 A 
ATOM     11  C   UNL     1       5.390   5.254  15.775  0.00  0.00    +0.000 A 
ATOM     12  C   UNL     1       4.837   4.103  16.360  0.00  0.00    +0.000 A 
ATOM     13  C   UNL     1       3.878   4.197  17.384  0.00  0.00    +0.000 A 
ATOM     14  C   UNL     1       3.491   5.478  17.782  0.00  0.00    +0.000 A 
ATOM     15  C   UNL     1       2.493   5.880  18.833  0.00  0.00    +0.000 C 
BRANCH  13  16
ATOM     16  C   UNL     1       3.294   2.968  18.025  0.00  0.00    +0.000 C 
ATOM     17  F   UNL     1       1.946   2.852  17.864  0.00  0.00    +0.000 F 
ATOM     18  F   UNL     1       3.828   1.819  17.526  0.00  0.00    +0.000 F 
ATOM     19  F   UNL     1       3.513   2.925  19.368  0.00  0.00    +0.000 F 
ENDBRANCH  13  16
ENDBRANCH   5   7
BRANCH   1  20
ATOM     20  C   UNL     1       0.045  11.503  19.313  0.00  0.00    +0.000 C 
ATOM     21  C   UNL     1      -1.043  11.409  18.208  0.00  0.00    +0.000 C 
ATOM     22  O   UNL     1      -1.989  12.173  18.986  0.00  0.00    +0.000 OA
ATOM     23  C   UNL     1      -1.073  12.244  20.096  0.00  0.00    +0.000 C 
BRANCH  20  24
ATOM     24  C   UNL     1       1.225  12.439  18.991  0.00  0.00    +0.000 C 
BRANCH  24  30
ATOM     25  C   UNL     1       0.691  15.554  19.045  0.00  0.00    +0.000 C 
ATOM     26  N   UNL     1       1.331  14.762  20.061  0.00  0.00    +0.000 N 
ATOM     27  C   UNL     1       1.866  15.252  21.214  0.00  0.00    +0.000 A 
ATOM     28  N   UNL     1       2.363  14.265  21.920  0.00  0.00    +0.000 NA
ATOM     29  N   UNL     1       2.165  13.108  21.210  0.00  0.00    +0.000 NA
ATOM     30  C   UNL     1       1.550  13.407  20.083  0.00  0.00    +0.000 A 
ENDBRANCH  24  30
ENDBRANCH  20  24
ENDBRANCH   1  20
TORSDOF 5
ENDMDL
MODEL 6
REMARK VINA RESULT:      -9.1      1.940      3.042
REMARK  Name = 
REMARK  6 active torsions:
REMARK  status: ('A' for Active; 'I' for Inactive)
REMARK    1  A    between atoms: C_1  and  N_2
REMARK    2  A    between atoms: C_6  and  C_7
REMARK    3  A    between atoms: C_7  and  C_8
REMARK    4  A    between atoms: C_8  and  C_9
REMARK    5  A    between atoms: C_13  and  N_14
REMARK    6  A    between atoms: C_20  and  C_21
REMARK                            x       y       z     vdW  Elec       q    Type
REMARK                         _______ _______ _______ _____ _____    ______ ____
ROOT
ATOM      1  C   UNL     1       4.479   4.816  16.825  0.00  0.00    +0.000 A 
ATOM      2  C   UNL     1       3.844   3.644  17.224  0.00  0.00    +0.000 A 
ATOM      3  C   UNL     1       2.787   3.721  18.116  0.00  0.00    +0.000 A 
ATOM      4  C   UNL     1       2.381   4.968  18.580  0.00  0.00    +0.000 A 
ATOM      5  C   UNL     1       3.037   6.122  18.158  0.00  0.00    +0.000 A 
ATOM      6  N   UNL     1       4.098   6.030  17.318  0.00  0.00    +0.000 NA
ENDROOT
BRANCH   5   7
ATOM      7  N   UNL     1       2.646   7.367  18.605  0.00  0.00    +0.000 N 
ATOM      8  C   UNL     1       2.475   8.452  17.632  0.00  0.00    +0.000 C 
ATOM      9  C   UNL     1       1.793   9.510  18.452  0.00  0.00    +0.000 A 
ATOM     10  C   UNL     1       1.554  10.834  18.125  0.00  0.00    +0.000 A 
ATOM     11  C   UNL     1       0.891  11.638  19.054  0.00  0.00    +0.000 A 
ATOM     12  C   UNL     1       0.466  11.112  20.284  0.00  0.00    +0.000 A 
ATOM     13  C   UNL     1       0.695   9.765  20.616  0.00  0.00    +0.000 A 
ATOM     14  C   UNL     1       1.373   8.982  19.681  0.00  0.00    +0.000 A 
ATOM     15  C   UNL     1       1.760   7.531  19.766  0.00  0.00    +0.000 C 
BRANCH  13  16
ATOM     16  C   UNL     1       0.228   9.191  21.927  0.00  0.00    +0.000 C 
ATOM     17  F   UNL     1       1.235   8.698  22.701  0.00  0.00    +0.000 F 
ATOM     18  F   UNL     1      -0.415  10.112  22.696  0.00  0.00    +0.000 F 
ATOM     19  F   UNL     1      -0.653   8.165  21.763  0.00  0.00    +0.000 F 
ENDBRANCH  13  16
ENDBRANCH   5   7
BRANCH   1  20
ATOM     20  C   UNL     1       5.647   4.882  15.758  0.00  0.00    +0.000 C 
ATOM     21  C   UNL     1       6.275   3.535  15.304  0.00  0.00    +0.000 C 
ATOM     22  O   UNL     1       5.877   3.740  13.932  0.00  0.00    +0.000 OA
ATOM     23  C   UNL     1       5.198   4.965  14.273  0.00  0.00    +0.000 C 
BRANCH  20  24
ATOM     24  C   UNL     1       6.657   5.991  16.106  0.00  0.00    +0.000 C 
BRANCH  24  30
ATOM     25  C   UNL     1       7.866   8.300  17.895  0.00  0.00    +0.000 C 
ATOM     26  N   UNL     1       7.780   6.901  18.219  0.00  0.00    +0.000 N 
ATOM     27  C   UNL     1       8.263   6.330  19.357  0.00  0.00    +0.000 A 
ATOM     28  N   UNL     1       8.014   5.043  19.342  0.00  0.00    +0.000 NA
ATOM     29  N   UNL     1       7.369   4.761  18.165  0.00  0.00    +0.000 NA
ATOM     30  C   UNL     1       7.235   5.881  17.480  0.00  0.00    +0.000 A 
ENDBRANCH  24  30
ENDBRANCH  20  24
ENDBRANCH   1  20
TORSDOF 5
ENDMDL
MODEL 7
REMARK VINA RESULT:      -9.1      0.768      1.285
REMARK  Name = 
REMARK  6 active torsions:
REMARK  status: ('A' for Active; 'I' for Inactive)
REMARK    1  A    between atoms: C_1  and  N_2
REMARK    2  A    between atoms: C_6  and  C_7
REMARK    3  A    between atoms: C_7  and  C_8
REMARK    4  A    between atoms: C_8  and  C_9
REMARK    5  A    between atoms: C_13  and  N_14
REMARK    6  A    between atoms: C_20  and  C_21
REMARK                            x       y       z     vdW  Elec       q    Type
REMARK                         _______ _______ _______ _____ _____    ______ ____
ROOT
ATOM      1  C   UNL     1       4.527   5.373  17.220  0.00  0.00    +0.000 A 
ATOM      2  C   UNL     1       3.753   4.217  17.242  0.00  0.00    +0.000 A 
ATOM      3  C   UNL     1       2.488   4.265  17.804  0.00  0.00    +0.000 A 
ATOM      4  C   UNL     1       2.022   5.469  18.322  0.00  0.00    +0.000 A 
ATOM      5  C   UNL     1       2.822   6.608  18.282  0.00  0.00    +0.000 A 
ATOM      6  N   UNL     1       4.075   6.538  17.768  0.00  0.00    +0.000 NA
ENDROOT
BRANCH   5   7
ATOM      7  N   UNL     1       2.374   7.811  18.787  0.00  0.00    +0.000 N 
ATOM      8  C   UNL     1       2.065   8.903  17.858  0.00  0.00    +0.000 C 
ATOM      9  C   UNL     1       1.365   9.889  18.749  0.00  0.00    +0.000 A 
ATOM     10  C   UNL     1       1.013  11.200  18.474  0.00  0.00    +0.000 A 
ATOM     11  C   UNL     1       0.358  11.934  19.466  0.00  0.00    +0.000 A 
ATOM     12  C   UNL     1       0.052  11.349  20.705  0.00  0.00    +0.000 A 
ATOM     13  C   UNL     1       0.395  10.015  20.984  0.00  0.00    +0.000 A 
ATOM     14  C   UNL     1       1.064   9.304  19.986  0.00  0.00    +0.000 A 
ATOM     15  C   UNL     1       1.556   7.884  20.006  0.00  0.00    +0.000 C 
BRANCH  13  16
ATOM     16  C   UNL     1       0.056   9.379  22.305  0.00  0.00    +0.000 C 
ATOM     17  F   UNL     1      -0.774   8.303  22.200  0.00  0.00    +0.000 F 
ATOM     18  F   UNL     1       1.161   8.933  22.965  0.00  0.00    +0.000 F 
ATOM     19  F   UNL     1      -0.560  10.243  23.158  0.00  0.00    +0.000 F 
ENDBRANCH  13  16
ENDBRANCH   5   7
BRANCH   1  20
ATOM     20  C   UNL     1       5.955   5.480  16.545  0.00  0.00    +0.000 C 
ATOM     21  C   UNL     1       7.095   6.122  17.384  0.00  0.00    +0.000 C 
ATOM     22  O   UNL     1       7.882   4.912  17.356  0.00  0.00    +0.000 OA
ATOM     23  C   UNL     1       6.844   4.210  16.645  0.00  0.00    +0.000 C 
BRANCH  20  24
ATOM     24  C   UNL     1       5.849   5.982  15.093  0.00  0.00    +0.000 C 
BRANCH  24  30
ATOM     25  C   UNL     1       8.252   5.600  13.074  0.00  0.00    +0.000 C 
ATOM     26  N   UNL     1       7.066   4.792  13.180  0.00  0.00    +0.000 N 
ATOM     27  C   UNL     1       6.763   3.737  12.373  0.00  0.00    +0.000 A 
ATOM     28  N   UNL     1       5.618   3.218  12.744  0.00  0.00    +0.000 NA
ATOM     29  N   UNL     1       5.153   3.954  13.804  0.00  0.00    +0.000 NA
ATOM     30  C   UNL     1       6.022   4.911  14.063  0.00  0.00    +0.000 A 
ENDBRANCH  24  30
ENDBRANCH  20  24
ENDBRANCH   1  20
TORSDOF 5
ENDMDL
MODEL 8
REMARK VINA RESULT:      -8.9      1.783      2.399
REMARK  Name = 
REMARK  6 active torsions:
REMARK  status: ('A' for Active; 'I' for Inactive)
REMARK    1  A    between atoms: C_1  and  N_2
REMARK    2  A    between atoms: C_6  and  C_7
REMARK    3  A    between atoms: C_7  and  C_8
REMARK    4  A    between atoms: C_8  and  C_9
REMARK    5  A    between atoms: C_13  and  N_14
REMARK    6  A    between atoms: C_20  and  C_21
REMARK                            x       y       z     vdW  Elec       q    Type
REMARK                         _______ _______ _______ _____ _____    ______ ____
ROOT
ATOM      1  C   UNL     1       4.333   4.955  17.216  0.00  0.00    +0.000 A 
ATOM      2  C   UNL     1       3.781   3.685  17.086  0.00  0.00    +0.000 A 
ATOM      3  C   UNL     1       2.552   3.423  17.670  0.00  0.00    +0.000 A 
ATOM      4  C   UNL     1       1.899   4.438  18.361  0.00  0.00    +0.000 A 
ATOM      5  C   UNL     1       2.480   5.699  18.470  0.00  0.00    +0.000 A 
ATOM      6  N   UNL     1       3.702   5.932  17.931  0.00  0.00    +0.000 NA
ENDROOT
BRANCH   5   7
ATOM      7  N   UNL     1       1.845   6.719  19.149  0.00  0.00    +0.000 N 
ATOM      8  C   UNL     1       1.784   6.670  20.613  0.00  0.00    +0.000 C 
ATOM      9  C   UNL     1       1.290   8.047  20.957  0.00  0.00    +0.000 A 
ATOM     10  C   UNL     1       0.851   8.525  22.180  0.00  0.00    +0.000 A 
ATOM     11  C   UNL     1       0.437   9.856  22.263  0.00  0.00    +0.000 A 
ATOM     12  C   UNL     1       0.479  10.691  21.135  0.00  0.00    +0.000 A 
ATOM     13  C   UNL     1       0.936  10.214  19.894  0.00  0.00    +0.000 A 
ATOM     14  C   UNL     1       1.329   8.876  19.828  0.00  0.00    +0.000 A 
ATOM     15  C   UNL     1       1.845   8.101  18.648  0.00  0.00    +0.000 C 
BRANCH  13  16
ATOM     16  C   UNL     1       0.997  11.109  18.686  0.00  0.00    +0.000 C 
ATOM     17  F   UNL     1       2.228  11.165  18.105  0.00  0.00    +0.000 F 
ATOM     18  F   UNL     1       0.140  10.714  17.704  0.00  0.00    +0.000 F 
ATOM     19  F   UNL     1       0.662  12.397  18.973  0.00  0.00    +0.000 F 
ENDBRANCH  13  16
ENDBRANCH   5   7
BRANCH   1  20
ATOM     20  C   UNL     1       5.689   5.414  16.539  0.00  0.00    +0.000 C 
ATOM     21  C   UNL     1       5.709   6.810  15.857  0.00  0.00    +0.000 C 
ATOM     22  O   UNL     1       6.735   7.300  16.747  0.00  0.00    +0.000 OA
ATOM     23  C   UNL     1       6.730   6.065  17.491  0.00  0.00    +0.000 C 
BRANCH  20  24
ATOM     24  C   UNL     1       6.314   4.273  15.714  0.00  0.00    +0.000 C 
BRANCH  24  30
ATOM     25  C   UNL     1       5.507   3.436  12.775  0.00  0.00    +0.000 C 
ATOM     26  N   UNL     1       6.578   4.313  13.167  0.00  0.00    +0.000 N 
ATOM     27  C   UNL     1       7.465   4.896  12.315  0.00  0.00    +0.000 A 
ATOM     28  N   UNL     1       8.304   5.638  12.995  0.00  0.00    +0.000 NA
ATOM     29  N   UNL     1       7.971   5.528  14.322  0.00  0.00    +0.000 NA
ATOM     30  C   UNL     1       6.934   4.721  14.429  0.00  0.00    +0.000 A 
ENDBRANCH  24  30
ENDBRANCH  20  24
ENDBRANCH   1  20
TORSDOF 5
ENDMDL
MODEL 9
REMARK VINA RESULT:      -8.8      1.317      1.735
REMARK  Name = 
REMARK  6 active torsions:
REMARK  status: ('A' for Active; 'I' for Inactive)
REMARK    1  A    between atoms: C_1  and  N_2
REMARK    2  A    between atoms: C_6  and  C_7
REMARK    3  A    between atoms: C_7  and  C_8
REMARK    4  A    between atoms: C_8  and  C_9
REMARK    5  A    between atoms: C_13  and  N_14
REMARK    6  A    between atoms: C_20  and  C_21
REMARK                            x       y       z     vdW  Elec       q    Type
REMARK                         _______ _______ _______ _____ _____    ______ ____
ROOT
ATOM      1  C   UNL     1       4.853   5.364  18.840  0.00  0.00    +0.000 A 
ATOM      2  C   UNL     1       4.299   4.134  19.180  0.00  0.00    +0.000 A 
ATOM      3  C   UNL     1       3.033   4.098  19.741  0.00  0.00    +0.000 A 
ATOM      4  C   UNL     1       2.344   5.290  19.938  0.00  0.00    +0.000 A 
ATOM      5  C   UNL     1       2.927   6.505  19.584  0.00  0.00    +0.000 A 
ATOM      6  N   UNL     1       4.184   6.531  19.076  0.00  0.00    +0.000 NA
ENDROOT
BRANCH   5   7
ATOM      7  N   UNL     1       2.257   7.696  19.769  0.00  0.00    +0.000 N 
ATOM      8  C   UNL     1       1.821   8.458  18.594  0.00  0.00    +0.000 C 
ATOM      9  C   UNL     1       0.918   9.493  19.203  0.00  0.00    +0.000 A 
ATOM     10  C   UNL     1       0.368  10.615  18.607  0.00  0.00    +0.000 A 
ATOM     11  C   UNL     1      -0.454  11.440  19.377  0.00  0.00    +0.000 A 
ATOM     12  C   UNL     1      -0.726  11.130  20.719  0.00  0.00    +0.000 A 
ATOM     13  C   UNL     1      -0.180   9.985  21.325  0.00  0.00    +0.000 A 
ATOM     14  C   UNL     1       0.653   9.182  20.543  0.00  0.00    +0.000 A 
ATOM     15  C   UNL     1       1.373   7.918  20.921  0.00  0.00    +0.000 C 
BRANCH  13  16
ATOM     16  C   UNL     1      -0.480   9.640  22.758  0.00  0.00    +0.000 C 
ATOM     17  F   UNL     1      -1.296  10.535  23.381  0.00  0.00    +0.000 F 
ATOM     18  F   UNL     1      -1.091   8.430  22.883  0.00  0.00    +0.000 F 
ATOM     19  F   UNL     1       0.645   9.566  23.524  0.00  0.00    +0.000 F 
ENDBRANCH  13  16
ENDBRANCH   5   7
BRANCH   1  20
ATOM     20  C   UNL     1       6.254   5.547  18.127  0.00  0.00    +0.000 C 
ATOM     21  C   UNL     1       7.456   5.973  19.014  0.00  0.00    +0.000 C 
ATOM     22  O   UNL     1       8.186   4.764  18.716  0.00  0.00    +0.000 OA
ATOM     23  C   UNL     1       7.087   4.250  17.936  0.00  0.00    +0.000 C 
BRANCH  20  24
ATOM     24  C   UNL     1       6.109   6.325  16.805  0.00  0.00    +0.000 C 
BRANCH  24  30
ATOM     25  C   UNL     1       4.254   4.043  15.648  0.00  0.00    +0.000 C 
ATOM     26  N   UNL     1       5.517   4.488  15.123  0.00  0.00    +0.000 N 
ATOM     27  C   UNL     1       6.152   3.948  14.045  0.00  0.00    +0.000 A 
ATOM     28  N   UNL     1       7.274   4.590  13.831  0.00  0.00    +0.000 NA
ATOM     29  N   UNL     1       7.386   5.560  14.794  0.00  0.00    +0.000 NA
ATOM     30  C   UNL     1       6.330   5.494  15.582  0.00  0.00    +0.000 A 
ENDBRANCH  24  30
ENDBRANCH  20  24
ENDBRANCH   1  20
TORSDOF 5
ENDMDL
