MODEL 1
REMARK VINA RESULT:      -7.5      0.000      0.000
REMARK  Name = 
REMARK  4 active torsions:
REMARK  status: ('A' for Active; 'I' for Inactive)
REMARK    1  A    between atoms: C_1  and  C_2
REMARK    2  A    between atoms: N_10  and  C_11
REMARK    3  A    between atoms: C_11  and  C_12
REMARK    4  A    between atoms: C_25  and  C_26
REMARK                            x       y       z     vdW  Elec       q    Type
REMARK                         _______ _______ _______ _____ _____    ______ ____
ROOT
ATOM      1  C   UNL     1      -0.518  13.274  19.287  0.00  0.00    +0.000 C 
ATOM      2  O   UNL     1      -0.667  13.561  18.090  0.00  0.00    +0.000 OA
ATOM      3  N   UNL     1      -1.363  12.337  19.909  0.00  0.00    +0.000 N 
ATOM      4  C   UNL     1      -2.258  11.677  19.034  0.00  0.00    +0.000 A 
ATOM      5  C   UNL     1      -3.588  12.105  19.006  0.00  0.00    +0.000 A 
ATOM      6  C   UNL     1      -4.521  11.362  18.293  0.00  0.00    +0.000 A 
ATOM      7  C   UNL     1      -4.110  10.236  17.578  0.00  0.00    +0.000 A 
ATOM      8  C   UNL     1      -2.771   9.822  17.599  0.00  0.00    +0.000 A 
ATOM      9  C   UNL     1      -1.840  10.501  18.382  0.00  0.00    +0.000 A 
ATOM     10  N   UNL     1      -0.540   9.951  18.495  0.00  0.00    +0.000 N 
ATOM     11  C   UNL     1       0.463  10.102  19.411  0.00  0.00    +0.000 C 
ATOM     12  O   UNL     1       1.575   9.643  19.126  0.00  0.00    +0.000 OA
ATOM     13  C   UNL     1       0.268  10.677  20.809  0.00  0.00    +0.000 C 
ATOM     14  C   UNL     1      -1.046  11.388  21.013  0.00  0.00    +0.000 C 
ATOM     15  H   UNL     1      -0.253   9.353  17.728  0.00  0.00    +0.000 HD
ENDROOT
BRANCH  14  16
ATOM     16  C   UNL     1      -1.425  11.799  22.433  0.00  0.00    +0.000 C 
ATOM     17  F   UNL     1      -0.632  12.787  22.904  0.00  0.00    +0.000 F 
ATOM     18  F   UNL     1      -2.694  12.288  22.438  0.00  0.00    +0.000 F 
ATOM     19  F   UNL     1      -1.386  10.776  23.305  0.00  0.00    +0.000 F 
ENDBRANCH  14  16
BRANCH   1  20
ATOM     20  C   UNL     1       0.627  13.933  20.067  0.00  0.00    +0.000 C 
BRANCH  20  30
ATOM     21  C   UNL     1       2.767  12.794  18.135  0.00  0.00    +0.000 C 
ATOM     22  C   UNL     1       2.863  14.164  18.808  0.00  0.00    +0.000 C 
ATOM     23  C   UNL     1       3.458  15.207  17.823  0.00  0.00    +0.000 C 
ATOM     24  C   UNL     1       2.393  16.250  17.774  0.00  0.00    +0.000 A 
ATOM     25  C   UNL     1       2.395  17.424  17.034  0.00  0.00    +0.000 A 
ATOM     26  C   UNL     1       1.298  18.273  17.142  0.00  0.00    +0.000 A 
ATOM     27  C   UNL     1       0.222  17.931  17.969  0.00  0.00    +0.000 A 
ATOM     28  C   UNL     1       0.233  16.735  18.695  0.00  0.00    +0.000 A 
ATOM     29  C   UNL     1       1.335  15.886  18.587  0.00  0.00    +0.000 A 
ATOM     30  N   UNL     1       1.551  14.672  19.224  0.00  0.00    +0.000 N 
ENDBRANCH  20  30
ENDBRANCH   1  20
TORSDOF 3
ENDMDL
MODEL 2
REMARK VINA RESULT:      -7.3      1.973      3.149
REMARK  Name = 
REMARK  4 active torsions:
REMARK  status: ('A' for Active; 'I' for Inactive)
REMARK    1  A    between atoms: C_1  and  C_2
REMARK    2  A    between atoms: N_10  and  C_11
REMARK    3  A    between atoms: C_11  and  C_12
REMARK    4  A    between atoms: C_25  and  C_26
REMARK                            x       y       z     vdW  Elec       q    Type
REMARK                         _______ _______ _______ _____ _____    ______ ____
ROOT
ATOM      1  C   UNL     1       0.350  12.443  19.462  0.00  0.00    +0.000 C 
ATOM      2  O   UNL     1       0.108  13.215  18.521  0.00  0.00    +0.000 OA
ATOM      3  N   UNL     1      -0.509  11.365  19.742  0.00  0.00    +0.000 N 
ATOM      4  C   UNL     1      -1.543  11.172  18.795  0.00  0.00    +0.000 A 
ATOM      5  C   UNL     1      -2.826  11.623  19.119  0.00  0.00    +0.000 A 
ATOM      6  C   UNL     1      -3.888  11.288  18.289  0.00  0.00    +0.000 A 
ATOM      7  C   UNL     1      -3.653  10.555  17.125  0.00  0.00    +0.000 A 
ATOM      8  C   UNL     1      -2.362  10.119  16.800  0.00  0.00    +0.000 A 
ATOM      9  C   UNL     1      -1.300  10.366  17.667  0.00  0.00    +0.000 A 
ATOM     10  N   UNL     1      -0.049   9.770  17.373  0.00  0.00    +0.000 N 
ATOM     11  C   UNL     1       1.050   9.480  18.131  0.00  0.00    +0.000 C 
ATOM     12  O   UNL     1       2.082   9.142  17.540  0.00  0.00    +0.000 OA
ATOM     13  C   UNL     1       1.049   9.418  19.653  0.00  0.00    +0.000 C 
ATOM     14  C   UNL     1      -0.169  10.027  20.301  0.00  0.00    +0.000 C 
ATOM     15  H   UNL     1       0.104   9.541  16.397  0.00  0.00    +0.000 HD
ENDROOT
BRANCH  14  16
ATOM     16  C   UNL     1      -0.365   9.814  21.801  0.00  0.00    +0.000 C 
ATOM     17  F   UNL     1       0.763  10.065  22.500  0.00  0.00    +0.000 F 
ATOM     18  F   UNL     1      -1.305  10.683  22.261  0.00  0.00    +0.000 F 
ATOM     19  F   UNL     1      -0.783   8.572  22.105  0.00  0.00    +0.000 F 
ENDBRANCH  14  16
BRANCH   1  20
ATOM     20  C   UNL     1       1.621  12.665  20.290  0.00  0.00    +0.000 C 
BRANCH  20  30
ATOM     21  C   UNL     1       2.643  15.400  19.245  0.00  0.00    +0.000 C 
ATOM     22  C   UNL     1       2.610  15.005  20.723  0.00  0.00    +0.000 C 
ATOM     23  C   UNL     1       2.195  16.220  21.595  0.00  0.00    +0.000 C 
ATOM     24  C   UNL     1       0.989  15.711  22.308  0.00  0.00    +0.000 A 
ATOM     25  C   UNL     1       0.199  16.391  23.224  0.00  0.00    +0.000 A 
ATOM     26  C   UNL     1      -0.883  15.721  23.787  0.00  0.00    +0.000 A 
ATOM     27  C   UNL     1      -1.163  14.401  23.418  0.00  0.00    +0.000 A 
ATOM     28  C   UNL     1      -0.363  13.738  22.481  0.00  0.00    +0.000 A 
ATOM     29  C   UNL     1       0.722  14.410  21.919  0.00  0.00    +0.000 A 
ATOM     30  N   UNL     1       1.641  13.938  20.992  0.00  0.00    +0.000 N 
ENDBRANCH  20  30
ENDBRANCH   1  20
TORSDOF 3
ENDMDL
MODEL 3
REMARK VINA RESULT:      -7.3      2.455      4.377
REMARK  Name = 
REMARK  4 active torsions:
REMARK  status: ('A' for Active; 'I' for Inactive)
REMARK    1  A    between atoms: C_1  and  C_2
REMARK    2  A    between atoms: N_10  and  C_11
REMARK    3  A    between atoms: C_11  and  C_12
REMARK    4  A    between atoms: C_25  and  C_26
REMARK                            x       y       z     vdW  Elec       q    Type
REMARK                         _______ _______ _______ _____ _____    ______ ____
ROOT
ATOM      1  C   UNL     1       0.484  12.711  19.655  0.00  0.00    +0.000 C 
ATOM      2  O   UNL     1       1.241  13.069  20.569  0.00  0.00    +0.000 OA
ATOM      3  N   UNL     1      -0.232  11.503  19.750  0.00  0.00    +0.000 N 
ATOM      4  C   UNL     1      -0.120  10.848  20.999  0.00  0.00    +0.000 A 
ATOM      5  C   UNL     1       0.748   9.757  21.095  0.00  0.00    +0.000 A 
ATOM      6  C   UNL     1       0.742   8.990  22.254  0.00  0.00    +0.000 A 
ATOM      7  C   UNL     1      -0.087   9.348  23.318  0.00  0.00    +0.000 A 
ATOM      8  C   UNL     1      -0.943  10.453  23.219  0.00  0.00    +0.000 A 
ATOM      9  C   UNL     1      -1.018  11.178  22.032  0.00  0.00    +0.000 A 
ATOM     10  N   UNL     1      -2.011  12.183  21.928  0.00  0.00    +0.000 N 
ATOM     11  C   UNL     1      -2.609  12.800  20.867  0.00  0.00    +0.000 C 
ATOM     12  O   UNL     1      -3.302  13.798  21.098  0.00  0.00    +0.000 OA
ATOM     13  C   UNL     1      -2.588  12.265  19.440  0.00  0.00    +0.000 C 
ATOM     14  C   UNL     1      -1.576  11.173  19.199  0.00  0.00    +0.000 C 
ATOM     15  H   UNL     1      -2.329  12.573  22.809  0.00  0.00    +0.000 HD
ENDROOT
BRANCH  14  16
ATOM     16  C   UNL     1      -1.633  10.424  17.870  0.00  0.00    +0.000 C 
ATOM     17  F   UNL     1      -2.622   9.504  17.848  0.00  0.00    +0.000 F 
ATOM     18  F   UNL     1      -1.903  11.304  16.868  0.00  0.00    +0.000 F 
ATOM     19  F   UNL     1      -0.478   9.809  17.562  0.00  0.00    +0.000 F 
ENDBRANCH  14  16
BRANCH   1  20
ATOM     20  C   UNL     1       0.313  13.626  18.436  0.00  0.00    +0.000 C 
BRANCH  20  30
ATOM     21  C   UNL     1      -0.427  16.063  20.203  0.00  0.00    +0.000 C 
ATOM     22  C   UNL     1       0.377  16.159  18.905  0.00  0.00    +0.000 C 
ATOM     23  C   UNL     1       1.507  17.214  19.048  0.00  0.00    +0.000 C 
ATOM     24  C   UNL     1       2.733  16.418  18.752  0.00  0.00    +0.000 A 
ATOM     25  C   UNL     1       4.047  16.864  18.742  0.00  0.00    +0.000 A 
ATOM     26  C   UNL     1       5.050  15.952  18.424  0.00  0.00    +0.000 A 
ATOM     27  C   UNL     1       4.726  14.622  18.138  0.00  0.00    +0.000 A 
ATOM     28  C   UNL     1       3.396  14.189  18.168  0.00  0.00    +0.000 A 
ATOM     29  C   UNL     1       2.392  15.104  18.485  0.00  0.00    +0.000 A 
ATOM     30  N   UNL     1       1.022  14.889  18.556  0.00  0.00    +0.000 N 
ENDBRANCH  20  30
ENDBRANCH   1  20
TORSDOF 3
ENDMDL
MODEL 4
REMARK VINA RESULT:      -7.3      3.086      6.351
REMARK  Name = 
REMARK  4 active torsions:
REMARK  status: ('A' for Active; 'I' for Inactive)
REMARK    1  A    between atoms: C_1  and  C_2
REMARK    2  A    between atoms: N_10  and  C_11
REMARK    3  A    between atoms: C_11  and  C_12
REMARK    4  A    between atoms: C_25  and  C_26
REMARK                            x       y       z     vdW  Elec       q    Type
REMARK                         _______ _______ _______ _____ _____    ______ ____
ROOT
ATOM      1  C   UNL     1      -0.723  11.876  18.643  0.00  0.00    +0.000 C 
ATOM      2  O   UNL     1      -1.059  13.070  18.655  0.00  0.00    +0.000 OA
ATOM      3  N   UNL     1       0.631  11.513  18.764  0.00  0.00    +0.000 N 
ATOM      4  C   UNL     1       1.508  12.588  19.039  0.00  0.00    +0.000 A 
ATOM      5  C   UNL     1       2.264  13.109  17.985  0.00  0.00    +0.000 A 
ATOM      6  C   UNL     1       3.258  14.039  18.263  0.00  0.00    +0.000 A 
ATOM      7  C   UNL     1       3.452  14.476  19.574  0.00  0.00    +0.000 A 
ATOM      8  C   UNL     1       2.680  13.960  20.623  0.00  0.00    +0.000 A 
ATOM      9  C   UNL     1       1.742  12.959  20.377  0.00  0.00    +0.000 A 
ATOM     10  N   UNL     1       1.102  12.360  21.490  0.00  0.00    +0.000 N 
ATOM     11  C   UNL     1       0.457  11.169  21.668  0.00  0.00    +0.000 C 
ATOM     12  O   UNL     1      -0.186  11.015  22.712  0.00  0.00    +0.000 OA
ATOM     13  C   UNL     1       0.587   9.976  20.729  0.00  0.00    +0.000 C 
ATOM     14  C   UNL     1       1.214  10.296  19.395  0.00  0.00    +0.000 C 
ATOM     15  H   UNL     1       1.063  12.930  22.328  0.00  0.00    +0.000 HD
ENDROOT
BRANCH  14  16
ATOM     16  C   UNL     1       1.587   9.132  18.481  0.00  0.00    +0.000 C 
ATOM     17  F   UNL     1       1.709   7.972  19.162  0.00  0.00    +0.000 F 
ATOM     18  F   UNL     1       0.598   8.941  17.567  0.00  0.00    +0.000 F 
ATOM     19  F   UNL     1       2.728   9.343  17.800  0.00  0.00    +0.000 F 
ENDBRANCH  14  16
BRANCH   1  20
ATOM     20  C   UNL     1      -1.813  10.804  18.530  0.00  0.00    +0.000 C 
BRANCH  20  30
ATOM     21  C   UNL     1      -2.774   9.553  15.860  0.00  0.00    +0.000 C 
ATOM     22  C   UNL     1      -3.012  11.011  16.258  0.00  0.00    +0.000 C 
ATOM     23  C   UNL     1      -4.427  11.467  15.809  0.00  0.00    +0.000 C 
ATOM     24  C   UNL     1      -5.050  11.902  17.092  0.00  0.00    +0.000 A 
ATOM     25  C   UNL     1      -6.330  12.403  17.282  0.00  0.00    +0.000 A 
ATOM     26  C   UNL     1      -6.712  12.765  18.571  0.00  0.00    +0.000 A 
ATOM     27  C   UNL     1      -5.821  12.608  19.638  0.00  0.00    +0.000 A 
ATOM     28  C   UNL     1      -4.540  12.087  19.428  0.00  0.00    +0.000 A 
ATOM     29  C   UNL     1      -4.158  11.727  18.135  0.00  0.00    +0.000 A 
ATOM     30  N   UNL     1      -2.943  11.210  17.710  0.00  0.00    +0.000 N 
ENDBRANCH  20  30
ENDBRANCH   1  20
TORSDOF 3
ENDMDL
MODEL 5
REMARK VINA RESULT:      -7.1      2.481      3.994
REMARK  Name = 
REMARK  4 active torsions:
REMARK  status: ('A' for Active; 'I' for Inactive)
REMARK    1  A    between atoms: C_1  and  C_2
REMARK    2  A    between atoms: N_10  and  C_11
REMARK    3  A    between atoms: C_11  and  C_12
REMARK    4  A    between atoms: C_25  and  C_26
REMARK                            x       y       z     vdW  Elec       q    Type
REMARK                         _______ _______ _______ _____ _____    ______ ____
ROOT
ATOM      1  C   UNL     1       0.976  12.560  19.667  0.00  0.00    +0.000 C 
ATOM      2  O   UNL     1       1.786  12.774  20.582  0.00  0.00    +0.000 OA
ATOM      3  N   UNL     1       0.055  11.501  19.759  0.00  0.00    +0.000 N 
ATOM      4  C   UNL     1       0.047  10.833  21.007  0.00  0.00    +0.000 A 
ATOM      5  C   UNL     1       0.704   9.603  21.099  0.00  0.00    +0.000 A 
ATOM      6  C   UNL     1       0.559   8.846  22.256  0.00  0.00    +0.000 A 
ATOM      7  C   UNL     1      -0.192   9.346  23.321  0.00  0.00    +0.000 A 
ATOM      8  C   UNL     1      -0.836  10.586  23.226  0.00  0.00    +0.000 A 
ATOM      9  C   UNL     1      -0.778  11.317  22.040  0.00  0.00    +0.000 A 
ATOM     10  N   UNL     1      -1.573  12.484  21.939  0.00  0.00    +0.000 N 
ATOM     11  C   UNL     1      -2.050  13.202  20.879  0.00  0.00    +0.000 C 
ATOM     12  O   UNL     1      -2.551  14.307  21.113  0.00  0.00    +0.000 OA
ATOM     13  C   UNL     1      -2.125  12.675  19.451  0.00  0.00    +0.000 C 
ATOM     14  C   UNL     1      -1.326  11.419  19.207  0.00  0.00    +0.000 C 
ATOM     15  H   UNL     1      -1.816  12.922  22.821  0.00  0.00    +0.000 HD
ENDROOT
BRANCH  14  16
ATOM     16  C   UNL     1      -1.517  10.696  17.876  0.00  0.00    +0.000 C 
ATOM     17  F   UNL     1      -1.763  11.555  16.863  0.00  0.00    +0.000 F 
ATOM     18  F   UNL     1      -0.372  10.037  17.553  0.00  0.00    +0.000 F 
ATOM     19  F   UNL     1      -2.508   9.788  17.909  0.00  0.00    +0.000 F 
ENDBRANCH  14  16
BRANCH   1  20
ATOM     20  C   UNL     1       0.974  13.493  18.450  0.00  0.00    +0.000 C 
BRANCH  20  30
ATOM     21  C   UNL     1       3.709  14.751  17.709  0.00  0.00    +0.000 C 
ATOM     22  C   UNL     1       2.865  15.183  18.909  0.00  0.00    +0.000 C 
ATOM     23  C   UNL     1       2.932  16.723  19.088  0.00  0.00    +0.000 C 
ATOM     24  C   UNL     1       1.497  17.121  19.014  0.00  0.00    +0.000 A 
ATOM     25  C   UNL     1       0.969  18.401  19.109  0.00  0.00    +0.000 A 
ATOM     26  C   UNL     1      -0.412  18.552  19.025  0.00  0.00    +0.000 A 
ATOM     27  C   UNL     1      -1.232  17.434  18.838  0.00  0.00    +0.000 A 
ATOM     28  C   UNL     1      -0.679  16.154  18.729  0.00  0.00    +0.000 A 
ATOM     29  C   UNL     1       0.705  16.004  18.815  0.00  0.00    +0.000 A 
ATOM     30  N   UNL     1       1.449  14.834  18.748  0.00  0.00    +0.000 N 
ENDBRANCH  20  30
ENDBRANCH   1  20
TORSDOF 3
ENDMDL
MODEL 6
REMARK VINA RESULT:      -7.1      2.817      6.202
REMARK  Name = 
REMARK  4 active torsions:
REMARK  status: ('A' for Active; 'I' for Inactive)
REMARK    1  A    between atoms: C_1  and  C_2
REMARK    2  A    between atoms: N_10  and  C_11
REMARK    3  A    between atoms: C_11  and  C_12
REMARK    4  A    between atoms: C_25  and  C_26
REMARK                            x       y       z     vdW  Elec       q    Type
REMARK                         _______ _______ _______ _____ _____    ______ ____
ROOT
ATOM      1  C   UNL     1      -0.904  12.002  19.413  0.00  0.00    +0.000 C 
ATOM      2  O   UNL     1      -1.047  13.091  18.836  0.00  0.00    +0.000 OA
ATOM      3  N   UNL     1       0.184  11.788  20.278  0.00  0.00    +0.000 N 
ATOM      4  C   UNL     1       0.975  12.935  20.527  0.00  0.00    +0.000 A 
ATOM      5  C   UNL     1       2.189  13.059  19.846  0.00  0.00    +0.000 A 
ATOM      6  C   UNL     1       3.062  14.079  20.203  0.00  0.00    +0.000 A 
ATOM      7  C   UNL     1       2.695  14.990  21.194  0.00  0.00    +0.000 A 
ATOM      8  C   UNL     1       1.469  14.868  21.862  0.00  0.00    +0.000 A 
ATOM      9  C   UNL     1       0.622  13.798  21.582  0.00  0.00    +0.000 A 
ATOM     10  N   UNL     1      -0.527  13.630  22.393  0.00  0.00    +0.000 N 
ATOM     11  C   UNL     1      -1.335  12.561  22.660  0.00  0.00    +0.000 C 
ATOM     12  O   UNL     1      -2.396  12.779  23.256  0.00  0.00    +0.000 OA
ATOM     13  C   UNL     1      -0.953  11.110  22.394  0.00  0.00    +0.000 C 
ATOM     14  C   UNL     1       0.249  10.937  21.499  0.00  0.00    +0.000 C 
ATOM     15  H   UNL     1      -0.867  14.472  22.845  0.00  0.00    +0.000 HD
ENDROOT
BRANCH  14  16
ATOM     16  C   UNL     1       0.838   9.535  21.356  0.00  0.00    +0.000 C 
ATOM     17  F   UNL     1       1.792   9.290  22.280  0.00  0.00    +0.000 F 
ATOM     18  F   UNL     1      -0.140   8.612  21.558  0.00  0.00    +0.000 F 
ATOM     19  F   UNL     1       1.361   9.306  20.138  0.00  0.00    +0.000 F 
ENDBRANCH  14  16
BRANCH   1  20
ATOM     20  C   UNL     1      -1.955  10.908  19.195  0.00  0.00    +0.000 C 
BRANCH  20  30
ATOM     21  C   UNL     1      -2.613   9.582  16.470  0.00  0.00    +0.000 C 
ATOM     22  C   UNL     1      -2.904  11.046  16.803  0.00  0.00    +0.000 C 
ATOM     23  C   UNL     1      -4.265  11.476  16.192  0.00  0.00    +0.000 C 
ATOM     24  C   UNL     1      -5.027  11.937  17.389  0.00  0.00    +0.000 A 
ATOM     25  C   UNL     1      -6.323  12.430  17.427  0.00  0.00    +0.000 A 
ATOM     26  C   UNL     1      -6.845  12.819  18.658  0.00  0.00    +0.000 A 
ATOM     27  C   UNL     1      -6.073  12.698  19.818  0.00  0.00    +0.000 A 
ATOM     28  C   UNL     1      -4.773  12.185  19.761  0.00  0.00    +0.000 A 
ATOM     29  C   UNL     1      -4.251  11.796  18.526  0.00  0.00    +0.000 A 
ATOM     30  N   UNL     1      -2.993  11.282  18.248  0.00  0.00    +0.000 N 
ENDBRANCH  20  30
ENDBRANCH   1  20
TORSDOF 3
ENDMDL
MODEL 7
REMARK VINA RESULT:      -7.1      2.261      3.881
REMARK  Name = 
REMARK  4 active torsions:
REMARK  status: ('A' for Active; 'I' for Inactive)
REMARK    1  A    between atoms: C_1  and  C_2
REMARK    2  A    between atoms: N_10  and  C_11
REMARK    3  A    between atoms: C_11  and  C_12
REMARK    4  A    between atoms: C_25  and  C_26
REMARK                            x       y       z     vdW  Elec       q    Type
REMARK                         _______ _______ _______ _____ _____    ______ ____
ROOT
ATOM      1  C   UNL     1       1.250  12.742  20.529  0.00  0.00    +0.000 C 
ATOM      2  O   UNL     1       2.457  12.520  20.707  0.00  0.00    +0.000 OA
ATOM      3  N   UNL     1       0.446  11.817  19.839  0.00  0.00    +0.000 N 
ATOM      4  C   UNL     1       1.090  10.599  19.518  0.00  0.00    +0.000 A 
ATOM      5  C   UNL     1       1.544  10.418  18.208  0.00  0.00    +0.000 A 
ATOM      6  C   UNL     1       2.017   9.169  17.824  0.00  0.00    +0.000 A 
ATOM      7  C   UNL     1       2.080   8.135  18.759  0.00  0.00    +0.000 A 
ATOM      8  C   UNL     1       1.637   8.328  20.074  0.00  0.00    +0.000 A 
ATOM      9  C   UNL     1       1.074   9.546  20.453  0.00  0.00    +0.000 A 
ATOM     10  N   UNL     1       0.498   9.639  21.743  0.00  0.00    +0.000 N 
ATOM     11  C   UNL     1      -0.425  10.481  22.296  0.00  0.00    +0.000 C 
ATOM     12  O   UNL     1      -0.576  10.441  23.522  0.00  0.00    +0.000 OA
ATOM     13  C   UNL     1      -1.369  11.365  21.491  0.00  0.00    +0.000 C 
ATOM     14  C   UNL     1      -0.999  11.511  20.036  0.00  0.00    +0.000 C 
ATOM     15  H   UNL     1       0.860   8.985  22.429  0.00  0.00    +0.000 HD
ENDROOT
BRANCH  14  16
ATOM     16  C   UNL     1      -2.002  12.191  19.107  0.00  0.00    +0.000 C 
ATOM     17  F   UNL     1      -2.832  13.020  19.776  0.00  0.00    +0.000 F 
ATOM     18  F   UNL     1      -1.332  12.960  18.206  0.00  0.00    +0.000 F 
ATOM     19  F   UNL     1      -2.749  11.316  18.410  0.00  0.00    +0.000 F 
ENDBRANCH  14  16
BRANCH   1  20
ATOM     20  C   UNL     1       0.643  14.027  21.106  0.00  0.00    +0.000 C 
BRANCH  20  30
ATOM     21  C   UNL     1      -1.490  16.274  21.217  0.00  0.00    +0.000 C 
ATOM     22  C   UNL     1      -0.959  15.661  19.920  0.00  0.00    +0.000 C 
ATOM     23  C   UNL     1      -0.792  16.758  18.835  0.00  0.00    +0.000 C 
ATOM     24  C   UNL     1       0.652  16.647  18.481  0.00  0.00    +0.000 A 
ATOM     25  C   UNL     1       1.356  17.403  17.554  0.00  0.00    +0.000 A 
ATOM     26  C   UNL     1       2.707  17.126  17.366  0.00  0.00    +0.000 A 
ATOM     27  C   UNL     1       3.328  16.117  18.110  0.00  0.00    +0.000 A 
ATOM     28  C   UNL     1       2.605  15.376  19.051  0.00  0.00    +0.000 A 
ATOM     29  C   UNL     1       1.250  15.654  19.237  0.00  0.00    +0.000 A 
ATOM     30  N   UNL     1       0.355  15.035  20.099  0.00  0.00    +0.000 N 
ENDBRANCH  20  30
ENDBRANCH   1  20
TORSDOF 3
ENDMDL
MODEL 8
REMARK VINA RESULT:      -7.1      2.508      6.271
REMARK  Name = 
REMARK  4 active torsions:
REMARK  status: ('A' for Active; 'I' for Inactive)
REMARK    1  A    between atoms: C_1  and  C_2
REMARK    2  A    between atoms: N_10  and  C_11
REMARK    3  A    between atoms: C_11  and  C_12
REMARK    4  A    between atoms: C_25  and  C_26
REMARK                            x       y       z     vdW  Elec       q    Type
REMARK                         _______ _______ _______ _____ _____    ______ ____
ROOT
ATOM      1  C   UNL     1      -0.987  12.193  19.073  0.00  0.00    +0.000 C 
ATOM      2  O   UNL     1      -1.110  13.211  18.375  0.00  0.00    +0.000 OA
ATOM      3  N   UNL     1       0.252  11.871  19.658  0.00  0.00    +0.000 N 
ATOM      4  C   UNL     1       1.253  12.858  19.499  0.00  0.00    +0.000 A 
ATOM      5  C   UNL     1       2.231  12.653  18.521  0.00  0.00    +0.000 A 
ATOM      6  C   UNL     1       3.321  13.514  18.466  0.00  0.00    +0.000 A 
ATOM      7  C   UNL     1       3.397  14.593  19.348  0.00  0.00    +0.000 A 
ATOM      8  C   UNL     1       2.405  14.800  20.315  0.00  0.00    +0.000 A 
ATOM      9  C   UNL     1       1.353  13.895  20.446  0.00  0.00    +0.000 A 
ATOM     10  N   UNL     1       0.467  14.059  21.538  0.00  0.00    +0.000 N 
ATOM     11  C   UNL     1      -0.393  13.214  22.180  0.00  0.00    +0.000 C 
ATOM     12  O   UNL     1      -1.196  13.709  22.979  0.00  0.00    +0.000 OA
ATOM     13  C   UNL     1      -0.339  11.694  22.076  0.00  0.00    +0.000 C 
ATOM     14  C   UNL     1       0.519  11.177  20.948  0.00  0.00    +0.000 C 
ATOM     15  H   UNL     1       0.407  15.000  21.911  0.00  0.00    +0.000 HD
ENDROOT
BRANCH  14  16
ATOM     16  C   UNL     1       0.813   9.680  20.901  0.00  0.00    +0.000 C 
ATOM     17  F   UNL     1      -0.314   8.939  20.978  0.00  0.00    +0.000 F 
ATOM     18  F   UNL     1       1.397   9.372  19.712  0.00  0.00    +0.000 F 
ATOM     19  F   UNL     1       1.650   9.277  21.875  0.00  0.00    +0.000 F 
ENDBRANCH  14  16
BRANCH   1  20
ATOM     20  C   UNL     1      -2.218  11.312  19.318  0.00  0.00    +0.000 C 
BRANCH  20  30
ATOM     21  C   UNL     1      -2.748   9.786  16.673  0.00  0.00    +0.000 C 
ATOM     22  C   UNL     1      -3.179  11.231  16.929  0.00  0.00    +0.000 C 
ATOM     23  C   UNL     1      -4.576  11.494  16.305  0.00  0.00    +0.000 C 
ATOM     24  C   UNL     1      -5.377  11.942  17.480  0.00  0.00    +0.000 A 
ATOM     25  C   UNL     1      -6.715  12.309  17.501  0.00  0.00    +0.000 A 
ATOM     26  C   UNL     1      -7.270  12.711  18.712  0.00  0.00    +0.000 A 
ATOM     27  C   UNL     1      -6.489  12.727  19.873  0.00  0.00    +0.000 A 
ATOM     28  C   UNL     1      -5.145  12.340  19.834  0.00  0.00    +0.000 A 
ATOM     29  C   UNL     1      -4.590  11.938  18.619  0.00  0.00    +0.000 A 
ATOM     30  N   UNL     1      -3.288  11.533  18.360  0.00  0.00    +0.000 N 
ENDBRANCH  20  30
ENDBRANCH   1  20
TORSDOF 3
ENDMDL
MODEL 9
REMARK VINA RESULT:      -7.0      1.676      2.480
REMARK  Name = 
REMARK  4 active torsions:
REMARK  status: ('A' for Active; 'I' for Inactive)
REMARK    1  A    between atoms: C_1  and  C_2
REMARK    2  A    between atoms: N_10  and  C_11
REMARK    3  A    between atoms: C_11  and  C_12
REMARK    4  A    between atoms: C_25  and  C_26
REMARK                            x       y       z     vdW  Elec       q    Type
REMARK                         _______ _______ _______ _____ _____    ______ ____
ROOT
ATOM      1  C   UNL     1       0.141  12.667  19.243  0.00  0.00    +0.000 C 
ATOM      2  O   UNL     1      -0.141  13.367  18.259  0.00  0.00    +0.000 OA
ATOM      3  N   UNL     1      -0.701  11.610  19.634  0.00  0.00    +0.000 N 
ATOM      4  C   UNL     1      -1.769  11.346  18.745  0.00  0.00    +0.000 A 
ATOM      5  C   UNL     1      -3.041  11.816  19.084  0.00  0.00    +0.000 A 
ATOM      6  C   UNL     1      -4.133  11.419  18.322  0.00  0.00    +0.000 A 
ATOM      7  C   UNL     1      -3.939  10.603  17.206  0.00  0.00    +0.000 A 
ATOM      8  C   UNL     1      -2.659  10.148  16.864  0.00  0.00    +0.000 A 
ATOM      9  C   UNL     1      -1.565  10.460  17.669  0.00  0.00    +0.000 A 
ATOM     10  N   UNL     1      -0.324   9.847  17.371  0.00  0.00    +0.000 N 
ATOM     11  C   UNL     1       0.805   9.616  18.105  0.00  0.00    +0.000 C 
ATOM     12  O   UNL     1       1.815   9.238  17.501  0.00  0.00    +0.000 OA
ATOM     13  C   UNL     1       0.862   9.665  19.627  0.00  0.00    +0.000 C 
ATOM     14  C   UNL     1      -0.333  10.317  20.276  0.00  0.00    +0.000 C 
ATOM     15  H   UNL     1      -0.206   9.548  16.409  0.00  0.00    +0.000 HD
ENDROOT
BRANCH  14  16
ATOM     16  C   UNL     1      -0.469  10.213  21.793  0.00  0.00    +0.000 C 
ATOM     17  F   UNL     1      -1.428  11.034  22.273  0.00  0.00    +0.000 F 
ATOM     18  F   UNL     1      -0.842   8.948  22.127  0.00  0.00    +0.000 F 
ATOM     19  F   UNL     1       0.678  10.478  22.443  0.00  0.00    +0.000 F 
ENDBRANCH  14  16
BRANCH   1  20
ATOM     20  C   UNL     1       1.442  12.952  20.003  0.00  0.00    +0.000 C 
BRANCH  20  30
ATOM     21  C   UNL     1       0.898  15.052  22.217  0.00  0.00    +0.000 C 
ATOM     22  C   UNL     1       1.073  15.394  20.736  0.00  0.00    +0.000 C 
ATOM     23  C   UNL     1       1.877  16.713  20.579  0.00  0.00    +0.000 C 
ATOM     24  C   UNL     1       3.037  16.289  19.745  0.00  0.00    +0.000 A 
ATOM     25  C   UNL     1       4.090  17.076  19.300  0.00  0.00    +0.000 A 
ATOM     26  C   UNL     1       5.073  16.480  18.515  0.00  0.00    +0.000 A 
ATOM     27  C   UNL     1       4.993  15.119  18.202  0.00  0.00    +0.000 A 
ATOM     28  C   UNL     1       3.931  14.340  18.673  0.00  0.00    +0.000 A 
ATOM     29  C   UNL     1       2.946  14.939  19.459  0.00  0.00    +0.000 A 
ATOM     30  N   UNL     1       1.813  14.357  20.010  0.00  0.00    +0.000 N 
ENDBRANCH  20  30
ENDBRANCH   1  20
TORSDOF 3
ENDMDL
