MODEL 1
REMARK VINA RESULT:      -9.1      0.000      0.000
REMARK  Name = 
REMARK  4 active torsions:
REMARK  status: ('A' for Active; 'I' for Inactive)
REMARK    1  A    between atoms: C_1  and  C_2
REMARK    2  A    between atoms: C_6  and  C_8
REMARK    3  A    between atoms: C_18  and  C_19
REMARK    4  A    between atoms: C_19  and  C_20
REMARK                            x       y       z     vdW  Elec       q    Type
REMARK                         _______ _______ _______ _____ _____    ______ ____
ROOT
ATOM      1  C   UNL     1       2.143   3.853  21.452  0.00  0.00    +0.000 C 
ATOM      2  C   UNL     1       2.457   4.896  20.439  0.00  0.00    +0.000 A 
ATOM      3  N   UNL     1       1.911   6.161  20.620  0.00  0.00    +0.000 NA
ATOM      4  C   UNL     1       2.217   6.937  19.608  0.00  0.00    +0.000 A 
ATOM      5  N   UNL     1       1.771   8.227  19.530  0.00  0.00    +0.000 N 
ATOM      6  C   UNL     1       1.836   9.060  18.441  0.00  0.00    +0.000 C 
ATOM      7  O   UNL     1       2.316   8.818  17.340  0.00  0.00    +0.000 OA
ATOM      8  S   UNL     1       3.236   6.244  18.436  0.00  0.00    +0.000 S 
ATOM      9  C   UNL     1       3.241   4.759  19.302  0.00  0.00    +0.000 A 
ATOM     10  H   UNL     1       1.251   8.559  20.334  0.00  0.00    +0.000 HD
ENDROOT
BRANCH   6  11
ATOM     11  C   UNL     1       1.192  10.351  18.716  0.00  0.00    +0.000 A 
ATOM     12  C   UNL     1      -0.053  10.535  19.285  0.00  0.00    +0.000 A 
ATOM     13  N   UNL     1      -0.223  11.889  19.388  0.00  0.00    +0.000 N 
ATOM     14  C   UNL     1      -1.293  12.608  19.916  0.00  0.00    +0.000 A 
ATOM     15  C   UNL     1      -1.239  13.951  19.924  0.00  0.00    +0.000 A 
ATOM     16  C   UNL     1      -0.064  14.610  19.373  0.00  0.00    +0.000 A 
ATOM     17  C   UNL     1       0.966  13.905  18.861  0.00  0.00    +0.000 A 
ATOM     18  C   UNL     1       0.919  12.482  18.860  0.00  0.00    +0.000 A 
ATOM     19  N   UNL     1       1.790  11.580  18.452  0.00  0.00    +0.000 NA
ENDBRANCH   6  11
BRANCH   9  20
ATOM     20  C   UNL     1       4.020   3.583  18.788  0.00  0.00    +0.000 C 
BRANCH  20  21
ATOM     21  C   UNL     1       5.077   3.972  17.775  0.00  0.00    +0.000 A 
ATOM     22  C   UNL     1       6.267   4.610  18.200  0.00  0.00    +0.000 A 
ATOM     23  C   UNL     1       7.215   5.061  17.276  0.00  0.00    +0.000 A 
ATOM     24  C   UNL     1       6.949   4.863  15.940  0.00  0.00    +0.000 A 
ATOM     25  C   UNL     1       5.809   4.221  15.517  0.00  0.00    +0.000 A 
ATOM     26  C   UNL     1       4.860   3.758  16.405  0.00  0.00    +0.000 A 
ATOM     27  O   UNL     1       5.737   4.129  14.162  0.00  0.00    +0.000 OA
ATOM     28  C   UNL     1       6.931   4.843  13.781  0.00  0.00    +0.000 C 
ATOM     29  O   UNL     1       7.730   5.268  14.904  0.00  0.00    +0.000 OA
ENDBRANCH  20  21
ENDBRANCH   9  20
TORSDOF 3
ENDMDL
MODEL 2
REMARK VINA RESULT:      -9.0      0.515      1.118
REMARK  Name = 
REMARK  4 active torsions:
REMARK  status: ('A' for Active; 'I' for Inactive)
REMARK    1  A    between atoms: C_1  and  C_2
REMARK    2  A    between atoms: C_6  and  C_8
REMARK    3  A    between atoms: C_18  and  C_19
REMARK    4  A    between atoms: C_19  and  C_20
REMARK                            x       y       z     vdW  Elec       q    Type
REMARK                         _______ _______ _______ _____ _____    ______ ____
ROOT
ATOM      1  C   UNL     1       2.059   3.656  21.380  0.00  0.00    +0.000 C 
ATOM      2  C   UNL     1       2.406   4.732  20.413  0.00  0.00    +0.000 A 
ATOM      3  N   UNL     1       1.854   5.990  20.617  0.00  0.00    +0.000 NA
ATOM      4  C   UNL     1       2.192   6.798  19.642  0.00  0.00    +0.000 A 
ATOM      5  N   UNL     1       1.748   8.091  19.591  0.00  0.00    +0.000 N 
ATOM      6  C   UNL     1       1.848   8.959  18.532  0.00  0.00    +0.000 C 
ATOM      7  O   UNL     1       2.366   8.753  17.441  0.00  0.00    +0.000 OA
ATOM      8  S   UNL     1       3.251   6.145  18.482  0.00  0.00    +0.000 S 
ATOM      9  C   UNL     1       3.228   4.632  19.299  0.00  0.00    +0.000 A 
ATOM     10  H   UNL     1       1.200   8.396  20.387  0.00  0.00    +0.000 HD
ENDROOT
BRANCH   6  11
ATOM     11  C   UNL     1       1.194  10.240  18.828  0.00  0.00    +0.000 A 
ATOM     12  C   UNL     1       1.662  11.492  18.479  0.00  0.00    +0.000 A 
ATOM     13  N   UNL     1       0.719  12.382  18.918  0.00  0.00    +0.000 N 
ATOM     14  C   UNL     1       0.688  13.769  18.797  0.00  0.00    +0.000 A 
ATOM     15  C   UNL     1      -0.358  14.447  19.300  0.00  0.00    +0.000 A 
ATOM     16  C   UNL     1      -1.423  13.706  19.961  0.00  0.00    +0.000 A 
ATOM     17  C   UNL     1      -1.382  12.363  20.076  0.00  0.00    +0.000 A 
ATOM     18  C   UNL     1      -0.282  11.638  19.535  0.00  0.00    +0.000 A 
ATOM     19  N   UNL     1      -0.024  10.347  19.492  0.00  0.00    +0.000 NA
ENDBRANCH   6  11
BRANCH   9  20
ATOM     20  C   UNL     1       4.025   3.473  18.773  0.00  0.00    +0.000 C 
BRANCH  20  21
ATOM     21  C   UNL     1       5.094   3.892  17.786  0.00  0.00    +0.000 A 
ATOM     22  C   UNL     1       6.285   4.506  18.244  0.00  0.00    +0.000 A 
ATOM     23  C   UNL     1       7.244   4.983  17.346  0.00  0.00    +0.000 A 
ATOM     24  C   UNL     1       6.989   4.837  16.001  0.00  0.00    +0.000 A 
ATOM     25  C   UNL     1       5.849   4.219  15.545  0.00  0.00    +0.000 A 
ATOM     26  C   UNL     1       4.889   3.731  16.406  0.00  0.00    +0.000 A 
ATOM     27  O   UNL     1       5.789   4.178  14.187  0.00  0.00    +0.000 OA
ATOM     28  C   UNL     1       6.992   4.897  13.843  0.00  0.00    +0.000 C 
ATOM     29  O   UNL     1       7.783   5.274  14.988  0.00  0.00    +0.000 OA
ENDBRANCH  20  21
ENDBRANCH   9  20
TORSDOF 3
ENDMDL
MODEL 3
REMARK VINA RESULT:      -9.0      1.613      2.032
REMARK  Name = 
REMARK  4 active torsions:
REMARK  status: ('A' for Active; 'I' for Inactive)
REMARK    1  A    between atoms: C_1  and  C_2
REMARK    2  A    between atoms: C_6  and  C_8
REMARK    3  A    between atoms: C_18  and  C_19
REMARK    4  A    between atoms: C_19  and  C_20
REMARK                            x       y       z     vdW  Elec       q    Type
REMARK                         _______ _______ _______ _____ _____    ______ ____
ROOT
ATOM      1  C   UNL     1       2.086   2.627  21.349  0.00  0.00    +0.000 C 
ATOM      2  C   UNL     1       2.256   3.898  20.596  0.00  0.00    +0.000 A 
ATOM      3  N   UNL     1       1.789   5.067  21.184  0.00  0.00    +0.000 NA
ATOM      4  C   UNL     1       1.943   6.080  20.366  0.00  0.00    +0.000 A 
ATOM      5  N   UNL     1       1.531   7.342  20.696  0.00  0.00    +0.000 N 
ATOM      6  C   UNL     1       1.436   8.427  19.860  0.00  0.00    +0.000 C 
ATOM      7  O   UNL     1       1.714   8.481  18.668  0.00  0.00    +0.000 OA
ATOM      8  S   UNL     1       2.725   5.724  18.898  0.00  0.00    +0.000 S 
ATOM      9  C   UNL     1       2.830   4.067  19.344  0.00  0.00    +0.000 A 
ATOM     10  H   UNL     1       1.165   7.450  21.635  0.00  0.00    +0.000 HD
ENDROOT
BRANCH   6  11
ATOM     11  C   UNL     1       0.889   9.595  20.561  0.00  0.00    +0.000 A 
ATOM     12  C   UNL     1       1.132  10.919  20.249  0.00  0.00    +0.000 A 
ATOM     13  N   UNL     1       0.391  11.656  21.132  0.00  0.00    +0.000 N 
ATOM     14  C   UNL     1       0.255  13.038  21.235  0.00  0.00    +0.000 A 
ATOM     15  C   UNL     1      -0.548  13.549  22.185  0.00  0.00    +0.000 A 
ATOM     16  C   UNL     1      -1.244  12.637  23.081  0.00  0.00    +0.000 A 
ATOM     17  C   UNL     1      -1.104  11.300  22.975  0.00  0.00    +0.000 A 
ATOM     18  C   UNL     1      -0.264  10.752  21.964  0.00  0.00    +0.000 A 
ATOM     19  N   UNL     1       0.015   9.506  21.640  0.00  0.00    +0.000 NA
ENDBRANCH   6  11
BRANCH   9  20
ATOM     20  C   UNL     1       3.473   3.072  18.421  0.00  0.00    +0.000 C 
BRANCH  20  21
ATOM     21  C   UNL     1       4.661   3.641  17.675  0.00  0.00    +0.000 A 
ATOM     22  C   UNL     1       5.719   4.259  18.386  0.00  0.00    +0.000 A 
ATOM     23  C   UNL     1       6.781   4.872  17.714  0.00  0.00    +0.000 A 
ATOM     24  C   UNL     1       6.761   4.855  16.338  0.00  0.00    +0.000 A 
ATOM     25  C   UNL     1       5.753   4.235  15.637  0.00  0.00    +0.000 A 
ATOM     26  C   UNL     1       4.697   3.615  16.272  0.00  0.00    +0.000 A 
ATOM     27  O   UNL     1       5.921   4.333  14.291  0.00  0.00    +0.000 OA
ATOM     28  C   UNL     1       7.115   5.140  14.227  0.00  0.00    +0.000 C 
ATOM     29  O   UNL     1       7.682   5.432  15.521  0.00  0.00    +0.000 OA
ENDBRANCH  20  21
ENDBRANCH   9  20
TORSDOF 3
ENDMDL
MODEL 4
REMARK VINA RESULT:      -8.4      1.157      1.264
REMARK  Name = 
REMARK  4 active torsions:
REMARK  status: ('A' for Active; 'I' for Inactive)
REMARK    1  A    between atoms: C_1  and  C_2
REMARK    2  A    between atoms: C_6  and  C_8
REMARK    3  A    between atoms: C_18  and  C_19
REMARK    4  A    between atoms: C_19  and  C_20
REMARK                            x       y       z     vdW  Elec       q    Type
REMARK                         _______ _______ _______ _____ _____    ______ ____
ROOT
ATOM      1  C   UNL     1       1.855   2.891  21.430  0.00  0.00    +0.000 C 
ATOM      2  C   UNL     1       2.289   4.120  20.715  0.00  0.00    +0.000 A 
ATOM      3  N   UNL     1       1.591   5.295  20.964  0.00  0.00    +0.000 NA
ATOM      4  C   UNL     1       2.044   6.263  20.203  0.00  0.00    +0.000 A 
ATOM      5  N   UNL     1       1.500   7.517  20.233  0.00  0.00    +0.000 N 
ATOM      6  C   UNL     1       1.732   8.541  19.348  0.00  0.00    +0.000 C 
ATOM      7  O   UNL     1       2.479   8.537  18.377  0.00  0.00    +0.000 OA
ATOM      8  S   UNL     1       3.374   5.861  19.222  0.00  0.00    +0.000 S 
ATOM      9  C   UNL     1       3.326   4.244  19.802  0.00  0.00    +0.000 A 
ATOM     10  H   UNL     1       0.775   7.663  20.926  0.00  0.00    +0.000 HD
ENDROOT
BRANCH   6  11
ATOM     11  C   UNL     1       0.914   9.718  19.666  0.00  0.00    +0.000 A 
ATOM     12  C   UNL     1       0.925  10.420  20.856  0.00  0.00    +0.000 A 
ATOM     13  N   UNL     1       0.044  11.454  20.691  0.00  0.00    +0.000 N 
ATOM     14  C   UNL     1      -0.299  12.473  21.577  0.00  0.00    +0.000 A 
ATOM     15  C   UNL     1      -1.192  13.401  21.192  0.00  0.00    +0.000 A 
ATOM     16  C   UNL     1      -1.777  13.305  19.863  0.00  0.00    +0.000 A 
ATOM     17  C   UNL     1      -1.441  12.313  19.014  0.00  0.00    +0.000 A 
ATOM     18  C   UNL     1      -0.487  11.333  19.411  0.00  0.00    +0.000 A 
ATOM     19  N   UNL     1       0.022  10.300  18.770  0.00  0.00    +0.000 NA
ENDBRANCH   6  11
BRANCH   9  20
ATOM     20  C   UNL     1       4.320   3.231  19.308  0.00  0.00    +0.000 C 
BRANCH  20  21
ATOM     21  C   UNL     1       5.239   3.780  18.238  0.00  0.00    +0.000 A 
ATOM     22  C   UNL     1       6.391   4.520  18.600  0.00  0.00    +0.000 A 
ATOM     23  C   UNL     1       7.204   5.114  17.630  0.00  0.00    +0.000 A 
ATOM     24  C   UNL     1       6.844   4.954  16.310  0.00  0.00    +0.000 A 
ATOM     25  C   UNL     1       5.743   4.215  15.946  0.00  0.00    +0.000 A 
ATOM     26  C   UNL     1       4.928   3.612  16.879  0.00  0.00    +0.000 A 
ATOM     27  O   UNL     1       5.564   4.183  14.598  0.00  0.00    +0.000 OA
ATOM     28  C   UNL     1       6.641   5.038  14.162  0.00  0.00    +0.000 C 
ATOM     29  O   UNL     1       7.488   5.490  15.240  0.00  0.00    +0.000 OA
ENDBRANCH  20  21
ENDBRANCH   9  20
TORSDOF 3
ENDMDL
MODEL 5
REMARK VINA RESULT:      -8.4      1.585      2.096
REMARK  Name = 
REMARK  4 active torsions:
REMARK  status: ('A' for Active; 'I' for Inactive)
REMARK    1  A    between atoms: C_1  and  C_2
REMARK    2  A    between atoms: C_6  and  C_8
REMARK    3  A    between atoms: C_18  and  C_19
REMARK    4  A    between atoms: C_19  and  C_20
REMARK                            x       y       z     vdW  Elec       q    Type
REMARK                         _______ _______ _______ _____ _____    ______ ____
ROOT
ATOM      1  C   UNL     1       3.665   2.804  20.369  0.00  0.00    +0.000 C 
ATOM      2  C   UNL     1       3.361   4.042  19.602  0.00  0.00    +0.000 A 
ATOM      3  N   UNL     1       2.884   5.140  20.307  0.00  0.00    +0.000 NA
ATOM      4  C   UNL     1       2.593   6.117  19.482  0.00  0.00    +0.000 A 
ATOM      5  N   UNL     1       2.073   7.302  19.925  0.00  0.00    +0.000 N 
ATOM      6  C   UNL     1       1.531   8.305  19.161  0.00  0.00    +0.000 C 
ATOM      7  O   UNL     1       1.423   8.342  17.941  0.00  0.00    +0.000 OA
ATOM      8  S   UNL     1       2.950   5.825  17.845  0.00  0.00    +0.000 S 
ATOM      9  C   UNL     1       3.490   4.241  18.235  0.00  0.00    +0.000 A 
ATOM     10  H   UNL     1       1.994   7.396  20.932  0.00  0.00    +0.000 HD
ENDROOT
BRANCH   6  11
ATOM     11  C   UNL     1       1.014   9.395  19.997  0.00  0.00    +0.000 A 
ATOM     12  C   UNL     1       1.166  10.747  19.758  0.00  0.00    +0.000 A 
ATOM     13  N   UNL     1       0.493  11.385  20.764  0.00  0.00    +0.000 N 
ATOM     14  C   UNL     1       0.310  12.749  20.980  0.00  0.00    +0.000 A 
ATOM     15  C   UNL     1      -0.407  13.154  22.043  0.00  0.00    +0.000 A 
ATOM     16  C   UNL     1      -0.965  12.150  22.937  0.00  0.00    +0.000 A 
ATOM     17  C   UNL     1      -0.781  10.832  22.721  0.00  0.00    +0.000 A 
ATOM     18  C   UNL     1      -0.031  10.396  21.592  0.00  0.00    +0.000 A 
ATOM     19  N   UNL     1       0.264   9.189  21.151  0.00  0.00    +0.000 NA
ENDBRANCH   6  11
BRANCH   9  20
ATOM     20  C   UNL     1       3.999   3.326  17.158  0.00  0.00    +0.000 C 
BRANCH  20  21
ATOM     21  C   UNL     1       5.181   3.900  16.406  0.00  0.00    +0.000 A 
ATOM     22  C   UNL     1       6.113   4.730  17.073  0.00  0.00    +0.000 A 
ATOM     23  C   UNL     1       7.160   5.346  16.379  0.00  0.00    +0.000 A 
ATOM     24  C   UNL     1       7.250   5.116  15.025  0.00  0.00    +0.000 A 
ATOM     25  C   UNL     1       6.366   4.290  14.371  0.00  0.00    +0.000 A 
ATOM     26  C   UNL     1       5.330   3.663  15.030  0.00  0.00    +0.000 A 
ATOM     27  O   UNL     1       6.629   4.198  13.040  0.00  0.00    +0.000 OA
ATOM     28  C   UNL     1       7.741   5.111  12.922  0.00  0.00    +0.000 C 
ATOM     29  O   UNL     1       8.172   5.658  14.185  0.00  0.00    +0.000 OA
ENDBRANCH  20  21
ENDBRANCH   9  20
TORSDOF 3
ENDMDL
MODEL 6
REMARK VINA RESULT:      -8.3      1.478      2.233
REMARK  Name = 
REMARK  4 active torsions:
REMARK  status: ('A' for Active; 'I' for Inactive)
REMARK    1  A    between atoms: C_1  and  C_2
REMARK    2  A    between atoms: C_6  and  C_8
REMARK    3  A    between atoms: C_18  and  C_19
REMARK    4  A    between atoms: C_19  and  C_20
REMARK                            x       y       z     vdW  Elec       q    Type
REMARK                         _______ _______ _______ _____ _____    ______ ____
ROOT
ATOM      1  C   UNL     1       3.636   3.328  20.116  0.00  0.00    +0.000 C 
ATOM      2  C   UNL     1       3.694   4.668  19.473  0.00  0.00    +0.000 A 
ATOM      3  N   UNL     1       2.647   5.549  19.717  0.00  0.00    +0.000 NA
ATOM      4  C   UNL     1       2.808   6.648  19.020  0.00  0.00    +0.000 A 
ATOM      5  N   UNL     1       1.893   7.665  19.058  0.00  0.00    +0.000 N 
ATOM      6  C   UNL     1       1.832   8.755  18.226  0.00  0.00    +0.000 C 
ATOM      7  O   UNL     1       2.590   9.037  17.305  0.00  0.00    +0.000 OA
ATOM      8  S   UNL     1       4.244   6.738  18.114  0.00  0.00    +0.000 S 
ATOM      9  C   UNL     1       4.683   5.160  18.634  0.00  0.00    +0.000 A 
ATOM     10  H   UNL     1       1.125   7.537  19.708  0.00  0.00    +0.000 HD
ENDROOT
BRANCH   6  11
ATOM     11  C   UNL     1       0.669   9.596  18.531  0.00  0.00    +0.000 A 
ATOM     12  C   UNL     1       0.549  10.465  19.598  0.00  0.00    +0.000 A 
ATOM     13  N   UNL     1      -0.674  11.062  19.463  0.00  0.00    +0.000 N 
ATOM     14  C   UNL     1      -1.276  12.036  20.256  0.00  0.00    +0.000 A 
ATOM     15  C   UNL     1      -2.496  12.491  19.921  0.00  0.00    +0.000 A 
ATOM     16  C   UNL     1      -3.151  11.944  18.742  0.00  0.00    +0.000 A 
ATOM     17  C   UNL     1      -2.562  10.999  17.982  0.00  0.00    +0.000 A 
ATOM     18  C   UNL     1      -1.265  10.520  18.325  0.00  0.00    +0.000 A 
ATOM     19  N   UNL     1      -0.477   9.639  17.742  0.00  0.00    +0.000 NA
ENDBRANCH   6  11
BRANCH   9  20
ATOM     20  C   UNL     1       5.970   4.539  18.171  0.00  0.00    +0.000 C 
BRANCH  20  21
ATOM     21  C   UNL     1       6.097   4.500  16.662  0.00  0.00    +0.000 A 
ATOM     22  C   UNL     1       5.232   3.681  15.897  0.00  0.00    +0.000 A 
ATOM     23  C   UNL     1       5.390   3.558  14.513  0.00  0.00    +0.000 A 
ATOM     24  C   UNL     1       6.416   4.262  13.922  0.00  0.00    +0.000 A 
ATOM     25  C   UNL     1       7.244   5.081  14.652  0.00  0.00    +0.000 A 
ATOM     26  C   UNL     1       7.108   5.228  16.016  0.00  0.00    +0.000 A 
ATOM     27  O   UNL     1       8.190   5.682  13.881  0.00  0.00    +0.000 OA
ATOM     28  C   UNL     1       7.899   5.097  12.594  0.00  0.00    +0.000 C 
ATOM     29  O   UNL     1       6.743   4.234  12.603  0.00  0.00    +0.000 OA
ENDBRANCH  20  21
ENDBRANCH   9  20
TORSDOF 3
ENDMDL
MODEL 7
REMARK VINA RESULT:      -8.3      1.497      1.633
REMARK  Name = 
REMARK  4 active torsions:
REMARK  status: ('A' for Active; 'I' for Inactive)
REMARK    1  A    between atoms: C_1  and  C_2
REMARK    2  A    between atoms: C_6  and  C_8
REMARK    3  A    between atoms: C_18  and  C_19
REMARK    4  A    between atoms: C_19  and  C_20
REMARK                            x       y       z     vdW  Elec       q    Type
REMARK                         _______ _______ _______ _____ _____    ______ ____
ROOT
ATOM      1  C   UNL     1       3.505   2.825  20.516  0.00  0.00    +0.000 C 
ATOM      2  C   UNL     1       3.291   4.054  19.705  0.00  0.00    +0.000 A 
ATOM      3  N   UNL     1       2.781   5.174  20.350  0.00  0.00    +0.000 NA
ATOM      4  C   UNL     1       2.579   6.141  19.487  0.00  0.00    +0.000 A 
ATOM      5  N   UNL     1       2.049   7.344  19.865  0.00  0.00    +0.000 N 
ATOM      6  C   UNL     1       1.593   8.343  19.042  0.00  0.00    +0.000 C 
ATOM      7  O   UNL     1       1.586   8.359  17.817  0.00  0.00    +0.000 OA
ATOM      8  S   UNL     1       3.062   5.812  17.890  0.00  0.00    +0.000 S 
ATOM      9  C   UNL     1       3.536   4.224  18.350  0.00  0.00    +0.000 A 
ATOM     10  H   UNL     1       1.890   7.458  20.860  0.00  0.00    +0.000 HD
ENDROOT
BRANCH   6  11
ATOM     11  C   UNL     1       1.032   9.458  19.814  0.00  0.00    +0.000 A 
ATOM     12  C   UNL     1       0.219   9.351  20.926  0.00  0.00    +0.000 A 
ATOM     13  N   UNL     1      -0.026  10.633  21.337  0.00  0.00    +0.000 N 
ATOM     14  C   UNL     1      -0.766  11.085  22.427  0.00  0.00    +0.000 A 
ATOM     15  C   UNL     1      -0.864  12.408  22.649  0.00  0.00    +0.000 A 
ATOM     16  C   UNL     1      -0.195  13.324  21.736  0.00  0.00    +0.000 A 
ATOM     17  C   UNL     1       0.517  12.876  20.683  0.00  0.00    +0.000 A 
ATOM     18  C   UNL     1       0.633  11.477  20.448  0.00  0.00    +0.000 A 
ATOM     19  N   UNL     1       1.281  10.797  19.524  0.00  0.00    +0.000 NA
ENDBRANCH   6  11
BRANCH   9  20
ATOM     20  C   UNL     1       4.111   3.280  17.334  0.00  0.00    +0.000 C 
BRANCH  20  21
ATOM     21  C   UNL     1       5.257   3.884  16.549  0.00  0.00    +0.000 A 
ATOM     22  C   UNL     1       6.147   4.790  17.174  0.00  0.00    +0.000 A 
ATOM     23  C   UNL     1       7.155   5.431  16.446  0.00  0.00    +0.000 A 
ATOM     24  C   UNL     1       7.250   5.148  15.102  0.00  0.00    +0.000 A 
ATOM     25  C   UNL     1       6.408   4.250  14.491  0.00  0.00    +0.000 A 
ATOM     26  C   UNL     1       5.410   3.597  15.184  0.00  0.00    +0.000 A 
ATOM     27  O   UNL     1       6.669   4.116  13.163  0.00  0.00    +0.000 OA
ATOM     28  C   UNL     1       7.729   5.081  12.998  0.00  0.00    +0.000 C 
ATOM     29  O   UNL     1       8.137   5.703  14.234  0.00  0.00    +0.000 OA
ENDBRANCH  20  21
ENDBRANCH   9  20
TORSDOF 3
ENDMDL
MODEL 8
REMARK VINA RESULT:      -8.3      4.080     10.605
REMARK  Name = 
REMARK  4 active torsions:
REMARK  status: ('A' for Active; 'I' for Inactive)
REMARK    1  A    between atoms: C_1  and  C_2
REMARK    2  A    between atoms: C_6  and  C_8
REMARK    3  A    between atoms: C_18  and  C_19
REMARK    4  A    between atoms: C_19  and  C_20
REMARK                            x       y       z     vdW  Elec       q    Type
REMARK                         _______ _______ _______ _____ _____    ______ ____
ROOT
ATOM      1  C   UNL     1      -1.082  11.808  22.893  0.00  0.00    +0.000 C 
ATOM      2  C   UNL     1      -0.760  11.339  21.519  0.00  0.00    +0.000 A 
ATOM      3  N   UNL     1       0.104  10.259  21.389  0.00  0.00    +0.000 NA
ATOM      4  C   UNL     1       0.346  10.021  20.122  0.00  0.00    +0.000 A 
ATOM      5  N   UNL     1       1.196   9.025  19.726  0.00  0.00    +0.000 N 
ATOM      6  C   UNL     1       1.696   8.817  18.465  0.00  0.00    +0.000 C 
ATOM      7  O   UNL     1       1.467   9.467  17.451  0.00  0.00    +0.000 OA
ATOM      8  S   UNL     1      -0.501  10.999  19.018  0.00  0.00    +0.000 S 
ATOM      9  C   UNL     1      -1.220  11.863  20.319  0.00  0.00    +0.000 A 
ATOM     10  H   UNL     1       1.568   8.447  20.471  0.00  0.00    +0.000 HD
ENDROOT
BRANCH   6  11
ATOM     11  C   UNL     1       2.633   7.687  18.440  0.00  0.00    +0.000 A 
ATOM     12  C   UNL     1       2.674   6.644  19.345  0.00  0.00    +0.000 A 
ATOM     13  N   UNL     1       3.668   5.810  18.913  0.00  0.00    +0.000 N 
ATOM     14  C   UNL     1       4.103   4.600  19.449  0.00  0.00    +0.000 A 
ATOM     15  C   UNL     1       5.103   3.937  18.842  0.00  0.00    +0.000 A 
ATOM     16  C   UNL     1       5.703   4.511  17.647  0.00  0.00    +0.000 A 
ATOM     17  C   UNL     1       5.277   5.684  17.137  0.00  0.00    +0.000 A 
ATOM     18  C   UNL     1       4.211   6.387  17.768  0.00  0.00    +0.000 A 
ATOM     19  N   UNL     1       3.604   7.514  17.459  0.00  0.00    +0.000 NA
ENDBRANCH   6  11
BRANCH   9  20
ATOM     20  C   UNL     1      -2.180  12.985  20.046  0.00  0.00    +0.000 C 
BRANCH  20  21
ATOM     21  C   UNL     1      -3.630  12.554  20.126  0.00  0.00    +0.000 A 
ATOM     22  C   UNL     1      -4.293  12.070  18.973  0.00  0.00    +0.000 A 
ATOM     23  C   UNL     1      -5.654  11.753  19.001  0.00  0.00    +0.000 A 
ATOM     24  C   UNL     1      -6.327  11.928  20.190  0.00  0.00    +0.000 A 
ATOM     25  C   UNL     1      -5.687  12.371  21.323  0.00  0.00    +0.000 A 
ATOM     26  C   UNL     1      -4.344  12.684  21.328  0.00  0.00    +0.000 A 
ATOM     27  O   UNL     1      -6.528  12.476  22.386  0.00  0.00    +0.000 OA
ATOM     28  C   UNL     1      -7.783  12.109  21.774  0.00  0.00    +0.000 C 
ATOM     29  O   UNL     1      -7.653  11.712  20.393  0.00  0.00    +0.000 OA
ENDBRANCH  20  21
ENDBRANCH   9  20
TORSDOF 3
ENDMDL
MODEL 9
REMARK VINA RESULT:      -8.3      3.960     10.485
REMARK  Name = 
REMARK  4 active torsions:
REMARK  status: ('A' for Active; 'I' for Inactive)
REMARK    1  A    between atoms: C_1  and  C_2
REMARK    2  A    between atoms: C_6  and  C_8
REMARK    3  A    between atoms: C_18  and  C_19
REMARK    4  A    between atoms: C_19  and  C_20
REMARK                            x       y       z     vdW  Elec       q    Type
REMARK                         _______ _______ _______ _____ _____    ______ ____
ROOT
ATOM      1  C   UNL     1      -0.849  10.480  23.189  0.00  0.00    +0.000 C 
ATOM      2  C   UNL     1      -0.388  10.454  21.775  0.00  0.00    +0.000 A 
ATOM      3  N   UNL     1       0.313   9.335  21.343  0.00  0.00    +0.000 NA
ATOM      4  C   UNL     1       0.713   9.500  20.105  0.00  0.00    +0.000 A 
ATOM      5  N   UNL     1       1.455   8.552  19.455  0.00  0.00    +0.000 N 
ATOM      6  C   UNL     1       2.110   8.692  18.257  0.00  0.00    +0.000 C 
ATOM      7  O   UNL     1       2.144   9.680  17.533  0.00  0.00    +0.000 OA
ATOM      8  S   UNL     1       0.207  10.942  19.358  0.00  0.00    +0.000 S 
ATOM      9  C   UNL     1      -0.569  11.434  20.810  0.00  0.00    +0.000 A 
ATOM     10  H   UNL     1       1.614   7.694  19.970  0.00  0.00    +0.000 HD
ENDROOT
BRANCH   6  11
ATOM     11  C   UNL     1       2.858   7.477  17.912  0.00  0.00    +0.000 A 
ATOM     12  C   UNL     1       2.483   6.180  18.201  0.00  0.00    +0.000 A 
ATOM     13  N   UNL     1       3.450   5.378  17.660  0.00  0.00    +0.000 N 
ATOM     14  C   UNL     1       3.540   3.989  17.644  0.00  0.00    +0.000 A 
ATOM     15  C   UNL     1       4.589   3.407  17.035  0.00  0.00    +0.000 A 
ATOM     16  C   UNL     1       5.601   4.253  16.419  0.00  0.00    +0.000 A 
ATOM     17  C   UNL     1       5.506   5.598  16.442  0.00  0.00    +0.000 A 
ATOM     18  C   UNL     1       4.392   6.220  17.075  0.00  0.00    +0.000 A 
ATOM     19  N   UNL     1       4.059   7.487  17.208  0.00  0.00    +0.000 NA
ENDBRANCH   6  11
BRANCH   9  20
ATOM     20  C   UNL     1      -1.295  12.748  20.875  0.00  0.00    +0.000 C 
BRANCH  20  21
ATOM     21  C   UNL     1      -2.801  12.592  20.854  0.00  0.00    +0.000 A 
ATOM     22  C   UNL     1      -3.480  12.414  19.624  0.00  0.00    +0.000 A 
ATOM     23  C   UNL     1      -4.876  12.360  19.571  0.00  0.00    +0.000 A 
ATOM     24  C   UNL     1      -5.566  12.486  20.756  0.00  0.00    +0.000 A 
ATOM     25  C   UNL     1      -4.916  12.632  21.958  0.00  0.00    +0.000 A 
ATOM     26  C   UNL     1      -3.541  12.681  22.044  0.00  0.00    +0.000 A 
ATOM     27  O   UNL     1      -5.779  12.740  23.004  0.00  0.00    +0.000 OA
ATOM     28  C   UNL     1      -7.045  12.709  22.313  0.00  0.00    +0.000 C 
ATOM     29  O   UNL     1      -6.919  12.497  20.892  0.00  0.00    +0.000 OA
ENDBRANCH  20  21
ENDBRANCH   9  20
TORSDOF 3
ENDMDL
