MODEL 1
REMARK VINA RESULT:      -8.4      0.000      0.000
REMARK  Name = 
REMARK  4 active torsions:
REMARK  status: ('A' for Active; 'I' for Inactive)
REMARK    1  A    between atoms: C_1  and  C_2
REMARK    2  A    between atoms: C_4  and  C_5
REMARK    3  A    between atoms: C_10  and  C_11
REMARK    4  A    between atoms: N_23  and  C_24
REMARK                            x       y       z     vdW  Elec       q    Type
REMARK                         _______ _______ _______ _____ _____    ______ ____
ROOT
ATOM      1  C   UNL     1       2.718   5.776  18.303  0.00  0.00    +0.000 C 
ATOM      2  O   UNL     1       1.949   4.829  18.430  0.00  0.00    +0.000 OA
ATOM      3  N   UNL     1       4.055   5.572  17.849  0.00  0.00    +0.000 N 
ATOM      4  C   UNL     1       4.376   4.211  17.423  0.00  0.00    +0.000 C 
ATOM      5  C   UNL     1       5.881   3.928  17.411  0.00  0.00    +0.000 C 
ATOM      6  C   UNL     1       6.691   4.992  16.632  0.00  0.00    +0.000 C 
ATOM      7  C   UNL     1       6.313   6.373  17.196  0.00  0.00    +0.000 C 
ATOM      8  C   UNL     1       4.807   6.627  17.167  0.00  0.00    +0.000 C 
ENDROOT
BRANCH   6   9
ATOM      9  C   UNL     1       6.476   4.944  15.133  0.00  0.00    +0.000 A 
ATOM     10  N   UNL     1       5.351   4.577  14.552  0.00  0.00    +0.000 NA
ATOM     11  C   UNL     1       5.656   4.059  13.310  0.00  0.00    +0.000 A 
ATOM     12  C   UNL     1       4.838   3.238  12.526  0.00  0.00    +0.000 A 
ATOM     13  C   UNL     1       5.505   2.293  11.756  0.00  0.00    +0.000 A 
ATOM     14  C   UNL     1       6.744   2.627  11.229  0.00  0.00    +0.000 A 
ATOM     15  C   UNL     1       7.416   3.777  11.657  0.00  0.00    +0.000 A 
ATOM     16  C   UNL     1       6.946   4.328  12.854  0.00  0.00    +0.000 A 
ATOM     17  S   UNL     1       7.727   5.339  14.010  0.00  0.00    +0.000 S 
ENDBRANCH   6   9
BRANCH   1  21
ATOM     18  C   UNL     1       1.902  10.661  17.962  0.00  0.00    +0.000 C 
ATOM     19  C   UNL     1       1.890   9.251  18.420  0.00  0.00    +0.000 A 
ATOM     20  N   UNL     1       2.381   8.230  17.751  0.00  0.00    +0.000 NA
ATOM     21  C   UNL     1       2.305   7.170  18.632  0.00  0.00    +0.000 A 
ATOM     22  N   UNL     1       1.870   7.538  19.859  0.00  0.00    +0.000 NA
ATOM     23  N   UNL     1       1.480   8.819  19.671  0.00  0.00    +0.000 N 
BRANCH  23  24
ATOM     24  C   UNL     1       0.726   9.493  20.668  0.00  0.00    +0.000 A 
ATOM     25  C   UNL     1       0.749   9.025  21.993  0.00  0.00    +0.000 A 
ATOM     26  C   UNL     1       0.006   9.684  22.978  0.00  0.00    +0.000 A 
ATOM     27  C   UNL     1      -0.784  10.775  22.635  0.00  0.00    +0.000 A 
ATOM     28  F   UNL     1      -1.505  11.396  23.578  0.00  0.00    +0.000 F 
ATOM     29  C   UNL     1      -0.847  11.226  21.323  0.00  0.00    +0.000 A 
ATOM     30  C   UNL     1      -0.087  10.588  20.337  0.00  0.00    +0.000 A 
ENDBRANCH  23  24
ENDBRANCH   1  21
TORSDOF 3
ENDMDL
MODEL 2
REMARK VINA RESULT:      -8.3      4.954      9.623
REMARK  Name = 
REMARK  4 active torsions:
REMARK  status: ('A' for Active; 'I' for Inactive)
REMARK    1  A    between atoms: C_1  and  C_2
REMARK    2  A    between atoms: C_4  and  C_5
REMARK    3  A    between atoms: C_10  and  C_11
REMARK    4  A    between atoms: N_23  and  C_24
REMARK                            x       y       z     vdW  Elec       q    Type
REMARK                         _______ _______ _______ _____ _____    ______ ____
ROOT
ATOM      1  C   UNL     1       1.278   8.701  20.771  0.00  0.00    +0.000 C 
ATOM      2  O   UNL     1       1.501   8.644  21.975  0.00  0.00    +0.000 OA
ATOM      3  N   UNL     1       0.355   9.656  20.246  0.00  0.00    +0.000 N 
ATOM      4  C   UNL     1      -0.170  10.620  21.211  0.00  0.00    +0.000 C 
ATOM      5  C   UNL     1      -1.470  11.284  20.744  0.00  0.00    +0.000 C 
ATOM      6  C   UNL     1      -1.369  11.876  19.318  0.00  0.00    +0.000 C 
ATOM      7  C   UNL     1      -0.857  10.764  18.385  0.00  0.00    +0.000 C 
ATOM      8  C   UNL     1       0.452  10.146  18.871  0.00  0.00    +0.000 C 
ENDROOT
BRANCH   6   9
ATOM      9  C   UNL     1      -0.486  13.104  19.230  0.00  0.00    +0.000 A 
ATOM     10  N   UNL     1       0.374  13.335  18.257  0.00  0.00    +0.000 NA
ATOM     11  C   UNL     1       1.389  14.124  18.759  0.00  0.00    +0.000 A 
ATOM     12  C   UNL     1       2.659  14.302  18.199  0.00  0.00    +0.000 A 
ATOM     13  C   UNL     1       3.692  14.485  19.112  0.00  0.00    +0.000 A 
ATOM     14  C   UNL     1       3.423  15.177  20.283  0.00  0.00    +0.000 A 
ATOM     15  C   UNL     1       2.105  15.467  20.654  0.00  0.00    +0.000 A 
ATOM     16  C   UNL     1       1.124  14.724  19.989  0.00  0.00    +0.000 A 
ATOM     17  S   UNL     1      -0.491  14.332  20.444  0.00  0.00    +0.000 S 
ENDBRANCH   6   9
BRANCH   1  21
ATOM     18  C   UNL     1       3.905   6.974  16.930  0.00  0.00    +0.000 C 
ATOM     19  C   UNL     1       3.142   7.066  18.197  0.00  0.00    +0.000 A 
ATOM     20  N   UNL     1       2.746   8.185  18.767  0.00  0.00    +0.000 NA
ATOM     21  C   UNL     1       1.936   7.774  19.806  0.00  0.00    +0.000 A 
ATOM     22  N   UNL     1       1.746   6.436  19.827  0.00  0.00    +0.000 NA
ATOM     23  N   UNL     1       2.621   5.990  18.898  0.00  0.00    +0.000 N 
BRANCH  23  24
ATOM     24  C   UNL     1       2.911   4.604  18.790  0.00  0.00    +0.000 A 
ATOM     25  C   UNL     1       3.960   4.052  19.544  0.00  0.00    +0.000 A 
ATOM     26  C   UNL     1       4.251   2.688  19.439  0.00  0.00    +0.000 A 
ATOM     27  C   UNL     1       3.529   1.891  18.558  0.00  0.00    +0.000 A 
ATOM     28  F   UNL     1       3.818   0.588  18.450  0.00  0.00    +0.000 F 
ATOM     29  C   UNL     1       2.513   2.431  17.778  0.00  0.00    +0.000 A 
ATOM     30  C   UNL     1       2.199   3.788  17.896  0.00  0.00    +0.000 A 
ENDBRANCH  23  24
ENDBRANCH   1  21
TORSDOF 3
ENDMDL
MODEL 3
REMARK VINA RESULT:      -8.3      4.101      9.560
REMARK  Name = 
REMARK  4 active torsions:
REMARK  status: ('A' for Active; 'I' for Inactive)
REMARK    1  A    between atoms: C_1  and  C_2
REMARK    2  A    between atoms: C_4  and  C_5
REMARK    3  A    between atoms: C_10  and  C_11
REMARK    4  A    between atoms: N_23  and  C_24
REMARK                            x       y       z     vdW  Elec       q    Type
REMARK                         _______ _______ _______ _____ _____    ______ ____
ROOT
ATOM      1  C   UNL     1       1.847   7.069  20.383  0.00  0.00    +0.000 C 
ATOM      2  O   UNL     1       1.833   6.854  21.590  0.00  0.00    +0.000 OA
ATOM      3  N   UNL     1       1.272   8.262  19.851  0.00  0.00    +0.000 N 
ATOM      4  C   UNL     1       0.814   9.237  20.840  0.00  0.00    +0.000 C 
ATOM      5  C   UNL     1      -0.198  10.236  20.269  0.00  0.00    +0.000 C 
ATOM      6  C   UNL     1       0.287  10.909  18.963  0.00  0.00    +0.000 C 
ATOM      7  C   UNL     1       0.694   9.793  17.984  0.00  0.00    +0.000 C 
ATOM      8  C   UNL     1       1.721   8.834  18.581  0.00  0.00    +0.000 C 
ENDROOT
BRANCH   6   9
ATOM      9  C   UNL     1       1.426  11.888  19.168  0.00  0.00    +0.000 A 
ATOM     10  N   UNL     1       1.649  12.548  20.287  0.00  0.00    +0.000 NA
ATOM     11  C   UNL     1       2.293  13.727  19.969  0.00  0.00    +0.000 A 
ATOM     12  C   UNL     1       2.390  14.866  20.776  0.00  0.00    +0.000 A 
ATOM     13  C   UNL     1       2.398  16.079  20.096  0.00  0.00    +0.000 A 
ATOM     14  C   UNL     1       3.018  16.136  18.857  0.00  0.00    +0.000 A 
ATOM     15  C   UNL     1       3.405  14.964  18.196  0.00  0.00    +0.000 A 
ATOM     16  C   UNL     1       2.816  13.790  18.678  0.00  0.00    +0.000 A 
ATOM     17  S   UNL     1       2.549  12.270  17.913  0.00  0.00    +0.000 S 
ENDBRANCH   6   9
BRANCH   1  21
ATOM     18  C   UNL     1       2.465   3.124  17.435  0.00  0.00    +0.000 C 
ATOM     19  C   UNL     1       2.639   4.438  18.098  0.00  0.00    +0.000 A 
ATOM     20  N   UNL     1       1.783   4.987  18.933  0.00  0.00    +0.000 NA
ATOM     21  C   UNL     1       2.441   6.099  19.420  0.00  0.00    +0.000 A 
ATOM     22  N   UNL     1       3.715   6.190  18.978  0.00  0.00    +0.000 NA
ATOM     23  N   UNL     1       3.781   5.219  18.039  0.00  0.00    +0.000 N 
BRANCH  23  24
ATOM     24  C   UNL     1       4.890   5.149  17.155  0.00  0.00    +0.000 A 
ATOM     25  C   UNL     1       4.749   5.581  15.826  0.00  0.00    +0.000 A 
ATOM     26  C   UNL     1       5.838   5.511  14.950  0.00  0.00    +0.000 A 
ATOM     27  C   UNL     1       7.044   4.976  15.386  0.00  0.00    +0.000 A 
ATOM     28  F   UNL     1       8.081   4.899  14.542  0.00  0.00    +0.000 F 
ATOM     29  C   UNL     1       7.188   4.510  16.687  0.00  0.00    +0.000 A 
ATOM     30  C   UNL     1       6.112   4.600  17.576  0.00  0.00    +0.000 A 
ENDBRANCH  23  24
ENDBRANCH   1  21
TORSDOF 3
ENDMDL
MODEL 4
REMARK VINA RESULT:      -8.3      7.647      9.093
REMARK  Name = 
REMARK  4 active torsions:
REMARK  status: ('A' for Active; 'I' for Inactive)
REMARK    1  A    between atoms: C_1  and  C_2
REMARK    2  A    between atoms: C_4  and  C_5
REMARK    3  A    between atoms: C_10  and  C_11
REMARK    4  A    between atoms: N_23  and  C_24
REMARK                            x       y       z     vdW  Elec       q    Type
REMARK                         _______ _______ _______ _____ _____    ______ ____
ROOT
ATOM      1  C   UNL     1       4.000  14.680  21.918  0.00  0.00    +0.000 C 
ATOM      2  O   UNL     1       4.053  14.469  23.125  0.00  0.00    +0.000 OA
ATOM      3  N   UNL     1       5.173  15.046  21.191  0.00  0.00    +0.000 N 
ATOM      4  C   UNL     1       6.422  15.008  21.950  0.00  0.00    +0.000 C 
ATOM      5  C   UNL     1       7.535  15.842  21.309  0.00  0.00    +0.000 C 
ATOM      6  C   UNL     1       7.749  15.519  19.811  0.00  0.00    +0.000 C 
ATOM      7  C   UNL     1       6.385  15.638  19.107  0.00  0.00    +0.000 C 
ATOM      8  C   UNL     1       5.309  14.773  19.760  0.00  0.00    +0.000 C 
ENDROOT
BRANCH   6   9
ATOM      9  C   UNL     1       8.365  14.157  19.563  0.00  0.00    +0.000 A 
ATOM     10  N   UNL     1       8.940  13.419  20.492  0.00  0.00    +0.000 NA
ATOM     11  C   UNL     1       9.887  12.621  19.882  0.00  0.00    +0.000 A 
ATOM     12  C   UNL     1      10.955  11.969  20.509  0.00  0.00    +0.000 A 
ATOM     13  C   UNL     1      12.113  11.856  19.747  0.00  0.00    +0.000 A 
ATOM     14  C   UNL     1      11.987  11.675  18.378  0.00  0.00    +0.000 A 
ATOM     15  C   UNL     1      10.751  11.848  17.745  0.00  0.00    +0.000 A 
ATOM     16  C   UNL     1       9.794  12.542  18.493  0.00  0.00    +0.000 A 
ATOM     17  S   UNL     1       8.408  13.437  17.994  0.00  0.00    +0.000 S 
ENDBRANCH   6   9
BRANCH   1  21
ATOM     18  C   UNL     1       0.003  15.886  19.234  0.00  0.00    +0.000 C 
ATOM     19  C   UNL     1       1.059  15.119  19.935  0.00  0.00    +0.000 A 
ATOM     20  N   UNL     1       2.135  15.638  20.488  0.00  0.00    +0.000 NA
ATOM     21  C   UNL     1       2.720  14.584  21.160  0.00  0.00    +0.000 A 
ATOM     22  N   UNL     1       1.977  13.455  21.114  0.00  0.00    +0.000 NA
ATOM     23  N   UNL     1       1.007  13.765  20.225  0.00  0.00    +0.000 N 
BRANCH  23  24
ATOM     24  C   UNL     1       0.157  12.753  19.706  0.00  0.00    +0.000 A 
ATOM     25  C   UNL     1      -1.223  12.804  19.965  0.00  0.00    +0.000 A 
ATOM     26  C   UNL     1      -2.065  11.808  19.458  0.00  0.00    +0.000 A 
ATOM     27  C   UNL     1      -1.527  10.749  18.736  0.00  0.00    +0.000 A 
ATOM     28  F   UNL     1      -2.334   9.789  18.263  0.00  0.00    +0.000 F 
ATOM     29  C   UNL     1      -0.160  10.664  18.504  0.00  0.00    +0.000 A 
ATOM     30  C   UNL     1       0.685  11.670  18.986  0.00  0.00    +0.000 A 
ENDBRANCH  23  24
ENDBRANCH   1  21
TORSDOF 3
ENDMDL
MODEL 5
REMARK VINA RESULT:      -8.2      4.254      9.512
REMARK  Name = 
REMARK  4 active torsions:
REMARK  status: ('A' for Active; 'I' for Inactive)
REMARK    1  A    between atoms: C_1  and  C_2
REMARK    2  A    between atoms: C_4  and  C_5
REMARK    3  A    between atoms: C_10  and  C_11
REMARK    4  A    between atoms: N_23  and  C_24
REMARK                            x       y       z     vdW  Elec       q    Type
REMARK                         _______ _______ _______ _____ _____    ______ ____
ROOT
ATOM      1  C   UNL     1       0.925   8.360  21.148  0.00  0.00    +0.000 C 
ATOM      2  O   UNL     1       0.673   8.406  22.348  0.00  0.00    +0.000 OA
ATOM      3  N   UNL     1       0.495   9.404  20.275  0.00  0.00    +0.000 N 
ATOM      4  C   UNL     1      -0.119  10.559  20.927  0.00  0.00    +0.000 C 
ATOM      5  C   UNL     1      -0.975  11.398  19.972  0.00  0.00    +0.000 C 
ATOM      6  C   UNL     1      -0.230  11.785  18.672  0.00  0.00    +0.000 C 
ATOM      7  C   UNL     1       0.329  10.493  18.050  0.00  0.00    +0.000 C 
ATOM      8  C   UNL     1       1.196   9.699  19.024  0.00  0.00    +0.000 C 
ENDROOT
BRANCH   6   9
ATOM      9  C   UNL     1       0.874  12.803  18.883  0.00  0.00    +0.000 A 
ATOM     10  N   UNL     1       0.747  13.903  19.598  0.00  0.00    +0.000 NA
ATOM     11  C   UNL     1       1.626  14.844  19.099  0.00  0.00    +0.000 A 
ATOM     12  C   UNL     1       1.571  16.226  19.308  0.00  0.00    +0.000 A 
ATOM     13  C   UNL     1       2.012  17.007  18.245  0.00  0.00    +0.000 A 
ATOM     14  C   UNL     1       3.058  16.532  17.468  0.00  0.00    +0.000 A 
ATOM     15  C   UNL     1       3.494  15.208  17.587  0.00  0.00    +0.000 A 
ATOM     16  C   UNL     1       2.604  14.347  18.239  0.00  0.00    +0.000 A 
ATOM     17  S   UNL     1       2.432  12.634  18.157  0.00  0.00    +0.000 S 
ENDBRANCH   6   9
BRANCH   1  21
ATOM     18  C   UNL     1       2.630   3.784  20.260  0.00  0.00    +0.000 C 
ATOM     19  C   UNL     1       2.315   5.227  20.136  0.00  0.00    +0.000 A 
ATOM     20  N   UNL     1       1.515   5.902  20.936  0.00  0.00    +0.000 NA
ATOM     21  C   UNL     1       1.668   7.217  20.546  0.00  0.00    +0.000 A 
ATOM     22  N   UNL     1       2.614   7.376  19.594  0.00  0.00    +0.000 NA
ATOM     23  N   UNL     1       2.912   6.104  19.246  0.00  0.00    +0.000 N 
BRANCH  23  24
ATOM     24  C   UNL     1       3.693   5.840  18.089  0.00  0.00    +0.000 A 
ATOM     25  C   UNL     1       4.303   6.904  17.404  0.00  0.00    +0.000 A 
ATOM     26  C   UNL     1       5.071   6.649  16.262  0.00  0.00    +0.000 A 
ATOM     27  C   UNL     1       5.193   5.348  15.786  0.00  0.00    +0.000 A 
ATOM     28  F   UNL     1       5.918   5.109  14.686  0.00  0.00    +0.000 F 
ATOM     29  C   UNL     1       4.564   4.291  16.432  0.00  0.00    +0.000 A 
ATOM     30  C   UNL     1       3.817   4.534  17.588  0.00  0.00    +0.000 A 
ENDBRANCH  23  24
ENDBRANCH   1  21
TORSDOF 3
ENDMDL
MODEL 6
REMARK VINA RESULT:      -8.1      6.577     12.736
REMARK  Name = 
REMARK  4 active torsions:
REMARK  status: ('A' for Active; 'I' for Inactive)
REMARK    1  A    between atoms: C_1  and  C_2
REMARK    2  A    between atoms: C_4  and  C_5
REMARK    3  A    between atoms: C_10  and  C_11
REMARK    4  A    between atoms: N_23  and  C_24
REMARK                            x       y       z     vdW  Elec       q    Type
REMARK                         _______ _______ _______ _____ _____    ______ ____
ROOT
ATOM      1  C   UNL     1      -1.123  13.565  20.770  0.00  0.00    +0.000 C 
ATOM      2  O   UNL     1      -0.623  14.630  20.425  0.00  0.00    +0.000 OA
ATOM      3  N   UNL     1      -1.881  13.475  21.976  0.00  0.00    +0.000 N 
ATOM      4  C   UNL     1      -2.125  14.741  22.663  0.00  0.00    +0.000 C 
ATOM      5  C   UNL     1      -2.498  14.558  24.138  0.00  0.00    +0.000 C 
ATOM      6  C   UNL     1      -3.647  13.544  24.351  0.00  0.00    +0.000 C 
ATOM      7  C   UNL     1      -3.261  12.240  23.630  0.00  0.00    +0.000 C 
ATOM      8  C   UNL     1      -2.921  12.461  22.158  0.00  0.00    +0.000 C 
ENDROOT
BRANCH   6   9
ATOM      9  C   UNL     1      -4.996  14.043  23.875  0.00  0.00    +0.000 A 
ATOM     10  N   UNL     1      -6.031  13.267  23.620  0.00  0.00    +0.000 NA
ATOM     11  C   UNL     1      -6.814  13.893  22.671  0.00  0.00    +0.000 A 
ATOM     12  C   UNL     1      -7.783  13.289  21.861  0.00  0.00    +0.000 A 
ATOM     13  C   UNL     1      -7.916  13.830  20.588  0.00  0.00    +0.000 A 
ATOM     14  C   UNL     1      -7.730  15.195  20.428  0.00  0.00    +0.000 A 
ATOM     15  C   UNL     1      -7.185  15.967  21.460  0.00  0.00    +0.000 A 
ATOM     16  C   UNL     1      -6.533  15.242  22.463  0.00  0.00    +0.000 A 
ATOM     17  S   UNL     1      -5.306  15.716  23.576  0.00  0.00    +0.000 S 
ENDBRANCH   6   9
BRANCH   1  21
ATOM     18  C   UNL     1      -1.776  10.031  17.346  0.00  0.00    +0.000 C 
ATOM     19  C   UNL     1      -1.205  10.864  18.431  0.00  0.00    +0.000 A 
ATOM     20  N   UNL     1      -1.698  12.011  18.848  0.00  0.00    +0.000 NA
ATOM     21  C   UNL     1      -0.951  12.321  19.967  0.00  0.00    +0.000 A 
ATOM     22  N   UNL     1      -0.079  11.345  20.303  0.00  0.00    +0.000 NA
ATOM     23  N   UNL     1      -0.149  10.499  19.250  0.00  0.00    +0.000 N 
BRANCH  23  24
ATOM     24  C   UNL     1       0.806   9.459  19.099  0.00  0.00    +0.000 A 
ATOM     25  C   UNL     1       1.074   8.598  20.177  0.00  0.00    +0.000 A 
ATOM     26  C   UNL     1       2.017   7.574  20.033  0.00  0.00    +0.000 A 
ATOM     27  C   UNL     1       2.715   7.438  18.839  0.00  0.00    +0.000 A 
ATOM     28  F   UNL     1       3.626   6.464  18.708  0.00  0.00    +0.000 F 
ATOM     29  C   UNL     1       2.488   8.305  17.777  0.00  0.00    +0.000 A 
ATOM     30  C   UNL     1       1.529   9.315  17.904  0.00  0.00    +0.000 A 
ENDBRANCH  23  24
ENDBRANCH   1  21
TORSDOF 3
ENDMDL
MODEL 7
REMARK VINA RESULT:      -8.1      5.578     10.393
REMARK  Name = 
REMARK  4 active torsions:
REMARK  status: ('A' for Active; 'I' for Inactive)
REMARK    1  A    between atoms: C_1  and  C_2
REMARK    2  A    between atoms: C_4  and  C_5
REMARK    3  A    between atoms: C_10  and  C_11
REMARK    4  A    between atoms: N_23  and  C_24
REMARK                            x       y       z     vdW  Elec       q    Type
REMARK                         _______ _______ _______ _____ _____    ______ ____
ROOT
ATOM      1  C   UNL     1       0.488   9.722  22.087  0.00  0.00    +0.000 C 
ATOM      2  O   UNL     1       0.817   9.631  23.265  0.00  0.00    +0.000 OA
ATOM      3  N   UNL     1      -0.468  10.698  21.672  0.00  0.00    +0.000 N 
ATOM      4  C   UNL     1      -0.895  11.640  22.705  0.00  0.00    +0.000 C 
ATOM      5  C   UNL     1      -2.224  12.327  22.374  0.00  0.00    +0.000 C 
ATOM      6  C   UNL     1      -2.244  12.957  20.961  0.00  0.00    +0.000 C 
ATOM      7  C   UNL     1      -1.828  11.867  19.956  0.00  0.00    +0.000 C 
ATOM      8  C   UNL     1      -0.488  11.225  20.307  0.00  0.00    +0.000 C 
ENDROOT
BRANCH   6   9
ATOM      9  C   UNL     1      -1.359  14.180  20.826  0.00  0.00    +0.000 A 
ATOM     10  N   UNL     1      -0.867  14.622  19.685  0.00  0.00    +0.000 NA
ATOM     11  C   UNL     1       0.312  15.288  19.955  0.00  0.00    +0.000 A 
ATOM     12  C   UNL     1       1.326  15.590  19.038  0.00  0.00    +0.000 A 
ATOM     13  C   UNL     1       2.617  15.575  19.553  0.00  0.00    +0.000 A 
ATOM     14  C   UNL     1       2.811  15.994  20.860  0.00  0.00    +0.000 A 
ATOM     15  C   UNL     1       1.722  16.190  21.717  0.00  0.00    +0.000 A 
ATOM     16  C   UNL     1       0.523  15.604  21.296  0.00  0.00    +0.000 A 
ATOM     17  S   UNL     1      -0.865  15.115  22.191  0.00  0.00    +0.000 S 
ENDBRANCH   6   9
BRANCH   1  21
ATOM     18  C   UNL     1       2.349   8.040  17.804  0.00  0.00    +0.000 C 
ATOM     19  C   UNL     1       1.925   8.144  19.220  0.00  0.00    +0.000 A 
ATOM     20  N   UNL     1       1.479   9.238  19.801  0.00  0.00    +0.000 NA
ATOM     21  C   UNL     1       1.047   8.817  21.043  0.00  0.00    +0.000 A 
ATOM     22  N   UNL     1       1.128   7.476  21.200  0.00  0.00    +0.000 NA
ATOM     23  N   UNL     1       1.810   7.082  20.102  0.00  0.00    +0.000 N 
BRANCH  23  24
ATOM     24  C   UNL     1       2.322   5.761  20.010  0.00  0.00    +0.000 A 
ATOM     25  C   UNL     1       1.539   4.679  20.448  0.00  0.00    +0.000 A 
ATOM     26  C   UNL     1       2.040   3.376  20.362  0.00  0.00    +0.000 A 
ATOM     27  C   UNL     1       3.326   3.158  19.882  0.00  0.00    +0.000 A 
ATOM     28  F   UNL     1       3.808   1.910  19.813  0.00  0.00    +0.000 F 
ATOM     29  C   UNL     1       4.127   4.221  19.481  0.00  0.00    +0.000 A 
ATOM     30  C   UNL     1       3.624   5.524  19.540  0.00  0.00    +0.000 A 
ENDBRANCH  23  24
ENDBRANCH   1  21
TORSDOF 3
ENDMDL
MODEL 8
REMARK VINA RESULT:      -8.1      5.246     10.704
REMARK  Name = 
REMARK  4 active torsions:
REMARK  status: ('A' for Active; 'I' for Inactive)
REMARK    1  A    between atoms: C_1  and  C_2
REMARK    2  A    between atoms: C_4  and  C_5
REMARK    3  A    between atoms: C_10  and  C_11
REMARK    4  A    between atoms: N_23  and  C_24
REMARK                            x       y       z     vdW  Elec       q    Type
REMARK                         _______ _______ _______ _____ _____    ______ ____
ROOT
ATOM      1  C   UNL     1       0.783   9.537  21.734  0.00  0.00    +0.000 C 
ATOM      2  O   UNL     1       1.136   9.525  22.908  0.00  0.00    +0.000 OA
ATOM      3  N   UNL     1      -0.212  10.457  21.284  0.00  0.00    +0.000 N 
ATOM      4  C   UNL     1      -0.652  11.442  22.270  0.00  0.00    +0.000 C 
ATOM      5  C   UNL     1      -2.009  12.065  21.927  0.00  0.00    +0.000 C 
ATOM      6  C   UNL     1      -2.076  12.612  20.481  0.00  0.00    +0.000 C 
ATOM      7  C   UNL     1      -1.642  11.481  19.531  0.00  0.00    +0.000 C 
ATOM      8  C   UNL     1      -0.274  10.904  19.892  0.00  0.00    +0.000 C 
ENDROOT
BRANCH   6   9
ATOM      9  C   UNL     1      -1.235  13.854  20.260  0.00  0.00    +0.000 A 
ATOM     10  N   UNL     1      -1.150  14.858  21.110  0.00  0.00    +0.000 NA
ATOM     11  C   UNL     1      -0.862  16.003  20.395  0.00  0.00    +0.000 A 
ATOM     12  C   UNL     1      -1.041  17.321  20.828  0.00  0.00    +0.000 A 
ATOM     13  C   UNL     1      -1.388  18.232  19.836  0.00  0.00    +0.000 A 
ATOM     14  C   UNL     1      -0.861  18.057  18.566  0.00  0.00    +0.000 A 
ATOM     15  C   UNL     1      -0.202  16.871  18.223  0.00  0.00    +0.000 A 
ATOM     16  C   UNL     1      -0.431  15.794  19.086  0.00  0.00    +0.000 A 
ATOM     17  S   UNL     1      -0.312  14.096  18.820  0.00  0.00    +0.000 S 
ENDBRANCH   6   9
BRANCH   1  21
ATOM     18  C   UNL     1       2.598   7.669  17.509  0.00  0.00    +0.000 C 
ATOM     19  C   UNL     1       2.210   7.845  18.928  0.00  0.00    +0.000 A 
ATOM     20  N   UNL     1       1.730   8.952  19.454  0.00  0.00    +0.000 NA
ATOM     21  C   UNL     1       1.354   8.593  20.732  0.00  0.00    +0.000 A 
ATOM     22  N   UNL     1       1.502   7.270  20.971  0.00  0.00    +0.000 NA
ATOM     23  N   UNL     1       2.170   6.837  19.879  0.00  0.00    +0.000 N 
BRANCH  23  24
ATOM     24  C   UNL     1       2.740   5.537  19.854  0.00  0.00    +0.000 A 
ATOM     25  C   UNL     1       2.007   4.446  20.352  0.00  0.00    +0.000 A 
ATOM     26  C   UNL     1       2.566   3.164  20.333  0.00  0.00    +0.000 A 
ATOM     27  C   UNL     1       3.859   2.979  19.858  0.00  0.00    +0.000 A 
ATOM     28  F   UNL     1       4.396   1.751  19.853  0.00  0.00    +0.000 F 
ATOM     29  C   UNL     1       4.611   4.053  19.398  0.00  0.00    +0.000 A 
ATOM     30  C   UNL     1       4.050   5.334  19.391  0.00  0.00    +0.000 A 
ENDBRANCH  23  24
ENDBRANCH   1  21
TORSDOF 3
ENDMDL
MODEL 9
REMARK VINA RESULT:      -8.1      6.314     11.937
REMARK  Name = 
REMARK  4 active torsions:
REMARK  status: ('A' for Active; 'I' for Inactive)
REMARK    1  A    between atoms: C_1  and  C_2
REMARK    2  A    between atoms: C_4  and  C_5
REMARK    3  A    between atoms: C_10  and  C_11
REMARK    4  A    between atoms: N_23  and  C_24
REMARK                            x       y       z     vdW  Elec       q    Type
REMARK                         _______ _______ _______ _____ _____    ______ ____
ROOT
ATOM      1  C   UNL     1      -1.096  13.159  20.785  0.00  0.00    +0.000 C 
ATOM      2  O   UNL     1      -0.758  13.987  19.946  0.00  0.00    +0.000 OA
ATOM      3  N   UNL     1      -2.248  13.377  21.599  0.00  0.00    +0.000 N 
ATOM      4  C   UNL     1      -3.045  14.555  21.261  0.00  0.00    +0.000 C 
ATOM      5  C   UNL     1      -3.950  15.013  22.410  0.00  0.00    +0.000 C 
ATOM      6  C   UNL     1      -4.813  13.869  22.993  0.00  0.00    +0.000 C 
ATOM      7  C   UNL     1      -3.869  12.709  23.356  0.00  0.00    +0.000 C 
ATOM      8  C   UNL     1      -3.003  12.266  22.179  0.00  0.00    +0.000 C 
ENDROOT
BRANCH   6   9
ATOM      9  C   UNL     1      -5.911  13.399  22.061  0.00  0.00    +0.000 A 
ATOM     10  N   UNL     1      -6.302  12.145  21.942  0.00  0.00    +0.000 NA
ATOM     11  C   UNL     1      -6.804  11.970  20.668  0.00  0.00    +0.000 A 
ATOM     12  C   UNL     1      -6.984  10.752  20.004  0.00  0.00    +0.000 A 
ATOM     13  C   UNL     1      -6.794  10.790  18.627  0.00  0.00    +0.000 A 
ATOM     14  C   UNL     1      -7.165  11.936  17.941  0.00  0.00    +0.000 A 
ATOM     15  C   UNL     1      -7.489  13.109  18.632  0.00  0.00    +0.000 A 
ATOM     16  C   UNL     1      -7.071  13.146  19.967  0.00  0.00    +0.000 A 
ATOM     17  S   UNL     1      -6.754  14.480  21.010  0.00  0.00    +0.000 S 
ENDBRANCH   6   9
BRANCH   1  21
ATOM     18  C   UNL     1       1.049   9.266  22.995  0.00  0.00    +0.000 C 
ATOM     19  C   UNL     1       0.516  10.199  21.974  0.00  0.00    +0.000 A 
ATOM     20  N   UNL     1      -0.213  11.266  22.226  0.00  0.00    +0.000 NA
ATOM     21  C   UNL     1      -0.320  11.906  21.007  0.00  0.00    +0.000 A 
ATOM     22  N   UNL     1       0.407  11.310  20.035  0.00  0.00    +0.000 NA
ATOM     23  N   UNL     1       0.814  10.161  20.622  0.00  0.00    +0.000 N 
BRANCH  23  24
ATOM     24  C   UNL     1       1.403   9.128  19.846  0.00  0.00    +0.000 A 
ATOM     25  C   UNL     1       1.636   9.335  18.475  0.00  0.00    +0.000 A 
ATOM     26  C   UNL     1       2.213   8.319  17.706  0.00  0.00    +0.000 A 
ATOM     27  C   UNL     1       2.516   7.094  18.290  0.00  0.00    +0.000 A 
ATOM     28  F   UNL     1       3.057   6.119  17.548  0.00  0.00    +0.000 F 
ATOM     29  C   UNL     1       2.257   6.862  19.635  0.00  0.00    +0.000 A 
ATOM     30  C   UNL     1       1.704   7.881  20.417  0.00  0.00    +0.000 A 
ENDBRANCH  23  24
ENDBRANCH   1  21
TORSDOF 3
ENDMDL
