MODEL 1
REMARK VINA RESULT:      -8.9      0.000      0.000
REMARK  Name = 
REMARK  6 active torsions:
REMARK  status: ('A' for Active; 'I' for Inactive)
REMARK    1  A    between atoms: N_1  and  N_2
REMARK    2  A    between atoms: C_6  and  C_7
REMARK    3  A    between atoms: C_7  and  C_8
REMARK    4  A    between atoms: C_8  and  C_9
REMARK    5  A    between atoms: C_13  and  N_14
REMARK    6  A    between atoms: C_21  and  C_22
REMARK                            x       y       z     vdW  Elec       q    Type
REMARK                         _______ _______ _______ _____ _____    ______ ____
ROOT
ATOM      1  C   UNL     1       7.951   7.761  17.869  0.00  0.00    +0.000 A 
ATOM      2  C   UNL     1       7.977   6.942  19.007  0.00  0.00    +0.000 A 
ATOM      3  C   UNL     1       7.768   5.571  18.903  0.00  0.00    +0.000 A 
ATOM      4  C   UNL     1       7.408   5.018  17.681  0.00  0.00    +0.000 A 
ATOM      5  C   UNL     1       7.143   5.861  16.590  0.00  0.00    +0.000 A 
ATOM      6  C   UNL     1       7.557   7.199  16.648  0.00  0.00    +0.000 A 
ENDROOT
BRANCH   5   7
ATOM      7  N   UNL     1       6.085   5.513  15.651  0.00  0.00    +0.000 N 
ATOM      8  C   UNL     1       4.888   6.353  15.890  0.00  0.00    +0.000 C 
ATOM      9  C   UNL     1       4.099   5.512  16.848  0.00  0.00    +0.000 A 
ATOM     10  C   UNL     1       4.445   4.180  16.609  0.00  0.00    +0.000 A 
ATOM     11  C   UNL     1       4.016   3.136  17.408  0.00  0.00    +0.000 A 
ATOM     12  C   UNL     1       3.217   3.460  18.502  0.00  0.00    +0.000 A 
ATOM     13  C   UNL     1       2.881   4.800  18.772  0.00  0.00    +0.000 A 
ATOM     14  C   UNL     1       3.317   5.858  17.945  0.00  0.00    +0.000 A 
ATOM     15  C   UNL     1       5.625   4.169  15.712  0.00  0.00    +0.000 C 
ATOM     16  O   UNL     1       6.173   3.162  15.315  0.00  0.00    +0.000 OA
BRANCH  14  17
ATOM     17  C   UNL     1       3.023   7.280  18.353  0.00  0.00    +0.000 C 
ATOM     18  F   UNL     1       2.756   7.437  19.678  0.00  0.00    +0.000 F 
ATOM     19  F   UNL     1       4.065   8.114  18.088  0.00  0.00    +0.000 F 
ATOM     20  F   UNL     1       1.952   7.799  17.692  0.00  0.00    +0.000 F 
ENDBRANCH  14  17
ENDBRANCH   5   7
BRANCH   1  21
ATOM     21  C   UNL     1       8.196   9.250  17.989  0.00  0.00    +0.000 C 
BRANCH  21  22
ATOM     22  C   UNL     1       8.979   9.612  19.249  0.00  0.00    +0.000 C 
BRANCH  22  27
ATOM     23  N   UNL     1      10.881  12.407  17.881  0.00  0.00    +0.000 N 
ATOM     24  C   UNL     1      11.330  13.168  19.049  0.00  0.00    +0.000 C 
ATOM     25  C   UNL     1      10.211  13.249  20.073  0.00  0.00    +0.000 C 
ATOM     26  C   UNL     1       9.496  11.926  20.264  0.00  0.00    +0.000 C 
ATOM     27  C   UNL     1       9.652  10.964  19.110  0.00  0.00    +0.000 C 
ATOM     28  N   UNL     1      10.331  11.193  18.025  0.00  0.00    +0.000 NA
BRANCH  23  29
ATOM     29  N   UNL     1      11.959  12.277  16.965  0.00  0.00    +0.000 NA
ATOM     30  H   UNL     1      12.715  12.918  17.198  0.00  0.00    +0.000 HD
ATOM     31  H   UNL     1      11.623  12.562  16.044  0.00  0.00    +0.000 HD
ENDBRANCH  23  29
ENDBRANCH  22  27
ENDBRANCH  21  22
ENDBRANCH   1  21
TORSDOF 6
ENDMDL
MODEL 2
REMARK VINA RESULT:      -8.8      0.991      1.182
REMARK  Name = 
REMARK  6 active torsions:
REMARK  status: ('A' for Active; 'I' for Inactive)
REMARK    1  A    between atoms: N_1  and  N_2
REMARK    2  A    between atoms: C_6  and  C_7
REMARK    3  A    between atoms: C_7  and  C_8
REMARK    4  A    between atoms: C_8  and  C_9
REMARK    5  A    between atoms: C_13  and  N_14
REMARK    6  A    between atoms: C_21  and  C_22
REMARK                            x       y       z     vdW  Elec       q    Type
REMARK                         _______ _______ _______ _____ _____    ______ ____
ROOT
ATOM      1  C   UNL     1       7.821   7.804  17.767  0.00  0.00    +0.000 A 
ATOM      2  C   UNL     1       7.944   7.008  18.914  0.00  0.00    +0.000 A 
ATOM      3  C   UNL     1       7.813   5.625  18.839  0.00  0.00    +0.000 A 
ATOM      4  C   UNL     1       7.434   5.031  17.642  0.00  0.00    +0.000 A 
ATOM      5  C   UNL     1       7.074   5.839  16.552  0.00  0.00    +0.000 A 
ATOM      6  C   UNL     1       7.409   7.200  16.572  0.00  0.00    +0.000 A 
ENDROOT
BRANCH   5   7
ATOM      7  N   UNL     1       5.999   5.413  15.664  0.00  0.00    +0.000 N 
ATOM      8  C   UNL     1       4.789   6.240  15.888  0.00  0.00    +0.000 C 
ATOM      9  C   UNL     1       4.046   5.440  16.915  0.00  0.00    +0.000 A 
ATOM     10  C   UNL     1       4.416   4.104  16.745  0.00  0.00    +0.000 A 
ATOM     11  C   UNL     1       4.033   3.100  17.615  0.00  0.00    +0.000 A 
ATOM     12  C   UNL     1       3.256   3.471  18.710  0.00  0.00    +0.000 A 
ATOM     13  C   UNL     1       2.897   4.817  18.910  0.00  0.00    +0.000 A 
ATOM     14  C   UNL     1       3.286   5.834  18.011  0.00  0.00    +0.000 A 
ATOM     15  C   UNL     1       5.572   4.066  15.817  0.00  0.00    +0.000 C 
ATOM     16  O   UNL     1       6.132   3.049  15.464  0.00  0.00    +0.000 OA
BRANCH  14  17
ATOM     17  C   UNL     1       2.971   7.271  18.344  0.00  0.00    +0.000 C 
ATOM     18  F   UNL     1       2.680   7.490  19.655  0.00  0.00    +0.000 F 
ATOM     19  F   UNL     1       4.008   8.103  18.055  0.00  0.00    +0.000 F 
ATOM     20  F   UNL     1       1.906   7.745  17.640  0.00  0.00    +0.000 F 
ENDBRANCH  14  17
ENDBRANCH   5   7
BRANCH   1  21
ATOM     21  C   UNL     1       7.982   9.306  17.854  0.00  0.00    +0.000 C 
BRANCH  21  22
ATOM     22  C   UNL     1       9.068   9.720  18.846  0.00  0.00    +0.000 C 
BRANCH  22  27
ATOM     23  N   UNL     1       9.314  13.266  18.028  0.00  0.00    +0.000 N 
ATOM     24  C   UNL     1      10.601  13.408  17.343  0.00  0.00    +0.000 C 
ATOM     25  C   UNL     1      11.653  12.565  18.042  0.00  0.00    +0.000 C 
ATOM     26  C   UNL     1      11.144  11.185  18.413  0.00  0.00    +0.000 C 
ATOM     27  C   UNL     1       9.640  11.081  18.500  0.00  0.00    +0.000 C 
ATOM     28  N   UNL     1       8.804  12.052  18.281  0.00  0.00    +0.000 NA
BRANCH  23  29
ATOM     29  N   UNL     1       8.324  14.001  17.323  0.00  0.00    +0.000 NA
ATOM     30  H   UNL     1       7.724  14.513  17.967  0.00  0.00    +0.000 HD
ATOM     31  H   UNL     1       7.718  13.332  16.846  0.00  0.00    +0.000 HD
ENDBRANCH  23  29
ENDBRANCH  22  27
ENDBRANCH  21  22
ENDBRANCH   1  21
TORSDOF 6
ENDMDL
MODEL 3
REMARK VINA RESULT:      -8.8      0.817      1.171
REMARK  Name = 
REMARK  6 active torsions:
REMARK  status: ('A' for Active; 'I' for Inactive)
REMARK    1  A    between atoms: N_1  and  N_2
REMARK    2  A    between atoms: C_6  and  C_7
REMARK    3  A    between atoms: C_7  and  C_8
REMARK    4  A    between atoms: C_8  and  C_9
REMARK    5  A    between atoms: C_13  and  N_14
REMARK    6  A    between atoms: C_21  and  C_22
REMARK                            x       y       z     vdW  Elec       q    Type
REMARK                         _______ _______ _______ _____ _____    ______ ____
ROOT
ATOM      1  C   UNL     1       7.819   7.701  17.767  0.00  0.00    +0.000 A 
ATOM      2  C   UNL     1       7.972   6.887  18.898  0.00  0.00    +0.000 A 
ATOM      3  C   UNL     1       7.844   5.505  18.802  0.00  0.00    +0.000 A 
ATOM      4  C   UNL     1       7.441   4.929  17.604  0.00  0.00    +0.000 A 
ATOM      5  C   UNL     1       7.053   5.753  16.536  0.00  0.00    +0.000 A 
ATOM      6  C   UNL     1       7.383   7.115  16.571  0.00  0.00    +0.000 A 
ENDROOT
BRANCH   5   7
ATOM      7  N   UNL     1       5.960   5.337  15.666  0.00  0.00    +0.000 N 
ATOM      8  C   UNL     1       4.769   6.190  15.893  0.00  0.00    +0.000 C 
ATOM      9  C   UNL     1       4.023   5.416  16.938  0.00  0.00    +0.000 A 
ATOM     10  C   UNL     1       4.366   4.071  16.779  0.00  0.00    +0.000 A 
ATOM     11  C   UNL     1       3.975   3.084  17.666  0.00  0.00    +0.000 A 
ATOM     12  C   UNL     1       3.218   3.483  18.765  0.00  0.00    +0.000 A 
ATOM     13  C   UNL     1       2.886   4.838  18.953  0.00  0.00    +0.000 A 
ATOM     14  C   UNL     1       3.283   5.836  18.038  0.00  0.00    +0.000 A 
ATOM     15  C   UNL     1       5.511   4.000  15.839  0.00  0.00    +0.000 C 
ATOM     16  O   UNL     1       6.047   2.969  15.492  0.00  0.00    +0.000 OA
BRANCH  14  17
ATOM     17  C   UNL     1       2.998   7.282  18.357  0.00  0.00    +0.000 C 
ATOM     18  F   UNL     1       4.024   8.130  18.073  0.00  0.00    +0.000 F 
ATOM     19  F   UNL     1       1.927   7.758  17.665  0.00  0.00    +0.000 F 
ATOM     20  F   UNL     1       2.708   7.476  19.674  0.00  0.00    +0.000 F 
ENDBRANCH  14  17
ENDBRANCH   5   7
BRANCH   1  21
ATOM     21  C   UNL     1       7.975   9.203  17.876  0.00  0.00    +0.000 C 
BRANCH  21  22
ATOM     22  C   UNL     1       8.979   9.608  18.954  0.00  0.00    +0.000 C 
BRANCH  22  27
ATOM     23  N   UNL     1      11.336  12.387  18.809  0.00  0.00    +0.000 N 
ATOM     24  C   UNL     1      10.506  13.579  18.622  0.00  0.00    +0.000 C 
ATOM     25  C   UNL     1       9.393  13.283  17.633  0.00  0.00    +0.000 C 
ATOM     26  C   UNL     1       8.737  11.937  17.875  0.00  0.00    +0.000 C 
ATOM     27  C   UNL     1       9.587  10.966  18.659  0.00  0.00    +0.000 C 
ATOM     28  N   UNL     1      10.780  11.206  19.116  0.00  0.00    +0.000 NA
BRANCH  23  29
ATOM     29  N   UNL     1      12.328  12.655  19.790  0.00  0.00    +0.000 NA
ATOM     30  H   UNL     1      12.838  11.808  20.032  0.00  0.00    +0.000 HD
ATOM     31  H   UNL     1      11.852  12.950  20.643  0.00  0.00    +0.000 HD
ENDBRANCH  23  29
ENDBRANCH  22  27
ENDBRANCH  21  22
ENDBRANCH   1  21
TORSDOF 6
ENDMDL
MODEL 4
REMARK VINA RESULT:      -8.8      5.635      8.360
REMARK  Name = 
REMARK  6 active torsions:
REMARK  status: ('A' for Active; 'I' for Inactive)
REMARK    1  A    between atoms: N_1  and  N_2
REMARK    2  A    between atoms: C_6  and  C_7
REMARK    3  A    between atoms: C_7  and  C_8
REMARK    4  A    between atoms: C_8  and  C_9
REMARK    5  A    between atoms: C_13  and  N_14
REMARK    6  A    between atoms: C_21  and  C_22
REMARK                            x       y       z     vdW  Elec       q    Type
REMARK                         _______ _______ _______ _____ _____    ______ ____
ROOT
ATOM      1  C   UNL     1       1.188   9.349  19.358  0.00  0.00    +0.000 A 
ATOM      2  C   UNL     1       0.902   8.730  20.583  0.00  0.00    +0.000 A 
ATOM      3  C   UNL     1       1.534   7.545  20.946  0.00  0.00    +0.000 A 
ATOM      4  C   UNL     1       2.364   6.898  20.040  0.00  0.00    +0.000 A 
ATOM      5  C   UNL     1       2.465   7.382  18.726  0.00  0.00    +0.000 A 
ATOM      6  C   UNL     1       2.001   8.674  18.438  0.00  0.00    +0.000 A 
ENDROOT
BRANCH   5   7
ATOM      7  N   UNL     1       2.600   6.443  17.620  0.00  0.00    +0.000 N 
ATOM      8  C   UNL     1       1.715   5.272  17.830  0.00  0.00    +0.000 C 
ATOM      9  C   UNL     1       2.621   4.317  18.546  0.00  0.00    +0.000 A 
ATOM     10  C   UNL     1       3.929   4.617  18.158  0.00  0.00    +0.000 A 
ATOM     11  C   UNL     1       5.040   4.028  18.733  0.00  0.00    +0.000 A 
ATOM     12  C   UNL     1       4.813   3.108  19.754  0.00  0.00    +0.000 A 
ATOM     13  C   UNL     1       3.503   2.814  20.175  0.00  0.00    +0.000 A 
ATOM     14  C   UNL     1       2.375   3.414  19.575  0.00  0.00    +0.000 A 
ATOM     15  C   UNL     1       3.901   5.906  17.424  0.00  0.00    +0.000 C 
ATOM     16  O   UNL     1       4.881   6.445  16.954  0.00  0.00    +0.000 OA
BRANCH  14  17
ATOM     17  C   UNL     1       1.006   3.147  20.150  0.00  0.00    +0.000 C 
ATOM     18  F   UNL     1       0.312   4.268  20.486  0.00  0.00    +0.000 F 
ATOM     19  F   UNL     1       0.209   2.469  19.279  0.00  0.00    +0.000 F 
ATOM     20  F   UNL     1       1.057   2.386  21.278  0.00  0.00    +0.000 F 
ENDBRANCH  14  17
ENDBRANCH   5   7
BRANCH   1  21
ATOM     21  C   UNL     1       0.509  10.647  18.977  0.00  0.00    +0.000 C 
BRANCH  21  22
ATOM     22  C   UNL     1      -0.932  10.721  19.480  0.00  0.00    +0.000 C 
BRANCH  22  27
ATOM     23  N   UNL     1      -3.725  11.768  17.382  0.00  0.00    +0.000 N 
ATOM     24  C   UNL     1      -4.015  10.611  16.531  0.00  0.00    +0.000 C 
ATOM     25  C   UNL     1      -2.717   9.979  16.062  0.00  0.00    +0.000 C 
ATOM     26  C   UNL     1      -1.689   9.862  17.170  0.00  0.00    +0.000 C 
ATOM     27  C   UNL     1      -1.915  10.804  18.328  0.00  0.00    +0.000 C 
ATOM     28  N   UNL     1      -2.889  11.659  18.424  0.00  0.00    +0.000 NA
BRANCH  23  29
ATOM     29  N   UNL     1      -4.945  12.306  17.873  0.00  0.00    +0.000 NA
ATOM     30  H   UNL     1      -5.743  11.780  17.521  0.00  0.00    +0.000 HD
ATOM     31  H   UNL     1      -5.044  13.250  17.499  0.00  0.00    +0.000 HD
ENDBRANCH  23  29
ENDBRANCH  22  27
ENDBRANCH  21  22
ENDBRANCH   1  21
TORSDOF 6
ENDMDL
MODEL 5
REMARK VINA RESULT:      -8.5      0.696      1.061
REMARK  Name = 
REMARK  6 active torsions:
REMARK  status: ('A' for Active; 'I' for Inactive)
REMARK    1  A    between atoms: N_1  and  N_2
REMARK    2  A    between atoms: C_6  and  C_7
REMARK    3  A    between atoms: C_7  and  C_8
REMARK    4  A    between atoms: C_8  and  C_9
REMARK    5  A    between atoms: C_13  and  N_14
REMARK    6  A    between atoms: C_21  and  C_22
REMARK                            x       y       z     vdW  Elec       q    Type
REMARK                         _______ _______ _______ _____ _____    ______ ____
ROOT
ATOM      1  C   UNL     1       8.002   7.728  17.919  0.00  0.00    +0.000 A 
ATOM      2  C   UNL     1       8.044   6.900  19.050  0.00  0.00    +0.000 A 
ATOM      3  C   UNL     1       7.729   5.548  18.955  0.00  0.00    +0.000 A 
ATOM      4  C   UNL     1       7.247   5.033  17.758  0.00  0.00    +0.000 A 
ATOM      5  C   UNL     1       6.973   5.903  16.690  0.00  0.00    +0.000 A 
ATOM      6  C   UNL     1       7.487   7.207  16.725  0.00  0.00    +0.000 A 
ENDROOT
BRANCH   5   7
ATOM      7  N   UNL     1       5.832   5.641  15.823  0.00  0.00    +0.000 N 
ATOM      8  C   UNL     1       4.597   6.212  16.412  0.00  0.00    +0.000 C 
ATOM      9  C   UNL     1       4.062   5.056  17.203  0.00  0.00    +0.000 A 
ATOM     10  C   UNL     1       4.516   3.888  16.586  0.00  0.00    +0.000 A 
ATOM     11  C   UNL     1       4.334   2.630  17.129  0.00  0.00    +0.000 A 
ATOM     12  C   UNL     1       3.677   2.557  18.355  0.00  0.00    +0.000 A 
ATOM     13  C   UNL     1       3.237   3.727  19.003  0.00  0.00    +0.000 A 
ATOM     14  C   UNL     1       3.420   5.006  18.435  0.00  0.00    +0.000 A 
ATOM     15  C   UNL     1       5.542   4.270  15.585  0.00  0.00    +0.000 C 
ATOM     16  O   UNL     1       6.133   3.482  14.878  0.00  0.00    +0.000 OA
BRANCH  14  17
ATOM     17  C   UNL     1       3.032   6.227  19.232  0.00  0.00    +0.000 C 
ATOM     18  F   UNL     1       2.187   7.072  18.583  0.00  0.00    +0.000 F 
ATOM     19  F   UNL     1       2.403   5.900  20.394  0.00  0.00    +0.000 F 
ATOM     20  F   UNL     1       4.111   6.977  19.590  0.00  0.00    +0.000 F 
ENDBRANCH  14  17
ENDBRANCH   5   7
BRANCH   1  21
ATOM     21  C   UNL     1       8.363   9.194  18.028  0.00  0.00    +0.000 C 
BRANCH  21  22
ATOM     22  C   UNL     1       8.894   9.563  19.412  0.00  0.00    +0.000 C 
BRANCH  22  27
ATOM     23  N   UNL     1      11.001  12.263  18.158  0.00  0.00    +0.000 N 
ATOM     24  C   UNL     1      11.746  12.736  19.326  0.00  0.00    +0.000 C 
ATOM     25  C   UNL     1      10.829  12.790  20.535  0.00  0.00    +0.000 C 
ATOM     26  C   UNL     1       9.941  11.566  20.651  0.00  0.00    +0.000 C 
ATOM     27  C   UNL     1       9.754  10.811  19.357  0.00  0.00    +0.000 C 
ATOM     28  N   UNL     1      10.285  11.131  18.214  0.00  0.00    +0.000 NA
BRANCH  23  29
ATOM     29  N   UNL     1      11.886  12.147  17.052  0.00  0.00    +0.000 NA
ATOM     30  H   UNL     1      12.757  12.644  17.230  0.00  0.00    +0.000 HD
ATOM     31  H   UNL     1      11.454  12.615  16.255  0.00  0.00    +0.000 HD
ENDBRANCH  23  29
ENDBRANCH  22  27
ENDBRANCH  21  22
ENDBRANCH   1  21
TORSDOF 6
ENDMDL
MODEL 6
REMARK VINA RESULT:      -8.4      5.662      8.055
REMARK  Name = 
REMARK  6 active torsions:
REMARK  status: ('A' for Active; 'I' for Inactive)
REMARK    1  A    between atoms: N_1  and  N_2
REMARK    2  A    between atoms: C_6  and  C_7
REMARK    3  A    between atoms: C_7  and  C_8
REMARK    4  A    between atoms: C_8  and  C_9
REMARK    5  A    between atoms: C_13  and  N_14
REMARK    6  A    between atoms: C_21  and  C_22
REMARK                            x       y       z     vdW  Elec       q    Type
REMARK                         _______ _______ _______ _____ _____    ______ ____
ROOT
ATOM      1  C   UNL     1       1.432   9.166  18.803  0.00  0.00    +0.000 A 
ATOM      2  C   UNL     1       1.130   8.709  20.093  0.00  0.00    +0.000 A 
ATOM      3  C   UNL     1       1.724   7.557  20.598  0.00  0.00    +0.000 A 
ATOM      4  C   UNL     1       2.532   6.780  19.778  0.00  0.00    +0.000 A 
ATOM      5  C   UNL     1       2.646   7.099  18.416  0.00  0.00    +0.000 A 
ATOM      6  C   UNL     1       2.222   8.360  17.973  0.00  0.00    +0.000 A 
ENDROOT
BRANCH   5   7
ATOM      7  N   UNL     1       2.749   6.029  17.432  0.00  0.00    +0.000 N 
ATOM      8  C   UNL     1       1.801   4.936  17.759  0.00  0.00    +0.000 C 
ATOM      9  C   UNL     1       2.645   4.029  18.602  0.00  0.00    +0.000 A 
ATOM     10  C   UNL     1       3.973   4.217  18.209  0.00  0.00    +0.000 A 
ATOM     11  C   UNL     1       5.043   3.646  18.874  0.00  0.00    +0.000 A 
ATOM     12  C   UNL     1       4.753   2.866  19.991  0.00  0.00    +0.000 A 
ATOM     13  C   UNL     1       3.423   2.689  20.416  0.00  0.00    +0.000 A 
ATOM     14  C   UNL     1       2.337   3.269  19.725  0.00  0.00    +0.000 A 
ATOM     15  C   UNL     1       4.024   5.408  17.328  0.00  0.00    +0.000 C 
ATOM     16  O   UNL     1       5.037   5.839  16.819  0.00  0.00    +0.000 OA
BRANCH  14  17
ATOM     17  C   UNL     1       0.948   3.140  20.297  0.00  0.00    +0.000 C 
ATOM     18  F   UNL     1       0.892   2.477  21.484  0.00  0.00    +0.000 F 
ATOM     19  F   UNL     1       0.374   4.353  20.528  0.00  0.00    +0.000 F 
ATOM     20  F   UNL     1       0.100   2.480  19.460  0.00  0.00    +0.000 F 
ENDBRANCH  14  17
ENDBRANCH   5   7
BRANCH   1  21
ATOM     21  C   UNL     1       0.793  10.429  18.267  0.00  0.00    +0.000 C 
BRANCH  21  22
ATOM     22  C   UNL     1      -0.364  10.913  19.138  0.00  0.00    +0.000 C 
BRANCH  22  27
ATOM     23  N   UNL     1      -2.917  10.066  16.675  0.00  0.00    +0.000 N 
ATOM     24  C   UNL     1      -3.842  11.201  16.682  0.00  0.00    +0.000 C 
ATOM     25  C   UNL     1      -4.079  11.664  18.109  0.00  0.00    +0.000 C 
ATOM     26  C   UNL     1      -2.801  11.727  18.923  0.00  0.00    +0.000 C 
ATOM     27  C   UNL     1      -1.678  10.876  18.381  0.00  0.00    +0.000 C 
ATOM     28  N   UNL     1      -1.740  10.138  17.312  0.00  0.00    +0.000 NA
BRANCH  23  29
ATOM     29  N   UNL     1      -2.647   9.690  15.332  0.00  0.00    +0.000 NA
ATOM     30  H   UNL     1      -3.501   9.689  14.776  0.00  0.00    +0.000 HD
ATOM     31  H   UNL     1      -2.315   8.725  15.338  0.00  0.00    +0.000 HD
ENDBRANCH  23  29
ENDBRANCH  22  27
ENDBRANCH  21  22
ENDBRANCH   1  21
TORSDOF 6
ENDMDL
MODEL 7
REMARK VINA RESULT:      -8.4      4.634      7.151
REMARK  Name = 
REMARK  6 active torsions:
REMARK  status: ('A' for Active; 'I' for Inactive)
REMARK    1  A    between atoms: N_1  and  N_2
REMARK    2  A    between atoms: C_6  and  C_7
REMARK    3  A    between atoms: C_7  and  C_8
REMARK    4  A    between atoms: C_8  and  C_9
REMARK    5  A    between atoms: C_13  and  N_14
REMARK    6  A    between atoms: C_21  and  C_22
REMARK                            x       y       z     vdW  Elec       q    Type
REMARK                         _______ _______ _______ _____ _____    ______ ____
ROOT
ATOM      1  C   UNL     1       1.819   7.219  20.000  0.00  0.00    +0.000 A 
ATOM      2  C   UNL     1       2.234   8.164  19.051  0.00  0.00    +0.000 A 
ATOM      3  C   UNL     1       2.949   7.773  17.924  0.00  0.00    +0.000 A 
ATOM      4  C   UNL     1       3.365   6.454  17.792  0.00  0.00    +0.000 A 
ATOM      5  C   UNL     1       3.162   5.555  18.851  0.00  0.00    +0.000 A 
ATOM      6  C   UNL     1       2.268   5.898  19.875  0.00  0.00    +0.000 A 
ENDROOT
BRANCH   5   7
ATOM      7  N   UNL     1       4.166   4.537  19.133  0.00  0.00    +0.000 N 
ATOM      8  C   UNL     1       5.510   5.155  19.239  0.00  0.00    +0.000 C 
ATOM      9  C   UNL     1       6.019   5.043  17.834  0.00  0.00    +0.000 A 
ATOM     10  C   UNL     1       5.387   3.942  17.251  0.00  0.00    +0.000 A 
ATOM     11  C   UNL     1       5.510   3.625  15.911  0.00  0.00    +0.000 A 
ATOM     12  C   UNL     1       6.293   4.469  15.128  0.00  0.00    +0.000 A 
ATOM     13  C   UNL     1       6.914   5.599  15.694  0.00  0.00    +0.000 A 
ATOM     14  C   UNL     1       6.790   5.909  17.065  0.00  0.00    +0.000 A 
ATOM     15  C   UNL     1       4.295   3.512  18.157  0.00  0.00    +0.000 C 
ATOM     16  O   UNL     1       3.554   2.577  17.938  0.00  0.00    +0.000 OA
BRANCH  14  17
ATOM     17  C   UNL     1       7.382   7.195  17.585  0.00  0.00    +0.000 C 
ATOM     18  F   UNL     1       8.097   7.057  18.734  0.00  0.00    +0.000 F 
ATOM     19  F   UNL     1       8.234   7.765  16.689  0.00  0.00    +0.000 F 
ATOM     20  F   UNL     1       6.432   8.135  17.846  0.00  0.00    +0.000 F 
ENDBRANCH  14  17
ENDBRANCH   5   7
BRANCH   1  21
ATOM     21  C   UNL     1       1.027   7.650  21.217  0.00  0.00    +0.000 C 
BRANCH  21  22
ATOM     22  C   UNL     1       1.485   9.001  21.762  0.00  0.00    +0.000 C 
BRANCH  22  27
ATOM     23  N   UNL     1      -0.951  11.528  20.770  0.00  0.00    +0.000 N 
ATOM     24  C   UNL     1      -1.358  12.174  22.020  0.00  0.00    +0.000 C 
ATOM     25  C   UNL     1      -1.529  11.128  23.108  0.00  0.00    +0.000 C 
ATOM     26  C   UNL     1      -0.411  10.104  23.117  0.00  0.00    +0.000 C 
ATOM     27  C   UNL     1       0.339   9.993  21.811  0.00  0.00    +0.000 C 
ATOM     28  N   UNL     1       0.095  10.690  20.740  0.00  0.00    +0.000 NA
BRANCH  23  29
ATOM     29  N   UNL     1      -0.724  12.522  19.781  0.00  0.00    +0.000 NA
ATOM     30  H   UNL     1       0.265  12.580  19.543  0.00  0.00    +0.000 HD
ATOM     31  H   UNL     1      -0.969  13.427  20.185  0.00  0.00    +0.000 HD
ENDBRANCH  23  29
ENDBRANCH  22  27
ENDBRANCH  21  22
ENDBRANCH   1  21
TORSDOF 6
ENDMDL
MODEL 8
REMARK VINA RESULT:      -8.4      5.586      8.163
REMARK  Name = 
REMARK  6 active torsions:
REMARK  status: ('A' for Active; 'I' for Inactive)
REMARK    1  A    between atoms: N_1  and  N_2
REMARK    2  A    between atoms: C_6  and  C_7
REMARK    3  A    between atoms: C_7  and  C_8
REMARK    4  A    between atoms: C_8  and  C_9
REMARK    5  A    between atoms: C_13  and  N_14
REMARK    6  A    between atoms: C_21  and  C_22
REMARK                            x       y       z     vdW  Elec       q    Type
REMARK                         _______ _______ _______ _____ _____    ______ ____
ROOT
ATOM      1  C   UNL     1       1.380   8.847  19.262  0.00  0.00    +0.000 A 
ATOM      2  C   UNL     1       2.107   9.253  18.134  0.00  0.00    +0.000 A 
ATOM      3  C   UNL     1       2.916   8.353  17.447  0.00  0.00    +0.000 A 
ATOM      4  C   UNL     1       3.107   7.072  17.949  0.00  0.00    +0.000 A 
ATOM      5  C   UNL     1       2.577   6.735  19.205  0.00  0.00    +0.000 A 
ATOM      6  C   UNL     1       1.602   7.564  19.778  0.00  0.00    +0.000 A 
ENDROOT
BRANCH   5   7
ATOM      7  N   UNL     1       3.324   5.848  20.087  0.00  0.00    +0.000 N 
ATOM      8  C   UNL     1       4.570   5.393  19.424  0.00  0.00    +0.000 C 
ATOM      9  C   UNL     1       4.131   4.117  18.771  0.00  0.00    +0.000 A 
ATOM     10  C   UNL     1       3.070   3.610  19.525  0.00  0.00    +0.000 A 
ATOM     11  C   UNL     1       2.323   2.515  19.133  0.00  0.00    +0.000 A 
ATOM     12  C   UNL     1       2.657   1.921  17.918  0.00  0.00    +0.000 A 
ATOM     13  C   UNL     1       3.706   2.436  17.133  0.00  0.00    +0.000 A 
ATOM     14  C   UNL     1       4.469   3.549  17.547  0.00  0.00    +0.000 A 
ATOM     15  C   UNL     1       2.649   4.661  20.482  0.00  0.00    +0.000 C 
ATOM     16  O   UNL     1       1.747   4.534  21.283  0.00  0.00    +0.000 OA
BRANCH  14  17
ATOM     17  C   UNL     1       5.499   4.124  16.608  0.00  0.00    +0.000 C 
ATOM     18  F   UNL     1       6.689   4.421  17.198  0.00  0.00    +0.000 F 
ATOM     19  F   UNL     1       5.798   3.271  15.591  0.00  0.00    +0.000 F 
ATOM     20  F   UNL     1       5.078   5.276  16.017  0.00  0.00    +0.000 F 
ENDBRANCH  14  17
ENDBRANCH   5   7
BRANCH   1  21
ATOM     21  C   UNL     1       0.489   9.827  19.994  0.00  0.00    +0.000 C 
BRANCH  21  22
ATOM     22  C   UNL     1       0.197  11.079  19.169  0.00  0.00    +0.000 C 
BRANCH  22  27
ATOM     23  N   UNL     1      -3.278  11.847  18.374  0.00  0.00    +0.000 N 
ATOM     24  C   UNL     1      -3.832  10.597  17.848  0.00  0.00    +0.000 C 
ATOM     25  C   UNL     1      -2.820   9.929  16.934  0.00  0.00    +0.000 C 
ATOM     26  C   UNL     1      -1.414   9.952  17.501  0.00  0.00    +0.000 C 
ATOM     27  C   UNL     1      -1.184  11.019  18.545  0.00  0.00    +0.000 C 
ATOM     28  N   UNL     1      -2.075  11.868  18.964  0.00  0.00    +0.000 NA
BRANCH  23  29
ATOM     29  N   UNL     1      -4.205  12.424  19.283  0.00  0.00    +0.000 NA
ATOM     30  H   UNL     1      -3.834  12.420  20.232  0.00  0.00    +0.000 HD
ATOM     31  H   UNL     1      -5.034  11.830  19.303  0.00  0.00    +0.000 HD
ENDBRANCH  23  29
ENDBRANCH  22  27
ENDBRANCH  21  22
ENDBRANCH   1  21
TORSDOF 6
ENDMDL
MODEL 9
REMARK VINA RESULT:      -8.3      4.560      6.935
REMARK  Name = 
REMARK  6 active torsions:
REMARK  status: ('A' for Active; 'I' for Inactive)
REMARK    1  A    between atoms: N_1  and  N_2
REMARK    2  A    between atoms: C_6  and  C_7
REMARK    3  A    between atoms: C_7  and  C_8
REMARK    4  A    between atoms: C_8  and  C_9
REMARK    5  A    between atoms: C_13  and  N_14
REMARK    6  A    between atoms: C_21  and  C_22
REMARK                            x       y       z     vdW  Elec       q    Type
REMARK                         _______ _______ _______ _____ _____    ______ ____
ROOT
ATOM      1  C   UNL     1       1.959   7.597  19.995  0.00  0.00    +0.000 A 
ATOM      2  C   UNL     1       2.296   8.366  18.873  0.00  0.00    +0.000 A 
ATOM      3  C   UNL     1       2.817   7.767  17.730  0.00  0.00    +0.000 A 
ATOM      4  C   UNL     1       3.124   6.412  17.738  0.00  0.00    +0.000 A 
ATOM      5  C   UNL     1       3.015   5.685  18.934  0.00  0.00    +0.000 A 
ATOM      6  C   UNL     1       2.300   6.238  20.006  0.00  0.00    +0.000 A 
ENDROOT
BRANCH   5   7
ATOM      7  N   UNL     1       3.981   4.634  19.228  0.00  0.00    +0.000 N 
ATOM      8  C   UNL     1       5.349   5.201  19.311  0.00  0.00    +0.000 C 
ATOM      9  C   UNL     1       5.841   5.043  17.904  0.00  0.00    +0.000 A 
ATOM     10  C   UNL     1       5.161   3.956  17.348  0.00  0.00    +0.000 A 
ATOM     11  C   UNL     1       5.260   3.610  16.013  0.00  0.00    +0.000 A 
ATOM     12  C   UNL     1       6.068   4.408  15.208  0.00  0.00    +0.000 A 
ATOM     13  C   UNL     1       6.738   5.523  15.747  0.00  0.00    +0.000 A 
ATOM     14  C   UNL     1       6.638   5.863  17.113  0.00  0.00    +0.000 A 
ATOM     15  C   UNL     1       4.061   3.587  18.271  0.00  0.00    +0.000 C 
ATOM     16  O   UNL     1       3.282   2.678  18.075  0.00  0.00    +0.000 OA
BRANCH  14  17
ATOM     17  C   UNL     1       7.285   7.135  17.603  0.00  0.00    +0.000 C 
ATOM     18  F   UNL     1       6.407   8.136  17.883  0.00  0.00    +0.000 F 
ATOM     19  F   UNL     1       7.994   6.939  18.748  0.00  0.00    +0.000 F 
ATOM     20  F   UNL     1       8.165   7.650  16.702  0.00  0.00    +0.000 F 
ENDBRANCH  14  17
ENDBRANCH   5   7
BRANCH   1  21
ATOM     21  C   UNL     1       1.377   8.254  21.229  0.00  0.00    +0.000 C 
BRANCH  21  22
ATOM     22  C   UNL     1      -0.064   8.716  21.019  0.00  0.00    +0.000 C 
BRANCH  22  27
ATOM     23  N   UNL     1       0.549  12.279  20.537  0.00  0.00    +0.000 N 
ATOM     24  C   UNL     1      -0.611  12.765  19.786  0.00  0.00    +0.000 C 
ATOM     25  C   UNL     1      -0.990  11.758  18.715  0.00  0.00    +0.000 C 
ATOM     26  C   UNL     1      -0.963  10.328  19.219  0.00  0.00    +0.000 C 
ATOM     27  C   UNL     1      -0.114  10.121  20.451  0.00  0.00    +0.000 C 
ATOM     28  N   UNL     1       0.553  11.049  21.071  0.00  0.00    +0.000 NA
BRANCH  23  29
ATOM     29  N   UNL     1       0.848  13.194  21.582  0.00  0.00    +0.000 NA
ATOM     30  H   UNL     1       1.350  12.732  22.338  0.00  0.00    +0.000 HD
ATOM     31  H   UNL     1      -0.035  13.510  21.983  0.00  0.00    +0.000 HD
ENDBRANCH  23  29
ENDBRANCH  22  27
ENDBRANCH  21  22
ENDBRANCH   1  21
TORSDOF 6
ENDMDL
