MODEL 1
REMARK VINA RESULT:      -8.6      0.000      0.000
REMARK  Name = 
REMARK  4 active torsions:
REMARK  status: ('A' for Active; 'I' for Inactive)
REMARK    1  A    between atoms: C_2  and  C_23
REMARK    2  A    between atoms: N_3  and  C_4
REMARK    3  A    between atoms: C_8  and  C_9
REMARK    4  A    between atoms: C_9  and  N_10
REMARK                            x       y       z     vdW  Elec       q    Type
REMARK                         _______ _______ _______ _____ _____    ______ ____
ROOT
ATOM      1  C   UNL     1       6.485   7.003  17.000  0.00  0.00    +0.000 A 
ATOM      2  C   UNL     1       7.058   5.988  16.231  0.00  0.00    +0.000 A 
ATOM      3  C   UNL     1       6.352   4.819  15.948  0.00  0.00    +0.000 A 
ATOM      4  C   UNL     1       5.062   4.645  16.440  0.00  0.00    +0.000 A 
ATOM      5  C   UNL     1       4.468   5.636  17.232  0.00  0.00    +0.000 A 
ATOM      6  C   UNL     1       5.200   6.804  17.531  0.00  0.00    +0.000 A 
ENDROOT
BRANCH   1   9
ATOM      7  O   UNL     1       8.602   7.567  18.966  0.00  0.00    +0.000 OA
ATOM      8  C   UNL     1       8.122   8.421  18.231  0.00  0.00    +0.000 C 
ATOM      9  N   UNL     1       7.144   8.231  17.265  0.00  0.00    +0.000 N 
ATOM     10  H   UNL     1       6.996   8.973  16.597  0.00  0.00    +0.000 HD
BRANCH   8  11
ATOM     11  C   UNL     1       8.689   9.794  18.331  0.00  0.00    +0.000 A 
ATOM     12  C   UNL     1       9.630  10.044  19.345  0.00  0.00    +0.000 A 
ATOM     13  C   UNL     1      10.151  11.326  19.521  0.00  0.00    +0.000 A 
ATOM     14  C   UNL     1       9.722  12.354  18.690  0.00  0.00    +0.000 A 
ATOM     15  F   UNL     1      10.209  13.588  18.865  0.00  0.00    +0.000 F 
ATOM     16  C   UNL     1       8.781  12.124  17.689  0.00  0.00    +0.000 A 
ATOM     17  C   UNL     1       8.259  10.840  17.505  0.00  0.00    +0.000 A 
ENDBRANCH   8  11
ENDBRANCH   1   9
BRANCH   5  18
ATOM     18  C   UNL     1       3.062   5.440  17.743  0.00  0.00    +0.000 C 
BRANCH  18  19
ATOM     19  N   UNL     1       2.521   6.661  18.299  0.00  0.00    +0.000 N 
ATOM     20  C   UNL     1       2.164   6.689  19.627  0.00  0.00    +0.000 C 
ATOM     21  O   UNL     1       2.250   5.694  20.340  0.00  0.00    +0.000 OA
ATOM     22  N   UNL     1       1.655   7.905  20.083  0.00  0.00    +0.000 N 
ATOM     23  C   UNL     1       1.345   9.015  19.174  0.00  0.00    +0.000 C 
ATOM     24  C   UNL     1       0.673  10.272  19.720  0.00  0.00    +0.000 C 
ATOM     25  N   UNL     1       0.341  10.212  21.112  0.00  0.00    +0.000 N 
ATOM     26  C   UNL     1      -0.249  11.195  21.847  0.00  0.00    +0.000 A 
ATOM     27  N   UNL     1      -0.407  10.818  23.095  0.00  0.00    +0.000 NA
ATOM     28  C   UNL     1       0.096   9.544  23.154  0.00  0.00    +0.000 A 
ATOM     29  C   UNL     1       0.568   9.143  21.920  0.00  0.00    +0.000 A 
ATOM     30  C   UNL     1       1.160   7.874  21.459  0.00  0.00    +0.000 C 
ATOM     31  H   UNL     1       2.916   7.510  17.933  0.00  0.00    +0.000 HD
ENDBRANCH  18  19
ENDBRANCH   5  18
TORSDOF 4
ENDMDL
MODEL 2
REMARK VINA RESULT:      -8.1      0.950      1.003
REMARK  Name = 
REMARK  4 active torsions:
REMARK  status: ('A' for Active; 'I' for Inactive)
REMARK    1  A    between atoms: C_2  and  C_23
REMARK    2  A    between atoms: N_3  and  C_4
REMARK    3  A    between atoms: C_8  and  C_9
REMARK    4  A    between atoms: C_9  and  N_10
REMARK                            x       y       z     vdW  Elec       q    Type
REMARK                         _______ _______ _______ _____ _____    ______ ____
ROOT
ATOM      1  C   UNL     1       6.960   7.454  17.516  0.00  0.00    +0.000 A 
ATOM      2  C   UNL     1       7.704   6.276  17.601  0.00  0.00    +0.000 A 
ATOM      3  C   UNL     1       7.074   5.033  17.658  0.00  0.00    +0.000 A 
ATOM      4  C   UNL     1       5.685   4.953  17.639  0.00  0.00    +0.000 A 
ATOM      5  C   UNL     1       4.910   6.118  17.575  0.00  0.00    +0.000 A 
ATOM      6  C   UNL     1       5.558   7.370  17.542  0.00  0.00    +0.000 A 
ENDROOT
BRANCH   1   9
ATOM      7  O   UNL     1       8.910   8.742  19.306  0.00  0.00    +0.000 OA
ATOM      8  C   UNL     1       8.458   9.282  18.303  0.00  0.00    +0.000 C 
ATOM      9  N   UNL     1       7.559   8.734  17.399  0.00  0.00    +0.000 N 
ATOM     10  H   UNL     1       7.437   9.209  16.516  0.00  0.00    +0.000 HD
BRANCH   8  11
ATOM     11  C   UNL     1       8.973  10.640  17.977  0.00  0.00    +0.000 A 
ATOM     12  C   UNL     1      10.364  10.842  18.014  0.00  0.00    +0.000 A 
ATOM     13  C   UNL     1      10.898  12.108  17.774  0.00  0.00    +0.000 A 
ATOM     14  C   UNL     1      10.040  13.168  17.507  0.00  0.00    +0.000 A 
ATOM     15  F   UNL     1      10.548  14.387  17.290  0.00  0.00    +0.000 F 
ATOM     16  C   UNL     1       8.659  12.986  17.479  0.00  0.00    +0.000 A 
ATOM     17  C   UNL     1       8.119  11.719  17.715  0.00  0.00    +0.000 A 
ENDBRANCH   8  11
ENDBRANCH   1   9
BRANCH   5  18
ATOM     18  C   UNL     1       3.405   6.013  17.538  0.00  0.00    +0.000 C 
BRANCH  18  19
ATOM     19  N   UNL     1       2.774   7.155  18.163  0.00  0.00    +0.000 N 
ATOM     20  C   UNL     1       2.378   7.061  19.477  0.00  0.00    +0.000 C 
ATOM     21  O   UNL     1       2.503   6.022  20.118  0.00  0.00    +0.000 OA
ATOM     22  N   UNL     1       1.782   8.208  20.003  0.00  0.00    +0.000 N 
ATOM     23  C   UNL     1       1.432   9.363  19.168  0.00  0.00    +0.000 C 
ATOM     24  C   UNL     1       0.668  10.533  19.781  0.00  0.00    +0.000 C 
ATOM     25  N   UNL     1       0.299  10.350  21.153  0.00  0.00    +0.000 N 
ATOM     26  C   UNL     1      -0.371  11.238  21.938  0.00  0.00    +0.000 A 
ATOM     27  N   UNL     1      -0.543  10.760  23.149  0.00  0.00    +0.000 NA
ATOM     28  C   UNL     1       0.036   9.516  23.131  0.00  0.00    +0.000 A 
ATOM     29  C   UNL     1       0.567   9.238  21.888  0.00  0.00    +0.000 A 
ATOM     30  C   UNL     1       1.248   8.045  21.355  0.00  0.00    +0.000 C 
ATOM     31  H   UNL     1       3.128   8.051  17.874  0.00  0.00    +0.000 HD
ENDBRANCH  18  19
ENDBRANCH   5  18
TORSDOF 4
ENDMDL
MODEL 3
REMARK VINA RESULT:      -8.1      4.478      5.756
REMARK  Name = 
REMARK  4 active torsions:
REMARK  status: ('A' for Active; 'I' for Inactive)
REMARK    1  A    between atoms: C_2  and  C_23
REMARK    2  A    between atoms: N_3  and  C_4
REMARK    3  A    between atoms: C_8  and  C_9
REMARK    4  A    between atoms: C_9  and  N_10
REMARK                            x       y       z     vdW  Elec       q    Type
REMARK                         _______ _______ _______ _____ _____    ______ ____
ROOT
ATOM      1  C   UNL     1       2.746   4.003  17.903  0.00  0.00    +0.000 A 
ATOM      2  C   UNL     1       1.904   2.901  18.061  0.00  0.00    +0.000 A 
ATOM      3  C   UNL     1       1.036   2.812  19.148  0.00  0.00    +0.000 A 
ATOM      4  C   UNL     1       1.005   3.826  20.101  0.00  0.00    +0.000 A 
ATOM      5  C   UNL     1       1.853   4.935  19.983  0.00  0.00    +0.000 A 
ATOM      6  C   UNL     1       2.743   5.001  18.890  0.00  0.00    +0.000 A 
ENDROOT
BRANCH   1   9
ATOM      7  O   UNL     1       5.687   4.121  17.841  0.00  0.00    +0.000 OA
ATOM      8  C   UNL     1       4.988   4.230  16.841  0.00  0.00    +0.000 C 
ATOM      9  N   UNL     1       3.603   4.161  16.784  0.00  0.00    +0.000 N 
ATOM     10  H   UNL     1       3.178   4.059  15.874  0.00  0.00    +0.000 HD
BRANCH   8  11
ATOM     11  C   UNL     1       5.693   4.387  15.538  0.00  0.00    +0.000 A 
ATOM     12  C   UNL     1       5.185   3.689  14.429  0.00  0.00    +0.000 A 
ATOM     13  C   UNL     1       5.837   3.753  13.198  0.00  0.00    +0.000 A 
ATOM     14  C   UNL     1       7.000   4.506  13.084  0.00  0.00    +0.000 A 
ATOM     15  F   UNL     1       7.637   4.559  11.908  0.00  0.00    +0.000 F 
ATOM     16  C   UNL     1       7.522   5.192  14.178  0.00  0.00    +0.000 A 
ATOM     17  C   UNL     1       6.870   5.135  15.412  0.00  0.00    +0.000 A 
ENDBRANCH   8  11
ENDBRANCH   1   9
BRANCH   5  18
ATOM     18  C   UNL     1       1.795   6.033  21.015  0.00  0.00    +0.000 C 
BRANCH  18  19
ATOM     19  N   UNL     1       1.761   7.342  20.400  0.00  0.00    +0.000 N 
ATOM     20  C   UNL     1       0.882   8.283  20.882  0.00  0.00    +0.000 C 
ATOM     21  O   UNL     1       0.095   8.029  21.789  0.00  0.00    +0.000 OA
ATOM     22  N   UNL     1       0.917   9.519  20.235  0.00  0.00    +0.000 N 
ATOM     23  C   UNL     1       1.696   9.741  19.011  0.00  0.00    +0.000 C 
ATOM     24  C   UNL     1       1.592  11.078  18.282  0.00  0.00    +0.000 C 
ATOM     25  N   UNL     1       0.655  11.997  18.857  0.00  0.00    +0.000 N 
ATOM     26  C   UNL     1       0.380  13.255  18.415  0.00  0.00    +0.000 A 
ATOM     27  N   UNL     1      -0.525  13.832  19.172  0.00  0.00    +0.000 NA
ATOM     28  C   UNL     1      -0.840  12.902  20.129  0.00  0.00    +0.000 A 
ATOM     29  C   UNL     1      -0.114  11.742  19.948  0.00  0.00    +0.000 A 
ATOM     30  C   UNL     1      -0.114  10.459  20.673  0.00  0.00    +0.000 C 
ATOM     31  H   UNL     1       2.652   7.691  20.089  0.00  0.00    +0.000 HD
ENDBRANCH  18  19
ENDBRANCH   5  18
TORSDOF 4
ENDMDL
MODEL 4
REMARK VINA RESULT:      -7.9      1.654      2.192
REMARK  Name = 
REMARK  4 active torsions:
REMARK  status: ('A' for Active; 'I' for Inactive)
REMARK    1  A    between atoms: C_2  and  C_23
REMARK    2  A    between atoms: N_3  and  C_4
REMARK    3  A    between atoms: C_8  and  C_9
REMARK    4  A    between atoms: C_9  and  N_10
REMARK                            x       y       z     vdW  Elec       q    Type
REMARK                         _______ _______ _______ _____ _____    ______ ____
ROOT
ATOM      1  C   UNL     1       7.556   7.929  17.859  0.00  0.00    +0.000 A 
ATOM      2  C   UNL     1       8.228   6.823  18.382  0.00  0.00    +0.000 A 
ATOM      3  C   UNL     1       7.573   5.606  18.562  0.00  0.00    +0.000 A 
ATOM      4  C   UNL     1       6.228   5.480  18.228  0.00  0.00    +0.000 A 
ATOM      5  C   UNL     1       5.520   6.578  17.720  0.00  0.00    +0.000 A 
ATOM      6  C   UNL     1       6.188   7.810  17.565  0.00  0.00    +0.000 A 
ENDROOT
BRANCH   1   9
ATOM      7  O   UNL     1       8.987   9.678  19.746  0.00  0.00    +0.000 OA
ATOM      8  C   UNL     1       8.835   9.949  18.561  0.00  0.00    +0.000 C 
ATOM      9  N   UNL     1       8.197   9.169  17.606  0.00  0.00    +0.000 N 
ATOM     10  H   UNL     1       8.329   9.418  16.636  0.00  0.00    +0.000 HD
BRANCH   8  11
ATOM     11  C   UNL     1       9.452  11.212  18.072  0.00  0.00    +0.000 A 
ATOM     12  C   UNL     1      10.845  11.233  17.887  0.00  0.00    +0.000 A 
ATOM     13  C   UNL     1      11.485  12.406  17.485  0.00  0.00    +0.000 A 
ATOM     14  C   UNL     1      10.731  13.555  17.282  0.00  0.00    +0.000 A 
ATOM     15  F   UNL     1      11.342  14.686  16.910  0.00  0.00    +0.000 F 
ATOM     16  C   UNL     1       9.351  13.553  17.474  0.00  0.00    +0.000 A 
ATOM     17  C   UNL     1       8.705  12.379  17.872  0.00  0.00    +0.000 A 
ENDBRANCH   8  11
ENDBRANCH   1   9
BRANCH   5  18
ATOM     18  C   UNL     1       4.067   6.421  17.346  0.00  0.00    +0.000 C 
BRANCH  18  19
ATOM     19  N   UNL     1       3.192   6.945  18.373  0.00  0.00    +0.000 N 
ATOM     20  C   UNL     1       2.517   8.119  18.138  0.00  0.00    +0.000 C 
ATOM     21  O   UNL     1       2.671   8.757  17.101  0.00  0.00    +0.000 OA
ATOM     22  N   UNL     1       1.693   8.552  19.178  0.00  0.00    +0.000 N 
ATOM     23  C   UNL     1       1.690   7.905  20.496  0.00  0.00    +0.000 C 
ATOM     24  C   UNL     1       0.859   8.505  21.628  0.00  0.00    +0.000 C 
ATOM     25  N   UNL     1       0.188   9.725  21.292  0.00  0.00    +0.000 N 
ATOM     26  C   UNL     1      -0.622  10.454  22.107  0.00  0.00    +0.000 A 
ATOM     27  N   UNL     1      -1.082  11.517  21.486  0.00  0.00    +0.000 NA
ATOM     28  C   UNL     1      -0.536  11.462  20.228  0.00  0.00    +0.000 A 
ATOM     29  C   UNL     1       0.266  10.348  20.086  0.00  0.00    +0.000 A 
ATOM     30  C   UNL     1       1.089   9.866  18.963  0.00  0.00    +0.000 C 
ATOM     31  H   UNL     1       2.696   6.251  18.907  0.00  0.00    +0.000 HD
ENDBRANCH  18  19
ENDBRANCH   5  18
TORSDOF 4
ENDMDL
MODEL 5
REMARK VINA RESULT:      -7.9      4.477      7.177
REMARK  Name = 
REMARK  4 active torsions:
REMARK  status: ('A' for Active; 'I' for Inactive)
REMARK    1  A    between atoms: C_2  and  C_23
REMARK    2  A    between atoms: N_3  and  C_4
REMARK    3  A    between atoms: C_8  and  C_9
REMARK    4  A    between atoms: C_9  and  N_10
REMARK                            x       y       z     vdW  Elec       q    Type
REMARK                         _______ _______ _______ _____ _____    ______ ____
ROOT
ATOM      1  C   UNL     1       2.254   8.032  18.782  0.00  0.00    +0.000 A 
ATOM      2  C   UNL     1       1.880   7.612  20.059  0.00  0.00    +0.000 A 
ATOM      3  C   UNL     1       1.092   8.420  20.878  0.00  0.00    +0.000 A 
ATOM      4  C   UNL     1       0.673   9.669  20.430  0.00  0.00    +0.000 A 
ATOM      5  C   UNL     1       1.050  10.129  19.161  0.00  0.00    +0.000 A 
ATOM      6  C   UNL     1       1.866   9.312  18.353  0.00  0.00    +0.000 A 
ENDROOT
BRANCH   1   9
ATOM      7  O   UNL     1       4.111   5.840  19.424  0.00  0.00    +0.000 OA
ATOM      8  C   UNL     1       3.883   6.215  18.281  0.00  0.00    +0.000 C 
ATOM      9  N   UNL     1       3.006   7.220  17.895  0.00  0.00    +0.000 N 
ATOM     10  H   UNL     1       2.764   7.279  16.917  0.00  0.00    +0.000 HD
BRANCH   8  11
ATOM     11  C   UNL     1       4.562   5.477  17.180  0.00  0.00    +0.000 A 
ATOM     12  C   UNL     1       5.098   6.228  16.120  0.00  0.00    +0.000 A 
ATOM     13  C   UNL     1       5.695   5.586  15.034  0.00  0.00    +0.000 A 
ATOM     14  C   UNL     1       5.742   4.198  15.008  0.00  0.00    +0.000 A 
ATOM     15  F   UNL     1       6.302   3.578  13.961  0.00  0.00    +0.000 F 
ATOM     16  C   UNL     1       5.204   3.441  16.045  0.00  0.00    +0.000 A 
ATOM     17  C   UNL     1       4.609   4.078  17.138  0.00  0.00    +0.000 A 
ENDBRANCH   8  11
ENDBRANCH   1   9
BRANCH   5  18
ATOM     18  C   UNL     1       0.572  11.478  18.684  0.00  0.00    +0.000 C 
BRANCH  18  19
ATOM     19  N   UNL     1      -0.754  11.780  19.176  0.00  0.00    +0.000 N 
ATOM     20  C   UNL     1      -1.841  11.489  18.386  0.00  0.00    +0.000 C 
ATOM     21  O   UNL     1      -1.714  11.023  17.258  0.00  0.00    +0.000 OA
ATOM     22  N   UNL     1      -3.083  11.808  18.938  0.00  0.00    +0.000 N 
ATOM     23  C   UNL     1      -3.213  12.570  20.185  0.00  0.00    +0.000 C 
ATOM     24  C   UNL     1      -4.597  12.995  20.669  0.00  0.00    +0.000 C 
ATOM     25  N   UNL     1      -5.669  12.647  19.784  0.00  0.00    +0.000 N 
ATOM     26  C   UNL     1      -6.993  12.895  19.979  0.00  0.00    +0.000 A 
ATOM     27  N   UNL     1      -7.710  12.439  18.978  0.00  0.00    +0.000 NA
ATOM     28  C   UNL     1      -6.804  11.885  18.109  0.00  0.00    +0.000 A 
ATOM     29  C   UNL     1      -5.518  12.007  18.594  0.00  0.00    +0.000 A 
ATOM     30  C   UNL     1      -4.214  11.614  18.031  0.00  0.00    +0.000 C 
ATOM     31  H   UNL     1      -0.883  11.651  20.165  0.00  0.00    +0.000 HD
ENDBRANCH  18  19
ENDBRANCH   5  18
TORSDOF 4
ENDMDL
MODEL 6
REMARK VINA RESULT:      -7.8      4.467      7.410
REMARK  Name = 
REMARK  4 active torsions:
REMARK  status: ('A' for Active; 'I' for Inactive)
REMARK    1  A    between atoms: C_2  and  C_23
REMARK    2  A    between atoms: N_3  and  C_4
REMARK    3  A    between atoms: C_8  and  C_9
REMARK    4  A    between atoms: C_9  and  N_10
REMARK                            x       y       z     vdW  Elec       q    Type
REMARK                         _______ _______ _______ _____ _____    ______ ____
ROOT
ATOM      1  C   UNL     1       2.008   8.186  19.091  0.00  0.00    +0.000 A 
ATOM      2  C   UNL     1       1.708   7.893  20.422  0.00  0.00    +0.000 A 
ATOM      3  C   UNL     1       0.753   8.631  21.121  0.00  0.00    +0.000 A 
ATOM      4  C   UNL     1       0.089   9.682  20.496  0.00  0.00    +0.000 A 
ATOM      5  C   UNL     1       0.383  10.015  19.167  0.00  0.00    +0.000 A 
ATOM      6  C   UNL     1       1.367   9.276  18.479  0.00  0.00    +0.000 A 
ENDROOT
BRANCH   1   9
ATOM      7  O   UNL     1       2.050   5.281  18.614  0.00  0.00    +0.000 OA
ATOM      8  C   UNL     1       2.894   6.048  18.167  0.00  0.00    +0.000 C 
ATOM      9  N   UNL     1       2.930   7.427  18.326  0.00  0.00    +0.000 N 
ATOM     10  H   UNL     1       3.560   7.949  17.733  0.00  0.00    +0.000 HD
BRANCH   8  11
ATOM     11  C   UNL     1       3.957   5.457  17.309  0.00  0.00    +0.000 A 
ATOM     12  C   UNL     1       4.757   6.335  16.557  0.00  0.00    +0.000 A 
ATOM     13  C   UNL     1       5.731   5.834  15.692  0.00  0.00    +0.000 A 
ATOM     14  C   UNL     1       5.892   4.459  15.575  0.00  0.00    +0.000 A 
ATOM     15  F   UNL     1       6.815   3.974  14.736  0.00  0.00    +0.000 F 
ATOM     16  C   UNL     1       5.097   3.577  16.304  0.00  0.00    +0.000 A 
ATOM     17  C   UNL     1       4.124   4.073  17.175  0.00  0.00    +0.000 A 
ENDBRANCH   8  11
ENDBRANCH   1   9
BRANCH   5  18
ATOM     18  C   UNL     1      -0.359  11.146  18.500  0.00  0.00    +0.000 C 
BRANCH  18  19
ATOM     19  N   UNL     1      -1.437  11.639  19.328  0.00  0.00    +0.000 N 
ATOM     20  C   UNL     1      -2.707  11.701  18.804  0.00  0.00    +0.000 C 
ATOM     21  O   UNL     1      -2.941  11.392  17.639  0.00  0.00    +0.000 OA
ATOM     22  N   UNL     1      -3.688  12.185  19.670  0.00  0.00    +0.000 N 
ATOM     23  C   UNL     1      -3.361  12.762  20.979  0.00  0.00    +0.000 C 
ATOM     24  C   UNL     1      -4.466  13.388  21.825  0.00  0.00    +0.000 C 
ATOM     25  N   UNL     1      -5.756  13.406  21.200  0.00  0.00    +0.000 N 
ATOM     26  C   UNL     1      -6.909  13.891  21.737  0.00  0.00    +0.000 A 
ATOM     27  N   UNL     1      -7.913  13.749  20.902  0.00  0.00    +0.000 NA
ATOM     28  C   UNL     1      -7.374  13.155  19.789  0.00  0.00    +0.000 A 
ATOM     29  C   UNL     1      -6.022  12.934  19.954  0.00  0.00    +0.000 A 
ATOM     30  C   UNL     1      -5.001  12.368  19.054  0.00  0.00    +0.000 C 
ATOM     31  H   UNL     1      -1.376  11.394  20.302  0.00  0.00    +0.000 HD
ENDBRANCH  18  19
ENDBRANCH   5  18
TORSDOF 4
ENDMDL
MODEL 7
REMARK VINA RESULT:      -7.8      1.471      1.933
REMARK  Name = 
REMARK  4 active torsions:
REMARK  status: ('A' for Active; 'I' for Inactive)
REMARK    1  A    between atoms: C_2  and  C_23
REMARK    2  A    between atoms: N_3  and  C_4
REMARK    3  A    between atoms: C_8  and  C_9
REMARK    4  A    between atoms: C_9  and  N_10
REMARK                            x       y       z     vdW  Elec       q    Type
REMARK                         _______ _______ _______ _____ _____    ______ ____
ROOT
ATOM      1  C   UNL     1       7.692   7.857  17.913  0.00  0.00    +0.000 A 
ATOM      2  C   UNL     1       8.296   6.782  18.568  0.00  0.00    +0.000 A 
ATOM      3  C   UNL     1       7.623   5.570  18.728  0.00  0.00    +0.000 A 
ATOM      4  C   UNL     1       6.328   5.421  18.241  0.00  0.00    +0.000 A 
ATOM      5  C   UNL     1       5.687   6.489  17.599  0.00  0.00    +0.000 A 
ATOM      6  C   UNL     1       6.369   7.715  17.464  0.00  0.00    +0.000 A 
ENDROOT
BRANCH   1   9
ATOM      7  O   UNL     1       8.935   9.677  19.865  0.00  0.00    +0.000 OA
ATOM      8  C   UNL     1       8.902   9.902  18.661  0.00  0.00    +0.000 C 
ATOM      9  N   UNL     1       8.359   9.086  17.678  0.00  0.00    +0.000 N 
ATOM     10  H   UNL     1       8.586   9.297  16.717  0.00  0.00    +0.000 HD
BRANCH   8  11
ATOM     11  C   UNL     1       9.569  11.146  18.188  0.00  0.00    +0.000 A 
ATOM     12  C   UNL     1       8.755  12.243  17.857  0.00  0.00    +0.000 A 
ATOM     13  C   UNL     1       9.322  13.414  17.355  0.00  0.00    +0.000 A 
ATOM     14  C   UNL     1      10.698  13.480  17.175  0.00  0.00    +0.000 A 
ATOM     15  F   UNL     1      11.244  14.597  16.680  0.00  0.00    +0.000 F 
ATOM     16  C   UNL     1      11.516  12.396  17.487  0.00  0.00    +0.000 A 
ATOM     17  C   UNL     1      10.954  11.222  17.995  0.00  0.00    +0.000 A 
ENDBRANCH   8  11
ENDBRANCH   1   9
BRANCH   5  18
ATOM     18  C   UNL     1       4.289   6.305  17.062  0.00  0.00    +0.000 C 
BRANCH  18  19
ATOM     19  N   UNL     1       3.399   7.348  17.522  0.00  0.00    +0.000 N 
ATOM     20  C   UNL     1       2.903   7.286  18.803  0.00  0.00    +0.000 C 
ATOM     21  O   UNL     1       3.159   6.346  19.550  0.00  0.00    +0.000 OA
ATOM     22  N   UNL     1       2.056   8.333  19.167  0.00  0.00    +0.000 N 
ATOM     23  C   UNL     1       1.577   9.326  18.198  0.00  0.00    +0.000 C 
ATOM     24  C   UNL     1       0.553  10.371  18.633  0.00  0.00    +0.000 C 
ATOM     25  N   UNL     1       0.096  10.231  19.983  0.00  0.00    +0.000 N 
ATOM     26  C   UNL     1      -0.800  11.032  20.622  0.00  0.00    +0.000 A 
ATOM     27  N   UNL     1      -0.995  10.629  21.857  0.00  0.00    +0.000 NA
ATOM     28  C   UNL     1      -0.194   9.524  22.006  0.00  0.00    +0.000 A 
ATOM     29  C   UNL     1       0.496   9.255  20.841  0.00  0.00    +0.000 A 
ATOM     30  C   UNL     1       1.436   8.179  20.483  0.00  0.00    +0.000 C 
ATOM     31  H   UNL     1       3.605   8.270  17.175  0.00  0.00    +0.000 HD
ENDBRANCH  18  19
ENDBRANCH   5  18
TORSDOF 4
ENDMDL
MODEL 8
REMARK VINA RESULT:      -7.7      3.775      7.712
REMARK  Name = 
REMARK  4 active torsions:
REMARK  status: ('A' for Active; 'I' for Inactive)
REMARK    1  A    between atoms: C_2  and  C_23
REMARK    2  A    between atoms: N_3  and  C_4
REMARK    3  A    between atoms: C_8  and  C_9
REMARK    4  A    between atoms: C_9  and  N_10
REMARK                            x       y       z     vdW  Elec       q    Type
REMARK                         _______ _______ _______ _____ _____    ______ ____
ROOT
ATOM      1  C   UNL     1       0.388  11.360  21.060  0.00  0.00    +0.000 A 
ATOM      2  C   UNL     1      -0.507  11.588  22.107  0.00  0.00    +0.000 A 
ATOM      3  C   UNL     1      -0.885  10.555  22.964  0.00  0.00    +0.000 A 
ATOM      4  C   UNL     1      -0.377   9.273  22.780  0.00  0.00    +0.000 A 
ATOM      5  C   UNL     1       0.506   9.007  21.725  0.00  0.00    +0.000 A 
ATOM      6  C   UNL     1       0.863  10.055  20.851  0.00  0.00    +0.000 A 
ENDROOT
BRANCH   1   9
ATOM      7  O   UNL     1       2.413  13.432  21.585  0.00  0.00    +0.000 OA
ATOM      8  C   UNL     1       1.791  13.350  20.532  0.00  0.00    +0.000 C 
ATOM      9  N   UNL     1       0.843  12.392  20.200  0.00  0.00    +0.000 N 
ATOM     10  H   UNL     1       0.568  12.323  19.231  0.00  0.00    +0.000 HD
BRANCH   8  11
ATOM     11  C   UNL     1       2.130  14.335  19.470  0.00  0.00    +0.000 A 
ATOM     12  C   UNL     1       3.286  14.104  18.704  0.00  0.00    +0.000 A 
ATOM     13  C   UNL     1       3.683  15.024  17.733  0.00  0.00    +0.000 A 
ATOM     14  C   UNL     1       2.929  16.175  17.539  0.00  0.00    +0.000 A 
ATOM     15  F   UNL     1       3.314  17.066  16.618  0.00  0.00    +0.000 F 
ATOM     16  C   UNL     1       1.789  16.423  18.299  0.00  0.00    +0.000 A 
ATOM     17  C   UNL     1       1.384  15.503  19.270  0.00  0.00    +0.000 A 
ENDBRANCH   8  11
ENDBRANCH   1   9
BRANCH   5  18
ATOM     18  C   UNL     1       1.061   7.615  21.549  0.00  0.00    +0.000 C 
BRANCH  18  19
ATOM     19  N   UNL     1       1.836   7.500  20.332  0.00  0.00    +0.000 N 
ATOM     20  C   UNL     1       2.255   6.256  19.923  0.00  0.00    +0.000 C 
ATOM     21  O   UNL     1       2.028   5.248  20.585  0.00  0.00    +0.000 OA
ATOM     22  N   UNL     1       2.993   6.234  18.739  0.00  0.00    +0.000 N 
ATOM     23  C   UNL     1       3.450   7.462  18.078  0.00  0.00    +0.000 C 
ATOM     24  C   UNL     1       4.360   7.367  16.856  0.00  0.00    +0.000 C 
ATOM     25  N   UNL     1       4.742   6.032  16.502  0.00  0.00    +0.000 N 
ATOM     26  C   UNL     1       5.531   5.667  15.454  0.00  0.00    +0.000 A 
ATOM     27  N   UNL     1       5.680   4.363  15.409  0.00  0.00    +0.000 NA
ATOM     28  C   UNL     1       4.962   3.881  16.474  0.00  0.00    +0.000 A 
ATOM     29  C   UNL     1       4.368   4.912  17.174  0.00  0.00    +0.000 A 
ATOM     30  C   UNL     1       3.540   4.922  18.393  0.00  0.00    +0.000 C 
ATOM     31  H   UNL     1       1.580   8.140  19.599  0.00  0.00    +0.000 HD
ENDBRANCH  18  19
ENDBRANCH   5  18
TORSDOF 4
ENDMDL
MODEL 9
REMARK VINA RESULT:      -7.6      4.417      5.699
REMARK  Name = 
REMARK  4 active torsions:
REMARK  status: ('A' for Active; 'I' for Inactive)
REMARK    1  A    between atoms: C_2  and  C_23
REMARK    2  A    between atoms: N_3  and  C_4
REMARK    3  A    between atoms: C_8  and  C_9
REMARK    4  A    between atoms: C_9  and  N_10
REMARK                            x       y       z     vdW  Elec       q    Type
REMARK                         _______ _______ _______ _____ _____    ______ ____
ROOT
ATOM      1  C   UNL     1       2.865   4.669  18.200  0.00  0.00    +0.000 A 
ATOM      2  C   UNL     1       1.953   3.657  18.507  0.00  0.00    +0.000 A 
ATOM      3  C   UNL     1       1.120   3.759  19.621  0.00  0.00    +0.000 A 
ATOM      4  C   UNL     1       1.195   4.874  20.450  0.00  0.00    +0.000 A 
ATOM      5  C   UNL     1       2.115   5.895  20.180  0.00  0.00    +0.000 A 
ATOM      6  C   UNL     1       2.968   5.770  19.064  0.00  0.00    +0.000 A 
ENDROOT
BRANCH   1   9
ATOM      7  O   UNL     1       5.751   4.115  18.021  0.00  0.00    +0.000 OA
ATOM      8  C   UNL     1       5.057   4.385  17.049  0.00  0.00    +0.000 C 
ATOM      9  N   UNL     1       3.691   4.634  17.047  0.00  0.00    +0.000 N 
ATOM     10  H   UNL     1       3.218   4.637  16.155  0.00  0.00    +0.000 HD
BRANCH   8  11
ATOM     11  C   UNL     1       5.727   4.385  15.720  0.00  0.00    +0.000 A 
ATOM     12  C   UNL     1       6.889   5.162  15.570  0.00  0.00    +0.000 A 
ATOM     13  C   UNL     1       7.525   5.244  14.331  0.00  0.00    +0.000 A 
ATOM     14  C   UNL     1       6.992   4.558  13.246  0.00  0.00    +0.000 A 
ATOM     15  F   UNL     1       7.592   4.646  12.053  0.00  0.00    +0.000 F 
ATOM     16  C   UNL     1       5.834   3.795  13.377  0.00  0.00    +0.000 A 
ATOM     17  C   UNL     1       5.195   3.705  14.617  0.00  0.00    +0.000 A 
ENDBRANCH   8  11
ENDBRANCH   1   9
BRANCH   5  18
ATOM     18  C   UNL     1       2.171   7.106  21.079  0.00  0.00    +0.000 C 
BRANCH  18  19
ATOM     19  N   UNL     1       1.287   8.154  20.619  0.00  0.00    +0.000 N 
ATOM     20  C   UNL     1       1.010   9.209  21.456  0.00  0.00    +0.000 C 
ATOM     21  O   UNL     1       1.456   9.263  22.598  0.00  0.00    +0.000 OA
ATOM     22  N   UNL     1       0.152  10.177  20.932  0.00  0.00    +0.000 N 
ATOM     23  C   UNL     1      -0.553   9.992  19.658  0.00  0.00    +0.000 C 
ATOM     24  C   UNL     1      -1.574  11.032  19.203  0.00  0.00    +0.000 C 
ATOM     25  N   UNL     1      -1.795  12.096  20.137  0.00  0.00    +0.000 N 
ATOM     26  C   UNL     1      -2.638  13.153  19.975  0.00  0.00    +0.000 A 
ATOM     27  N   UNL     1      -2.599  13.951  21.018  0.00  0.00    +0.000 NA
ATOM     28  C   UNL     1      -1.700  13.373  21.879  0.00  0.00    +0.000 A 
ATOM     29  C   UNL     1      -1.187  12.208  21.347  0.00  0.00    +0.000 A 
ATOM     30  C   UNL     1      -0.234  11.219  21.883  0.00  0.00    +0.000 C 
ATOM     31  H   UNL     1       1.361   8.377  19.641  0.00  0.00    +0.000 HD
ENDBRANCH  18  19
ENDBRANCH   5  18
TORSDOF 4
ENDMDL
