MODEL 1
REMARK VINA RESULT:      -8.4      0.000      0.000
REMARK  Name = 
REMARK  6 active torsions:
REMARK  status: ('A' for Active; 'I' for Inactive)
REMARK    1  A    between atoms: C_1  and  N_2
REMARK    2  A    between atoms: C_6  and  C_7
REMARK    3  A    between atoms: C_11  and  N_12
REMARK    4  A    between atoms: C_17  and  C_18
REMARK    5  A    between atoms: C_18  and  N_19
REMARK    6  A    between atoms: C_21  and  C_22
REMARK                            x       y       z     vdW  Elec       q    Type
REMARK                         _______ _______ _______ _____ _____    ______ ____
ROOT
ATOM      1  N   UNL     1       3.690   4.978  19.302  0.00  0.00    +0.000 N 
ATOM      2  C   UNL     1       5.074   5.507  19.386  0.00  0.00    +0.000 C 
ATOM      3  C   UNL     1       5.622   5.197  18.025  0.00  0.00    +0.000 A 
ATOM      4  C   UNL     1       4.915   4.099  17.529  0.00  0.00    +0.000 A 
ATOM      5  C   UNL     1       5.080   3.612  16.244  0.00  0.00    +0.000 A 
ATOM      6  C   UNL     1       6.003   4.260  15.413  0.00  0.00    +0.000 A 
ATOM      7  C   UNL     1       6.701   5.391  15.902  0.00  0.00    +0.000 A 
ATOM      8  C   UNL     1       6.523   5.880  17.215  0.00  0.00    +0.000 A 
ATOM      9  C   UNL     1       3.763   3.859  18.430  0.00  0.00    +0.000 C 
ATOM     10  O   UNL     1       2.945   2.972  18.257  0.00  0.00    +0.000 OA
ENDROOT
BRANCH   1  15
ATOM     11  C   UNL     1       1.839   8.095  19.786  0.00  0.00    +0.000 A 
ATOM     12  C   UNL     1       2.348   8.740  18.653  0.00  0.00    +0.000 A 
ATOM     13  C   UNL     1       2.817   8.019  17.562  0.00  0.00    +0.000 A 
ATOM     14  C   UNL     1       2.946   6.644  17.654  0.00  0.00    +0.000 A 
ATOM     15  C   UNL     1       2.763   6.029  18.901  0.00  0.00    +0.000 A 
ATOM     16  C   UNL     1       2.057   6.715  19.903  0.00  0.00    +0.000 A 
BRANCH  11  22
ATOM     17  C   UNL     1      -0.617  10.065  19.624  0.00  0.00    +0.000 C 
ATOM     18  N   UNL     1       0.149   9.716  20.784  0.00  0.00    +0.000 N 
ATOM     19  C   UNL     1      -0.098  10.168  22.043  0.00  0.00    +0.000 A 
ATOM     20  N   UNL     1       0.738   9.609  22.891  0.00  0.00    +0.000 NA
ATOM     21  N   UNL     1       1.539   8.756  22.158  0.00  0.00    +0.000 NA
ATOM     22  C   UNL     1       1.206   8.837  20.882  0.00  0.00    +0.000 A 
ENDBRANCH  11  22
ENDBRANCH   1  15
BRANCH   8  23
ATOM     23  C   UNL     1       7.227   7.148  17.628  0.00  0.00    +0.000 C 
ATOM     24  F   UNL     1       8.119   7.614  16.714  0.00  0.00    +0.000 F 
ATOM     25  F   UNL     1       6.355   8.170  17.845  0.00  0.00    +0.000 F 
ATOM     26  F   UNL     1       7.926   7.000  18.789  0.00  0.00    +0.000 F 
ENDBRANCH   8  23
BRANCH   6  27
ATOM     27  C   UNL     1       6.183   3.822  13.979  0.00  0.00    +0.000 C 
BRANCH  27  28
ATOM     28  N   UNL     1       7.121   4.685  13.276  0.00  0.00    +0.000 NA
ATOM     29  H   UNL     1       7.245   5.548  13.806  0.00  0.00    +0.000 HD
ATOM     30  H   UNL     1       6.711   4.964  12.384  0.00  0.00    +0.000 HD
ENDBRANCH  27  28
ENDBRANCH   6  27
TORSDOF 5
ENDMDL
MODEL 2
REMARK VINA RESULT:      -7.5      3.451      4.302
REMARK  Name = 
REMARK  6 active torsions:
REMARK  status: ('A' for Active; 'I' for Inactive)
REMARK    1  A    between atoms: C_1  and  N_2
REMARK    2  A    between atoms: C_6  and  C_7
REMARK    3  A    between atoms: C_11  and  N_12
REMARK    4  A    between atoms: C_17  and  C_18
REMARK    5  A    between atoms: C_18  and  N_19
REMARK    6  A    between atoms: C_21  and  C_22
REMARK                            x       y       z     vdW  Elec       q    Type
REMARK                         _______ _______ _______ _____ _____    ______ ____
ROOT
ATOM      1  N   UNL     1       2.149   7.118  17.986  0.00  0.00    +0.000 N 
ATOM      2  C   UNL     1       2.012   5.668  18.273  0.00  0.00    +0.000 C 
ATOM      3  C   UNL     1       3.435   5.247  18.491  0.00  0.00    +0.000 A 
ATOM      4  C   UNL     1       4.248   6.134  17.783  0.00  0.00    +0.000 A 
ATOM      5  C   UNL     1       5.631   6.112  17.854  0.00  0.00    +0.000 A 
ATOM      6  C   UNL     1       6.228   5.150  18.678  0.00  0.00    +0.000 A 
ATOM      7  C   UNL     1       5.406   4.267  19.420  0.00  0.00    +0.000 A 
ATOM      8  C   UNL     1       3.996   4.300  19.341  0.00  0.00    +0.000 A 
ATOM      9  C   UNL     1       3.399   7.259  17.325  0.00  0.00    +0.000 C 
ATOM     10  O   UNL     1       3.822   8.207  16.687  0.00  0.00    +0.000 OA
ENDROOT
BRANCH   1  15
ATOM     11  C   UNL     1       0.591   9.689  20.067  0.00  0.00    +0.000 A 
ATOM     12  C   UNL     1       0.235   8.830  21.112  0.00  0.00    +0.000 A 
ATOM     13  C   UNL     1       0.926   7.647  21.342  0.00  0.00    +0.000 A 
ATOM     14  C   UNL     1       1.872   7.219  20.426  0.00  0.00    +0.000 A 
ATOM     15  C   UNL     1       1.990   7.899  19.206  0.00  0.00    +0.000 A 
ATOM     16  C   UNL     1       1.484   9.206  19.101  0.00  0.00    +0.000 A 
BRANCH  11  22
ATOM     17  C   UNL     1      -1.914  10.444  18.307  0.00  0.00    +0.000 C 
ATOM     18  N   UNL     1      -1.110  11.321  19.106  0.00  0.00    +0.000 N 
ATOM     19  C   UNL     1      -1.334  12.654  19.261  0.00  0.00    +0.000 A 
ATOM     20  N   UNL     1      -0.463  13.158  20.109  0.00  0.00    +0.000 NA
ATOM     21  N   UNL     1       0.338  12.114  20.526  0.00  0.00    +0.000 NA
ATOM     22  C   UNL     1      -0.030  11.008  19.902  0.00  0.00    +0.000 A 
ENDBRANCH  11  22
ENDBRANCH   1  15
BRANCH   8  23
ATOM     23  C   UNL     1       3.190   3.393  20.238  0.00  0.00    +0.000 C 
ATOM     24  F   UNL     1       2.212   2.700  19.596  0.00  0.00    +0.000 F 
ATOM     25  F   UNL     1       3.965   2.457  20.848  0.00  0.00    +0.000 F 
ATOM     26  F   UNL     1       2.567   4.075  21.240  0.00  0.00    +0.000 F 
ENDBRANCH   8  23
BRANCH   6  27
ATOM     27  C   UNL     1       7.728   5.115  18.853  0.00  0.00    +0.000 C 
BRANCH  27  28
ATOM     28  N   UNL     1       8.109   5.449  20.217  0.00  0.00    +0.000 NA
ATOM     29  H   UNL     1       7.891   4.663  20.829  0.00  0.00    +0.000 HD
ATOM     30  H   UNL     1       7.529   6.223  20.543  0.00  0.00    +0.000 HD
ENDBRANCH  27  28
ENDBRANCH   6  27
TORSDOF 5
ENDMDL
MODEL 3
REMARK VINA RESULT:      -7.4      6.905      9.484
REMARK  Name = 
REMARK  6 active torsions:
REMARK  status: ('A' for Active; 'I' for Inactive)
REMARK    1  A    between atoms: C_1  and  N_2
REMARK    2  A    between atoms: C_6  and  C_7
REMARK    3  A    between atoms: C_11  and  N_12
REMARK    4  A    between atoms: C_17  and  C_18
REMARK    5  A    between atoms: C_18  and  N_19
REMARK    6  A    between atoms: C_21  and  C_22
REMARK                            x       y       z     vdW  Elec       q    Type
REMARK                         _______ _______ _______ _____ _____    ______ ____
ROOT
ATOM      1  N   UNL     1      -0.471  11.111  18.267  0.00  0.00    +0.000 N 
ATOM      2  C   UNL     1       0.248  10.308  19.286  0.00  0.00    +0.000 C 
ATOM      3  C   UNL     1      -0.097  11.020  20.560  0.00  0.00    +0.000 A 
ATOM      4  C   UNL     1      -0.377  12.349  20.235  0.00  0.00    +0.000 A 
ATOM      5  C   UNL     1      -0.847  13.270  21.156  0.00  0.00    +0.000 A 
ATOM      6  C   UNL     1      -1.044  12.835  22.472  0.00  0.00    +0.000 A 
ATOM      7  C   UNL     1      -0.788  11.481  22.801  0.00  0.00    +0.000 A 
ATOM      8  C   UNL     1      -0.312  10.550  21.852  0.00  0.00    +0.000 A 
ATOM      9  C   UNL     1      -0.466  12.444  18.759  0.00  0.00    +0.000 C 
ATOM     10  O   UNL     1      -0.713  13.478  18.162  0.00  0.00    +0.000 OA
ENDROOT
BRANCH   1  15
ATOM     11  C   UNL     1      -4.122  11.206  18.091  0.00  0.00    +0.000 A 
ATOM     12  C   UNL     1      -4.208  10.876  16.733  0.00  0.00    +0.000 A 
ATOM     13  C   UNL     1      -3.198  10.164  16.098  0.00  0.00    +0.000 A 
ATOM     14  C   UNL     1      -2.010   9.920  16.765  0.00  0.00    +0.000 A 
ATOM     15  C   UNL     1      -1.787  10.542  18.001  0.00  0.00    +0.000 A 
ATOM     16  C   UNL     1      -2.886  11.033  18.727  0.00  0.00    +0.000 A 
BRANCH  11  22
ATOM     17  C   UNL     1      -6.776   9.833  19.098  0.00  0.00    +0.000 C 
ATOM     18  N   UNL     1      -6.405  11.212  19.217  0.00  0.00    +0.000 N 
ATOM     19  C   UNL     1      -7.152  12.166  19.837  0.00  0.00    +0.000 A 
ATOM     20  N   UNL     1      -6.503  13.311  19.835  0.00  0.00    +0.000 NA
ATOM     21  N   UNL     1      -5.294  13.084  19.209  0.00  0.00    +0.000 NA
ATOM     22  C   UNL     1      -5.241  11.826  18.810  0.00  0.00    +0.000 A 
ENDBRANCH  11  22
ENDBRANCH   1  15
BRANCH   8  23
ATOM     23  C   UNL     1      -0.159   9.104  22.254  0.00  0.00    +0.000 C 
ATOM     24  F   UNL     1      -0.992   8.252  21.600  0.00  0.00    +0.000 F 
ATOM     25  F   UNL     1       1.099   8.639  22.022  0.00  0.00    +0.000 F 
ATOM     26  F   UNL     1      -0.392   8.908  23.582  0.00  0.00    +0.000 F 
ENDBRANCH   8  23
BRANCH   6  27
ATOM     27  C   UNL     1      -1.617  13.770  23.511  0.00  0.00    +0.000 C 
BRANCH  27  28
ATOM     28  N   UNL     1      -0.658  14.799  23.882  0.00  0.00    +0.000 NA
ATOM     29  H   UNL     1       0.020  14.914  23.129  0.00  0.00    +0.000 HD
ATOM     30  H   UNL     1      -0.123  14.479  24.690  0.00  0.00    +0.000 HD
ENDBRANCH  27  28
ENDBRANCH   6  27
TORSDOF 5
ENDMDL
MODEL 4
REMARK VINA RESULT:      -7.4      4.011      8.041
REMARK  Name = 
REMARK  6 active torsions:
REMARK  status: ('A' for Active; 'I' for Inactive)
REMARK    1  A    between atoms: C_1  and  N_2
REMARK    2  A    between atoms: C_6  and  C_7
REMARK    3  A    between atoms: C_11  and  N_12
REMARK    4  A    between atoms: C_17  and  C_18
REMARK    5  A    between atoms: C_18  and  N_19
REMARK    6  A    between atoms: C_21  and  C_22
REMARK                            x       y       z     vdW  Elec       q    Type
REMARK                         _______ _______ _______ _____ _____    ______ ____
ROOT
ATOM      1  N   UNL     1       0.762   8.263  21.211  0.00  0.00    +0.000 N 
ATOM      2  C   UNL     1      -0.479   8.588  20.465  0.00  0.00    +0.000 C 
ATOM      3  C   UNL     1      -0.288  10.040  20.140  0.00  0.00    +0.000 A 
ATOM      4  C   UNL     1       0.559  10.578  21.111  0.00  0.00    +0.000 A 
ATOM      5  C   UNL     1       1.043  11.875  21.056  0.00  0.00    +0.000 A 
ATOM      6  C   UNL     1       0.656  12.672  19.973  0.00  0.00    +0.000 A 
ATOM      7  C   UNL     1      -0.180  12.121  18.971  0.00  0.00    +0.000 A 
ATOM      8  C   UNL     1      -0.666  10.796  19.036  0.00  0.00    +0.000 A 
ATOM      9  C   UNL     1       1.116   9.454  21.900  0.00  0.00    +0.000 C 
ATOM     10  O   UNL     1       1.903   9.599  22.819  0.00  0.00    +0.000 OA
ENDROOT
BRANCH   1  15
ATOM     11  C   UNL     1       2.303   5.654  19.165  0.00  0.00    +0.000 A 
ATOM     12  C   UNL     1       2.270   6.375  17.966  0.00  0.00    +0.000 A 
ATOM     13  C   UNL     1       2.250   7.764  17.959  0.00  0.00    +0.000 A 
ATOM     14  C   UNL     1       2.088   8.451  19.150  0.00  0.00    +0.000 A 
ATOM     15  C   UNL     1       1.777   7.730  20.312  0.00  0.00    +0.000 A 
ATOM     16  C   UNL     1       2.050   6.352  20.353  0.00  0.00    +0.000 A 
BRANCH  11  22
ATOM     17  C   UNL     1       4.998   4.018  19.090  0.00  0.00    +0.000 C 
ATOM     18  N   UNL     1       3.662   3.501  19.127  0.00  0.00    +0.000 N 
ATOM     19  C   UNL     1       3.341   2.179  19.173  0.00  0.00    +0.000 A 
ATOM     20  N   UNL     1       2.036   2.040  19.268  0.00  0.00    +0.000 NA
ATOM     21  N   UNL     1       1.499   3.311  19.300  0.00  0.00    +0.000 NA
ATOM     22  C   UNL     1       2.474   4.197  19.187  0.00  0.00    +0.000 A 
ENDBRANCH  11  22
ENDBRANCH   1  15
BRANCH   8  23
ATOM     23  C   UNL     1      -1.469  10.251  17.881  0.00  0.00    +0.000 C 
ATOM     24  F   UNL     1      -2.607   9.606  18.249  0.00  0.00    +0.000 F 
ATOM     25  F   UNL     1      -1.863  11.233  17.024  0.00  0.00    +0.000 F 
ATOM     26  F   UNL     1      -0.761   9.361  17.130  0.00  0.00    +0.000 F 
ENDBRANCH   8  23
BRANCH   6  27
ATOM     27  C   UNL     1       1.201  14.072  19.817  0.00  0.00    +0.000 C 
BRANCH  27  28
ATOM     28  N   UNL     1       0.290  14.911  19.052  0.00  0.00    +0.000 NA
ATOM     29  H   UNL     1       0.789  15.312  18.259  0.00  0.00    +0.000 HD
ATOM     30  H   UNL     1       0.005  15.704  19.629  0.00  0.00    +0.000 HD
ENDBRANCH  27  28
ENDBRANCH   6  27
TORSDOF 5
ENDMDL
MODEL 5
REMARK VINA RESULT:      -7.4      3.496      4.414
REMARK  Name = 
REMARK  6 active torsions:
REMARK  status: ('A' for Active; 'I' for Inactive)
REMARK    1  A    between atoms: C_1  and  N_2
REMARK    2  A    between atoms: C_6  and  C_7
REMARK    3  A    between atoms: C_11  and  N_12
REMARK    4  A    between atoms: C_17  and  C_18
REMARK    5  A    between atoms: C_18  and  N_19
REMARK    6  A    between atoms: C_21  and  C_22
REMARK                            x       y       z     vdW  Elec       q    Type
REMARK                         _______ _______ _______ _____ _____    ______ ____
ROOT
ATOM      1  N   UNL     1       2.113   7.206  17.933  0.00  0.00    +0.000 N 
ATOM      2  C   UNL     1       1.959   5.766  18.257  0.00  0.00    +0.000 C 
ATOM      3  C   UNL     1       3.377   5.337  18.496  0.00  0.00    +0.000 A 
ATOM      4  C   UNL     1       4.203   6.196  17.769  0.00  0.00    +0.000 A 
ATOM      5  C   UNL     1       5.585   6.163  17.849  0.00  0.00    +0.000 A 
ATOM      6  C   UNL     1       6.168   5.217  18.702  0.00  0.00    +0.000 A 
ATOM      7  C   UNL     1       5.333   4.363  19.462  0.00  0.00    +0.000 A 
ATOM      8  C   UNL     1       3.924   4.407  19.374  0.00  0.00    +0.000 A 
ATOM      9  C   UNL     1       3.368   7.317  17.276  0.00  0.00    +0.000 C 
ATOM     10  O   UNL     1       3.804   8.243  16.615  0.00  0.00    +0.000 OA
ENDROOT
BRANCH   1  15
ATOM     11  C   UNL     1       0.485   9.757  19.985  0.00  0.00    +0.000 A 
ATOM     12  C   UNL     1       0.223   8.918  21.073  0.00  0.00    +0.000 A 
ATOM     13  C   UNL     1       0.992   7.787  21.315  0.00  0.00    +0.000 A 
ATOM     14  C   UNL     1       1.926   7.382  20.377  0.00  0.00    +0.000 A 
ATOM     15  C   UNL     1       1.955   8.022  19.130  0.00  0.00    +0.000 A 
ATOM     16  C   UNL     1       1.367   9.292  19.001  0.00  0.00    +0.000 A 
BRANCH  11  22
ATOM     17  C   UNL     1       1.522  12.660  20.647  0.00  0.00    +0.000 C 
ATOM     18  N   UNL     1       0.242  12.288  20.122  0.00  0.00    +0.000 N 
ATOM     19  C   UNL     1      -0.743  13.163  19.783  0.00  0.00    +0.000 A 
ATOM     20  N   UNL     1      -1.763  12.510  19.268  0.00  0.00    +0.000 NA
ATOM     21  N   UNL     1      -1.418  11.173  19.260  0.00  0.00    +0.000 NA
ATOM     22  C   UNL     1      -0.221  11.030  19.800  0.00  0.00    +0.000 A 
ENDBRANCH  11  22
ENDBRANCH   1  15
BRANCH   8  23
ATOM     23  C   UNL     1       3.103   3.534  20.290  0.00  0.00    +0.000 C 
ATOM     24  F   UNL     1       2.076   2.890  19.674  0.00  0.00    +0.000 F 
ATOM     25  F   UNL     1       3.852   2.559  20.874  0.00  0.00    +0.000 F 
ATOM     26  F   UNL     1       2.542   4.237  21.314  0.00  0.00    +0.000 F 
ENDBRANCH   8  23
BRANCH   6  27
ATOM     27  C   UNL     1       7.666   5.172  18.887  0.00  0.00    +0.000 C 
BRANCH  27  28
ATOM     28  N   UNL     1       8.038   5.478  20.260  0.00  0.00    +0.000 NA
ATOM     29  H   UNL     1       7.900   4.649  20.838  0.00  0.00    +0.000 HD
ATOM     30  H   UNL     1       7.399   6.182  20.629  0.00  0.00    +0.000 HD
ENDBRANCH  27  28
ENDBRANCH   6  27
TORSDOF 5
ENDMDL
MODEL 6
REMARK VINA RESULT:      -7.4      4.276      8.220
REMARK  Name = 
REMARK  6 active torsions:
REMARK  status: ('A' for Active; 'I' for Inactive)
REMARK    1  A    between atoms: C_1  and  N_2
REMARK    2  A    between atoms: C_6  and  C_7
REMARK    3  A    between atoms: C_11  and  N_12
REMARK    4  A    between atoms: C_17  and  C_18
REMARK    5  A    between atoms: C_18  and  N_19
REMARK    6  A    between atoms: C_21  and  C_22
REMARK                            x       y       z     vdW  Elec       q    Type
REMARK                         _______ _______ _______ _____ _____    ______ ____
ROOT
ATOM      1  N   UNL     1       0.560   8.464  21.066  0.00  0.00    +0.000 N 
ATOM      2  C   UNL     1      -0.674   8.658  20.264  0.00  0.00    +0.000 C 
ATOM      3  C   UNL     1      -0.687  10.142  20.047  0.00  0.00    +0.000 A 
ATOM      4  C   UNL     1       0.016  10.726  21.102  0.00  0.00    +0.000 A 
ATOM      5  C   UNL     1       0.301  12.080  21.162  0.00  0.00    +0.000 A 
ATOM      6  C   UNL     1      -0.144  12.889  20.109  0.00  0.00    +0.000 A 
ATOM      7  C   UNL     1      -0.832  12.296  19.022  0.00  0.00    +0.000 A 
ATOM      8  C   UNL     1      -1.116  10.913  18.971  0.00  0.00    +0.000 A 
ATOM      9  C   UNL     1       0.692   9.642  21.851  0.00  0.00    +0.000 C 
ATOM     10  O   UNL     1       1.398   9.833  22.826  0.00  0.00    +0.000 OA
ENDROOT
BRANCH   1  15
ATOM     11  C   UNL     1       2.794   6.207  19.254  0.00  0.00    +0.000 A 
ATOM     12  C   UNL     1       2.564   6.764  17.990  0.00  0.00    +0.000 A 
ATOM     13  C   UNL     1       2.149   8.082  17.846  0.00  0.00    +0.000 A 
ATOM     14  C   UNL     1       1.791   8.812  18.967  0.00  0.00    +0.000 A 
ATOM     15  C   UNL     1       1.691   8.154  20.201  0.00  0.00    +0.000 A 
ATOM     16  C   UNL     1       2.345   6.922  20.372  0.00  0.00    +0.000 A 
BRANCH  11  22
ATOM     17  C   UNL     1       1.275   3.489  19.751  0.00  0.00    +0.000 C 
ATOM     18  N   UNL     1       2.690   3.696  19.661  0.00  0.00    +0.000 N 
ATOM     19  C   UNL     1       3.627   2.712  19.743  0.00  0.00    +0.000 A 
ATOM     20  N   UNL     1       4.826   3.220  19.553  0.00  0.00    +0.000 NA
ATOM     21  N   UNL     1       4.656   4.571  19.325  0.00  0.00    +0.000 NA
ATOM     22  C   UNL     1       3.372   4.869  19.417  0.00  0.00    +0.000 A 
ENDBRANCH  11  22
ENDBRANCH   1  15
BRANCH   8  23
ATOM     23  C   UNL     1      -1.764  10.342  17.735  0.00  0.00    +0.000 C 
ATOM     24  F   UNL     1      -2.121  11.273  16.811  0.00  0.00    +0.000 F 
ATOM     25  F   UNL     1      -0.944   9.472  17.083  0.00  0.00    +0.000 F 
ATOM     26  F   UNL     1      -2.899   9.643  18.019  0.00  0.00    +0.000 F 
ENDBRANCH   8  23
BRANCH   6  27
ATOM     27  C   UNL     1       0.191  14.361  20.078  0.00  0.00    +0.000 C 
BRANCH  27  28
ATOM     28  N   UNL     1      -0.692  15.086  19.176  0.00  0.00    +0.000 NA
ATOM     29  H   UNL     1      -1.131  14.426  18.534  0.00  0.00    +0.000 HD
ATOM     30  H   UNL     1      -0.133  15.710  18.594  0.00  0.00    +0.000 HD
ENDBRANCH  27  28
ENDBRANCH   6  27
TORSDOF 5
ENDMDL
MODEL 7
REMARK VINA RESULT:      -7.3      3.998      8.284
REMARK  Name = 
REMARK  6 active torsions:
REMARK  status: ('A' for Active; 'I' for Inactive)
REMARK    1  A    between atoms: C_1  and  N_2
REMARK    2  A    between atoms: C_6  and  C_7
REMARK    3  A    between atoms: C_11  and  N_12
REMARK    4  A    between atoms: C_17  and  C_18
REMARK    5  A    between atoms: C_18  and  N_19
REMARK    6  A    between atoms: C_21  and  C_22
REMARK                            x       y       z     vdW  Elec       q    Type
REMARK                         _______ _______ _______ _____ _____    ______ ____
ROOT
ATOM      1  N   UNL     1       0.404   8.553  21.123  0.00  0.00    +0.000 N 
ATOM      2  C   UNL     1      -0.801   8.726  20.274  0.00  0.00    +0.000 C 
ATOM      3  C   UNL     1      -0.811  10.206  20.025  0.00  0.00    +0.000 A 
ATOM      4  C   UNL     1      -0.146  10.814  21.092  0.00  0.00    +0.000 A 
ATOM      5  C   UNL     1       0.134  12.170  21.134  0.00  0.00    +0.000 A 
ATOM      6  C   UNL     1      -0.275  12.955  20.049  0.00  0.00    +0.000 A 
ATOM      7  C   UNL     1      -0.924  12.337  18.952  0.00  0.00    +0.000 A 
ATOM      8  C   UNL     1      -1.202  10.953  18.919  0.00  0.00    +0.000 A 
ATOM      9  C   UNL     1       0.506   9.747  21.887  0.00  0.00    +0.000 C 
ATOM     10  O   UNL     1       1.177   9.961  22.882  0.00  0.00    +0.000 OA
ENDROOT
BRANCH   1  15
ATOM     11  C   UNL     1       2.630   6.275  19.327  0.00  0.00    +0.000 A 
ATOM     12  C   UNL     1       2.495   6.897  18.080  0.00  0.00    +0.000 A 
ATOM     13  C   UNL     1       2.147   8.238  17.976  0.00  0.00    +0.000 A 
ATOM     14  C   UNL     1       1.761   8.934  19.109  0.00  0.00    +0.000 A 
ATOM     15  C   UNL     1       1.565   8.228  20.304  0.00  0.00    +0.000 A 
ATOM     16  C   UNL     1       2.153   6.961  20.452  0.00  0.00    +0.000 A 
BRANCH  11  22
ATOM     17  C   UNL     1       5.615   5.288  19.097  0.00  0.00    +0.000 C 
ATOM     18  N   UNL     1       4.446   4.491  19.327  0.00  0.00    +0.000 N 
ATOM     19  C   UNL     1       4.449   3.145  19.523  0.00  0.00    +0.000 A 
ATOM     20  N   UNL     1       3.227   2.728  19.774  0.00  0.00    +0.000 NA
ATOM     21  N   UNL     1       2.412   3.842  19.755  0.00  0.00    +0.000 NA
ATOM     22  C   UNL     1       3.138   4.905  19.458  0.00  0.00    +0.000 A 
ENDBRANCH  11  22
ENDBRANCH   1  15
BRANCH   8  23
ATOM     23  C   UNL     1      -1.806  10.354  17.673  0.00  0.00    +0.000 C 
ATOM     24  F   UNL     1      -2.137  11.265  16.721  0.00  0.00    +0.000 F 
ATOM     25  F   UNL     1      -0.960   9.477  17.066  0.00  0.00    +0.000 F 
ATOM     26  F   UNL     1      -2.946   9.654  17.933  0.00  0.00    +0.000 F 
ENDBRANCH   8  23
BRANCH   6  27
ATOM     27  C   UNL     1       0.057  14.427  20.000  0.00  0.00    +0.000 C 
BRANCH  27  28
ATOM     28  N   UNL     1      -0.507  15.057  18.815  0.00  0.00    +0.000 NA
ATOM     29  H   UNL     1      -0.043  14.688  17.985  0.00  0.00    +0.000 HD
ATOM     30  H   UNL     1      -0.290  16.054  18.834  0.00  0.00    +0.000 HD
ENDBRANCH  27  28
ENDBRANCH   6  27
TORSDOF 5
ENDMDL
MODEL 8
REMARK VINA RESULT:      -7.2      5.879     10.499
REMARK  Name = 
REMARK  6 active torsions:
REMARK  status: ('A' for Active; 'I' for Inactive)
REMARK    1  A    between atoms: C_1  and  N_2
REMARK    2  A    between atoms: C_6  and  C_7
REMARK    3  A    between atoms: C_11  and  N_12
REMARK    4  A    between atoms: C_17  and  C_18
REMARK    5  A    between atoms: C_18  and  N_19
REMARK    6  A    between atoms: C_21  and  C_22
REMARK                            x       y       z     vdW  Elec       q    Type
REMARK                         _______ _______ _______ _____ _____    ______ ____
ROOT
ATOM      1  N   UNL     1      -1.196  12.153  20.329  0.00  0.00    +0.000 N 
ATOM      2  C   UNL     1      -1.963  13.018  21.259  0.00  0.00    +0.000 C 
ATOM      3  C   UNL     1      -3.381  12.761  20.843  0.00  0.00    +0.000 A 
ATOM      4  C   UNL     1      -3.361  12.370  19.503  0.00  0.00    +0.000 A 
ATOM      5  C   UNL     1      -4.489  11.942  18.824  0.00  0.00    +0.000 A 
ATOM      6  C   UNL     1      -5.700  11.904  19.525  0.00  0.00    +0.000 A 
ATOM      7  C   UNL     1      -5.720  12.272  20.893  0.00  0.00    +0.000 A 
ATOM      8  C   UNL     1      -4.562  12.705  21.577  0.00  0.00    +0.000 A 
ATOM      9  C   UNL     1      -1.949  12.128  19.124  0.00  0.00    +0.000 C 
ATOM     10  O   UNL     1      -1.601  11.762  18.015  0.00  0.00    +0.000 OA
ENDROOT
BRANCH   1  15
ATOM     11  C   UNL     1       0.710   9.069  20.807  0.00  0.00    +0.000 A 
ATOM     12  C   UNL     1       0.920   9.243  22.179  0.00  0.00    +0.000 A 
ATOM     13  C   UNL     1       0.056  10.010  22.951  0.00  0.00    +0.000 A 
ATOM     14  C   UNL     1      -0.934  10.755  22.333  0.00  0.00    +0.000 A 
ATOM     15  C   UNL     1      -0.934  10.854  20.935  0.00  0.00    +0.000 A 
ATOM     16  C   UNL     1      -0.236   9.894  20.183  0.00  0.00    +0.000 A 
BRANCH  11  22
ATOM     17  C   UNL     1       1.938   9.553  17.944  0.00  0.00    +0.000 C 
ATOM     18  N   UNL     1       2.030   8.369  18.746  0.00  0.00    +0.000 N 
ATOM     19  C   UNL     1       2.716   7.246  18.399  0.00  0.00    +0.000 A 
ATOM     20  N   UNL     1       2.662   6.369  19.379  0.00  0.00    +0.000 NA
ATOM     21  N   UNL     1       1.932   6.951  20.396  0.00  0.00    +0.000 NA
ATOM     22  C   UNL     1       1.525   8.147  20.009  0.00  0.00    +0.000 A 
ENDBRANCH  11  22
ENDBRANCH   1  15
BRANCH   8  23
ATOM     23  C   UNL     1      -4.644  12.984  23.057  0.00  0.00    +0.000 C 
ATOM     24  F   UNL     1      -4.319  14.257  23.404  0.00  0.00    +0.000 F 
ATOM     25  F   UNL     1      -5.897  12.777  23.547  0.00  0.00    +0.000 F 
ATOM     26  F   UNL     1      -3.821  12.177  23.784  0.00  0.00    +0.000 F 
ENDBRANCH   8  23
BRANCH   6  27
ATOM     27  C   UNL     1      -6.953  11.384  18.864  0.00  0.00    +0.000 C 
BRANCH  27  28
ATOM     28  N   UNL     1      -7.262  10.031  19.306  0.00  0.00    +0.000 NA
ATOM     29  H   UNL     1      -7.829   9.568  18.597  0.00  0.00    +0.000 HD
ATOM     30  H   UNL     1      -7.848  10.081  20.141  0.00  0.00    +0.000 HD
ENDBRANCH  27  28
ENDBRANCH   6  27
TORSDOF 5
ENDMDL
MODEL 9
REMARK VINA RESULT:      -7.2      5.816     10.578
REMARK  Name = 
REMARK  6 active torsions:
REMARK  status: ('A' for Active; 'I' for Inactive)
REMARK    1  A    between atoms: C_1  and  N_2
REMARK    2  A    between atoms: C_6  and  C_7
REMARK    3  A    between atoms: C_11  and  N_12
REMARK    4  A    between atoms: C_17  and  C_18
REMARK    5  A    between atoms: C_18  and  N_19
REMARK    6  A    between atoms: C_21  and  C_22
REMARK                            x       y       z     vdW  Elec       q    Type
REMARK                         _______ _______ _______ _____ _____    ______ ____
ROOT
ATOM      1  N   UNL     1      -0.992  12.217  20.536  0.00  0.00    +0.000 N 
ATOM      2  C   UNL     1      -1.649  12.962  21.639  0.00  0.00    +0.000 C 
ATOM      3  C   UNL     1      -3.104  12.811  21.307  0.00  0.00    +0.000 A 
ATOM      4  C   UNL     1      -3.202  12.619  19.927  0.00  0.00    +0.000 A 
ATOM      5  C   UNL     1      -4.396  12.329  19.288  0.00  0.00    +0.000 A 
ATOM      6  C   UNL     1      -5.550  12.227  20.073  0.00  0.00    +0.000 A 
ATOM      7  C   UNL     1      -5.451  12.393  21.476  0.00  0.00    +0.000 A 
ATOM      8  C   UNL     1      -4.228  12.687  22.118  0.00  0.00    +0.000 A 
ATOM      9  C   UNL     1      -1.835  12.391  19.404  0.00  0.00    +0.000 C 
ATOM     10  O   UNL     1      -1.588  12.178  18.230  0.00  0.00    +0.000 OA
ENDROOT
BRANCH   1  15
ATOM     11  C   UNL     1       0.898   9.087  20.530  0.00  0.00    +0.000 A 
ATOM     12  C   UNL     1       1.096   9.038  21.914  0.00  0.00    +0.000 A 
ATOM     13  C   UNL     1       0.227   9.675  22.791  0.00  0.00    +0.000 A 
ATOM     14  C   UNL     1      -0.755  10.514  22.292  0.00  0.00    +0.000 A 
ATOM     15  C   UNL     1      -0.741  10.836  20.927  0.00  0.00    +0.000 A 
ATOM     16  C   UNL     1      -0.038  10.007  20.037  0.00  0.00    +0.000 A 
BRANCH  11  22
ATOM     17  C   UNL     1       1.700   6.046  20.754  0.00  0.00    +0.000 C 
ATOM     18  N   UNL     1       2.080   6.978  19.733  0.00  0.00    +0.000 N 
ATOM     19  C   UNL     1       2.841   6.673  18.647  0.00  0.00    +0.000 A 
ATOM     20  N   UNL     1       2.950   7.728  17.868  0.00  0.00    +0.000 NA
ATOM     21  N   UNL     1       2.223   8.740  18.462  0.00  0.00    +0.000 NA
ATOM     22  C   UNL     1       1.719   8.301  19.601  0.00  0.00    +0.000 A 
ENDBRANCH  11  22
ENDBRANCH   1  15
BRANCH   8  23
ATOM     23  C   UNL     1      -4.186  12.750  23.625  0.00  0.00    +0.000 C 
ATOM     24  F   UNL     1      -3.675  13.908  24.121  0.00  0.00    +0.000 F 
ATOM     25  F   UNL     1      -5.424  12.628  24.176  0.00  0.00    +0.000 F 
ATOM     26  F   UNL     1      -3.435  11.749  24.166  0.00  0.00    +0.000 F 
ENDBRANCH   8  23
BRANCH   6  27
ATOM     27  C   UNL     1      -6.872  11.847  19.448  0.00  0.00    +0.000 C 
BRANCH  27  28
ATOM     28  N   UNL     1      -7.454  10.688  20.107  0.00  0.00    +0.000 NA
ATOM     29  H   UNL     1      -8.469  10.727  20.021  0.00  0.00    +0.000 HD
ATOM     30  H   UNL     1      -7.259  10.742  21.108  0.00  0.00    +0.000 HD
ENDBRANCH  27  28
ENDBRANCH   6  27
TORSDOF 5
ENDMDL
