MODEL 1
REMARK VINA RESULT:      -9.2      0.000      0.000
REMARK  Name = 
REMARK  7 active torsions:
REMARK  status: ('A' for Active; 'I' for Inactive)
REMARK    1  A    between atoms: C_1  and  C_2
REMARK    2  A    between atoms: C_2  and  C_3
REMARK    3  A    between atoms: C_9  and  C_10
REMARK    4  A    between atoms: C_10  and  N_11
REMARK    5  A    between atoms: N_11  and  C_12
REMARK    6  A    between atoms: C_16  and  C_17
REMARK    7  A    between atoms: C_17  and  N_18
REMARK                            x       y       z     vdW  Elec       q    Type
REMARK                         _______ _______ _______ _____ _____    ______ ____
ROOT
ATOM      1  N   UNL     1       3.701   7.893  17.914  0.00  0.00    +0.000 N 
ATOM      2  H   UNL     1       4.395   8.633  17.822  0.00  0.00    +0.000 HD
ENDROOT
BRANCH   1   3
ATOM      3  C   UNL     1       4.137   6.738  17.258  0.00  0.00    +0.000 A 
ATOM      4  C   UNL     1       5.080   6.729  16.229  0.00  0.00    +0.000 A 
ATOM      5  C   UNL     1       5.450   5.532  15.612  0.00  0.00    +0.000 A 
ATOM      6  C   UNL     1       4.910   4.321  16.046  0.00  0.00    +0.000 A 
ATOM      7  C   UNL     1       4.019   4.287  17.124  0.00  0.00    +0.000 A 
ATOM      8  C   UNL     1       3.642   5.505  17.714  0.00  0.00    +0.000 A 
BRANCH   7   9
ATOM      9  C   UNL     1       3.509   2.967  17.658  0.00  0.00    +0.000 C 
BRANCH   9  10
ATOM     10  N   UNL     1       2.842   3.059  18.954  0.00  0.00    +0.000 N 
ATOM     11  C   UNL     1       1.411   3.332  18.957  0.00  0.00    +0.000 C 
ATOM     12  C   UNL     1       0.898   3.793  20.310  0.00  0.00    +0.000 C 
ATOM     13  C   UNL     1       1.300   2.759  21.343  0.00  0.00    +0.000 C 
ATOM     14  C   UNL     1       2.813   2.664  21.419  0.00  0.00    +0.000 C 
ATOM     15  C   UNL     1       3.548   2.694  20.089  0.00  0.00    +0.000 C 
ATOM     16  O   UNL     1       4.758   2.457  20.069  0.00  0.00    +0.000 OA
ENDBRANCH   9  10
ENDBRANCH   7   9
ENDBRANCH   1   3
BRANCH   1  17
ATOM     17  C   UNL     1       2.358   8.412  17.654  0.00  0.00    +0.000 C 
BRANCH  17  26
ATOM     18  C   UNL     1      -1.938  11.141  18.011  0.00  0.00    +0.000 C 
ATOM     19  C   UNL     1      -0.643  11.422  18.780  0.00  0.00    +0.000 C 
ATOM     20  C   UNL     1      -0.232  12.884  18.599  0.00  0.00    +0.000 C 
ATOM     21  C   UNL     1      -0.791  11.063  20.275  0.00  0.00    +0.000 C 
ATOM     22  C   UNL     1       0.095   9.879  20.355  0.00  0.00    +0.000 A 
ATOM     23  C   UNL     1       0.316   9.044  21.435  0.00  0.00    +0.000 A 
ATOM     24  C   UNL     1       1.220   7.995  21.285  0.00  0.00    +0.000 A 
ATOM     25  C   UNL     1       1.888   7.806  20.064  0.00  0.00    +0.000 A 
ATOM     26  C   UNL     1       1.663   8.660  18.968  0.00  0.00    +0.000 A 
ATOM     27  C   UNL     1       0.750   9.685  19.149  0.00  0.00    +0.000 A 
ATOM     28  O   UNL     1       0.405  10.600  18.189  0.00  0.00    +0.000 OA
ENDBRANCH  17  26
ENDBRANCH   1  17
TORSDOF 5
ENDMDL
MODEL 2
REMARK VINA RESULT:      -8.9      0.932      1.336
REMARK  Name = 
REMARK  7 active torsions:
REMARK  status: ('A' for Active; 'I' for Inactive)
REMARK    1  A    between atoms: C_1  and  C_2
REMARK    2  A    between atoms: C_2  and  C_3
REMARK    3  A    between atoms: C_9  and  C_10
REMARK    4  A    between atoms: C_10  and  N_11
REMARK    5  A    between atoms: N_11  and  C_12
REMARK    6  A    between atoms: C_16  and  C_17
REMARK    7  A    between atoms: C_17  and  N_18
REMARK                            x       y       z     vdW  Elec       q    Type
REMARK                         _______ _______ _______ _____ _____    ______ ____
ROOT
ATOM      1  N   UNL     1       3.884   7.746  17.826  0.00  0.00    +0.000 N 
ATOM      2  H   UNL     1       4.582   8.481  17.718  0.00  0.00    +0.000 HD
ENDROOT
BRANCH   1   3
ATOM      3  C   UNL     1       4.301   6.584  17.171  0.00  0.00    +0.000 A 
ATOM      4  C   UNL     1       5.211   6.564  16.112  0.00  0.00    +0.000 A 
ATOM      5  C   UNL     1       5.564   5.360  15.498  0.00  0.00    +0.000 A 
ATOM      6  C   UNL     1       5.039   4.154  15.962  0.00  0.00    +0.000 A 
ATOM      7  C   UNL     1       4.182   4.132  17.068  0.00  0.00    +0.000 A 
ATOM      8  C   UNL     1       3.822   5.355  17.656  0.00  0.00    +0.000 A 
BRANCH   7   9
ATOM      9  C   UNL     1       3.691   2.817  17.633  0.00  0.00    +0.000 C 
BRANCH   9  10
ATOM     10  N   UNL     1       2.931   2.941  18.874  0.00  0.00    +0.000 N 
ATOM     11  C   UNL     1       3.672   2.882  20.127  0.00  0.00    +0.000 C 
ATOM     12  C   UNL     1       2.783   2.625  21.331  0.00  0.00    +0.000 C 
ATOM     13  C   UNL     1       1.692   3.677  21.343  0.00  0.00    +0.000 C 
ATOM     14  C   UNL     1       0.840   3.555  20.093  0.00  0.00    +0.000 C 
ATOM     15  C   UNL     1       1.594   3.299  18.798  0.00  0.00    +0.000 C 
ATOM     16  O   UNL     1       0.982   3.352  17.729  0.00  0.00    +0.000 OA
ENDBRANCH   9  10
ENDBRANCH   7   9
ENDBRANCH   1   3
BRANCH   1  17
ATOM     17  C   UNL     1       2.541   8.273  17.586  0.00  0.00    +0.000 C 
BRANCH  17  26
ATOM     18  C   UNL     1      -1.710  11.050  18.078  0.00  0.00    +0.000 C 
ATOM     19  C   UNL     1      -0.419  11.257  18.875  0.00  0.00    +0.000 C 
ATOM     20  C   UNL     1       0.019  12.720  18.792  0.00  0.00    +0.000 C 
ATOM     21  C   UNL     1      -0.588  10.807  20.343  0.00  0.00    +0.000 C 
ATOM     22  C   UNL     1       0.276   9.604  20.355  0.00  0.00    +0.000 A 
ATOM     23  C   UNL     1       0.472   8.698  21.381  0.00  0.00    +0.000 A 
ATOM     24  C   UNL     1       1.359   7.644  21.172  0.00  0.00    +0.000 A 
ATOM     25  C   UNL     1       2.035   7.522  19.947  0.00  0.00    +0.000 A 
ATOM     26  C   UNL     1       1.837   8.448  18.906  0.00  0.00    +0.000 A 
ATOM     27  C   UNL     1       0.940   9.476  19.145  0.00  0.00    +0.000 A 
ATOM     28  O   UNL     1       0.621  10.456  18.242  0.00  0.00    +0.000 OA
ENDBRANCH  17  26
ENDBRANCH   1  17
TORSDOF 5
ENDMDL
MODEL 3
REMARK VINA RESULT:      -8.7      2.043      8.005
REMARK  Name = 
REMARK  7 active torsions:
REMARK  status: ('A' for Active; 'I' for Inactive)
REMARK    1  A    between atoms: C_1  and  C_2
REMARK    2  A    between atoms: C_2  and  C_3
REMARK    3  A    between atoms: C_9  and  C_10
REMARK    4  A    between atoms: C_10  and  N_11
REMARK    5  A    between atoms: N_11  and  C_12
REMARK    6  A    between atoms: C_16  and  C_17
REMARK    7  A    between atoms: C_17  and  N_18
REMARK                            x       y       z     vdW  Elec       q    Type
REMARK                         _______ _______ _______ _____ _____    ______ ____
ROOT
ATOM      1  N   UNL     1       2.239   7.106  20.245  0.00  0.00    +0.000 N 
ATOM      2  H   UNL     1       3.235   7.303  20.324  0.00  0.00    +0.000 HD
ENDROOT
BRANCH   1   3
ATOM      3  C   UNL     1       1.493   8.231  20.606  0.00  0.00    +0.000 A 
ATOM      4  C   UNL     1       1.170   8.568  21.922  0.00  0.00    +0.000 A 
ATOM      5  C   UNL     1       0.404   9.703  22.199  0.00  0.00    +0.000 A 
ATOM      6  C   UNL     1      -0.016  10.538  21.163  0.00  0.00    +0.000 A 
ATOM      7  C   UNL     1       0.353  10.269  19.841  0.00  0.00    +0.000 A 
ATOM      8  C   UNL     1       1.103   9.110  19.582  0.00  0.00    +0.000 A 
BRANCH   7   9
ATOM      9  C   UNL     1      -0.019  11.226  18.730  0.00  0.00    +0.000 C 
BRANCH   9  10
ATOM     10  N   UNL     1      -1.379  11.061  18.223  0.00  0.00    +0.000 N 
ATOM     11  C   UNL     1      -1.629   9.947  17.318  0.00  0.00    +0.000 C 
ATOM     12  C   UNL     1      -2.933  10.086  16.552  0.00  0.00    +0.000 C 
ATOM     13  C   UNL     1      -4.050  10.290  17.556  0.00  0.00    +0.000 C 
ATOM     14  C   UNL     1      -3.819  11.573  18.334  0.00  0.00    +0.000 C 
ATOM     15  C   UNL     1      -2.387  11.838  18.769  0.00  0.00    +0.000 C 
ATOM     16  O   UNL     1      -2.160  12.773  19.540  0.00  0.00    +0.000 OA
ENDBRANCH   9  10
ENDBRANCH   7   9
ENDBRANCH   1   3
BRANCH   1  17
ATOM     17  C   UNL     1       1.923   5.805  20.836  0.00  0.00    +0.000 C 
BRANCH  17  26
ATOM     18  C   UNL     1       6.153   4.740  18.190  0.00  0.00    +0.000 C 
ATOM     19  C   UNL     1       4.805   5.141  17.582  0.00  0.00    +0.000 C 
ATOM     20  C   UNL     1       4.995   6.301  16.604  0.00  0.00    +0.000 C 
ATOM     21  C   UNL     1       4.119   3.938  16.898  0.00  0.00    +0.000 C 
ATOM     22  C   UNL     1       2.985   3.715  17.824  0.00  0.00    +0.000 A 
ATOM     23  C   UNL     1       2.042   2.704  17.798  0.00  0.00    +0.000 A 
ATOM     24  C   UNL     1       1.042   2.707  18.768  0.00  0.00    +0.000 A 
ATOM     25  C   UNL     1       1.002   3.722  19.738  0.00  0.00    +0.000 A 
ATOM     26  C   UNL     1       1.961   4.752  19.760  0.00  0.00    +0.000 A 
ATOM     27  C   UNL     1       2.947   4.710  18.788  0.00  0.00    +0.000 A 
ATOM     28  O   UNL     1       3.961   5.624  18.668  0.00  0.00    +0.000 OA
ENDBRANCH  17  26
ENDBRANCH   1  17
TORSDOF 5
ENDMDL
MODEL 4
REMARK VINA RESULT:      -8.6      1.949      3.920
REMARK  Name = 
REMARK  7 active torsions:
REMARK  status: ('A' for Active; 'I' for Inactive)
REMARK    1  A    between atoms: C_1  and  C_2
REMARK    2  A    between atoms: C_2  and  C_3
REMARK    3  A    between atoms: C_9  and  C_10
REMARK    4  A    between atoms: C_10  and  N_11
REMARK    5  A    between atoms: N_11  and  C_12
REMARK    6  A    between atoms: C_16  and  C_17
REMARK    7  A    between atoms: C_17  and  N_18
REMARK                            x       y       z     vdW  Elec       q    Type
REMARK                         _______ _______ _______ _____ _____    ______ ____
ROOT
ATOM      1  N   UNL     1       1.866   7.354  20.892  0.00  0.00    +0.000 N 
ATOM      2  H   UNL     1       2.667   7.581  21.479  0.00  0.00    +0.000 HD
ENDROOT
BRANCH   1   3
ATOM      3  C   UNL     1       2.088   6.151  20.216  0.00  0.00    +0.000 A 
ATOM      4  C   UNL     1       1.399   4.966  20.479  0.00  0.00    +0.000 A 
ATOM      5  C   UNL     1       1.691   3.799  19.769  0.00  0.00    +0.000 A 
ATOM      6  C   UNL     1       2.651   3.814  18.757  0.00  0.00    +0.000 A 
ATOM      7  C   UNL     1       3.306   5.003  18.418  0.00  0.00    +0.000 A 
ATOM      8  C   UNL     1       3.014   6.159  19.160  0.00  0.00    +0.000 A 
BRANCH   7   9
ATOM      9  C   UNL     1       4.274   5.041  17.255  0.00  0.00    +0.000 C 
BRANCH   9  10
ATOM     10  N   UNL     1       5.590   5.582  17.585  0.00  0.00    +0.000 N 
ATOM     11  C   UNL     1       5.939   6.886  17.038  0.00  0.00    +0.000 C 
ATOM     12  C   UNL     1       7.428   7.177  17.102  0.00  0.00    +0.000 C 
ATOM     13  C   UNL     1       7.881   7.003  18.538  0.00  0.00    +0.000 C 
ATOM     14  C   UNL     1       7.660   5.567  18.981  0.00  0.00    +0.000 C 
ATOM     15  C   UNL     1       6.350   4.931  18.544  0.00  0.00    +0.000 C 
ATOM     16  O   UNL     1       6.037   3.831  19.004  0.00  0.00    +0.000 OA
ENDBRANCH   9  10
ENDBRANCH   7   9
ENDBRANCH   1   3
BRANCH   1  17
ATOM     17  C   UNL     1       1.424   8.534  20.148  0.00  0.00    +0.000 C 
BRANCH  17  26
ATOM     18  C   UNL     1      -2.334  11.502  18.387  0.00  0.00    +0.000 C 
ATOM     19  C   UNL     1      -1.146  11.981  19.229  0.00  0.00    +0.000 C 
ATOM     20  C   UNL     1      -0.464  13.167  18.545  0.00  0.00    +0.000 C 
ATOM     21  C   UNL     1      -1.587  12.340  20.665  0.00  0.00    +0.000 C 
ATOM     22  C   UNL     1      -0.944  11.243  21.424  0.00  0.00    +0.000 A 
ATOM     23  C   UNL     1      -1.044  10.959  22.774  0.00  0.00    +0.000 A 
ATOM     24  C   UNL     1      -0.324   9.878  23.277  0.00  0.00    +0.000 A 
ATOM     25  C   UNL     1       0.483   9.107  22.425  0.00  0.00    +0.000 A 
ATOM     26  C   UNL     1       0.585   9.401  21.051  0.00  0.00    +0.000 A 
ATOM     27  C   UNL     1      -0.152  10.475  20.584  0.00  0.00    +0.000 A 
ATOM     28  O   UNL     1      -0.178  10.893  19.279  0.00  0.00    +0.000 OA
ENDBRANCH  17  26
ENDBRANCH   1  17
TORSDOF 5
ENDMDL
MODEL 5
REMARK VINA RESULT:      -8.6      1.653      3.773
REMARK  Name = 
REMARK  7 active torsions:
REMARK  status: ('A' for Active; 'I' for Inactive)
REMARK    1  A    between atoms: C_1  and  C_2
REMARK    2  A    between atoms: C_2  and  C_3
REMARK    3  A    between atoms: C_9  and  C_10
REMARK    4  A    between atoms: C_10  and  N_11
REMARK    5  A    between atoms: N_11  and  C_12
REMARK    6  A    between atoms: C_16  and  C_17
REMARK    7  A    between atoms: C_17  and  N_18
REMARK                            x       y       z     vdW  Elec       q    Type
REMARK                         _______ _______ _______ _____ _____    ______ ____
ROOT
ATOM      1  N   UNL     1       2.233   7.376  20.667  0.00  0.00    +0.000 N 
ATOM      2  H   UNL     1       3.201   7.692  20.694  0.00  0.00    +0.000 HD
ENDROOT
BRANCH   1   3
ATOM      3  C   UNL     1       2.178   6.008  20.385  0.00  0.00    +0.000 A 
ATOM      4  C   UNL     1       1.013   5.241  20.448  0.00  0.00    +0.000 A 
ATOM      5  C   UNL     1       1.045   3.873  20.167  0.00  0.00    +0.000 A 
ATOM      6  C   UNL     1       2.237   3.263  19.778  0.00  0.00    +0.000 A 
ATOM      7  C   UNL     1       3.406   4.018  19.632  0.00  0.00    +0.000 A 
ATOM      8  C   UNL     1       3.358   5.387  19.944  0.00  0.00    +0.000 A 
BRANCH   7   9
ATOM      9  C   UNL     1       4.675   3.376  19.116  0.00  0.00    +0.000 C 
BRANCH   9  10
ATOM     10  N   UNL     1       5.237   4.021  17.932  0.00  0.00    +0.000 N 
ATOM     11  C   UNL     1       4.453   3.977  16.705  0.00  0.00    +0.000 C 
ATOM     12  C   UNL     1       5.268   4.311  15.468  0.00  0.00    +0.000 C 
ATOM     13  C   UNL     1       5.934   5.654  15.691  0.00  0.00    +0.000 C 
ATOM     14  C   UNL     1       6.883   5.572  16.874  0.00  0.00    +0.000 C 
ATOM     15  C   UNL     1       6.376   4.797  18.079  0.00  0.00    +0.000 C 
ATOM     16  O   UNL     1       7.024   4.830  19.127  0.00  0.00    +0.000 OA
ENDBRANCH   9  10
ENDBRANCH   7   9
ENDBRANCH   1   3
BRANCH   1  17
ATOM     17  C   UNL     1       1.408   8.309  19.900  0.00  0.00    +0.000 C 
BRANCH  17  26
ATOM     18  C   UNL     1      -2.381  11.366  18.373  0.00  0.00    +0.000 C 
ATOM     19  C   UNL     1      -1.133  11.816  19.140  0.00  0.00    +0.000 C 
ATOM     20  C   UNL     1      -0.467  12.987  18.416  0.00  0.00    +0.000 C 
ATOM     21  C   UNL     1      -1.476  12.183  20.601  0.00  0.00    +0.000 C 
ATOM     22  C   UNL     1      -0.814  11.070  21.319  0.00  0.00    +0.000 A 
ATOM     23  C   UNL     1      -0.837  10.787  22.673  0.00  0.00    +0.000 A 
ATOM     24  C   UNL     1      -0.113   9.688  23.130  0.00  0.00    +0.000 A 
ATOM     25  C   UNL     1       0.623   8.901  22.230  0.00  0.00    +0.000 A 
ATOM     26  C   UNL     1       0.647   9.194  20.853  0.00  0.00    +0.000 A 
ATOM     27  C   UNL     1      -0.093  10.286  20.432  0.00  0.00    +0.000 A 
ATOM     28  O   UNL     1      -0.189  10.706  19.131  0.00  0.00    +0.000 OA
ENDBRANCH  17  26
ENDBRANCH   1  17
TORSDOF 5
ENDMDL
MODEL 6
REMARK VINA RESULT:      -8.5      2.021      8.150
REMARK  Name = 
REMARK  7 active torsions:
REMARK  status: ('A' for Active; 'I' for Inactive)
REMARK    1  A    between atoms: C_1  and  C_2
REMARK    2  A    between atoms: C_2  and  C_3
REMARK    3  A    between atoms: C_9  and  C_10
REMARK    4  A    between atoms: C_10  and  N_11
REMARK    5  A    between atoms: N_11  and  C_12
REMARK    6  A    between atoms: C_16  and  C_17
REMARK    7  A    between atoms: C_17  and  N_18
REMARK                            x       y       z     vdW  Elec       q    Type
REMARK                         _______ _______ _______ _____ _____    ______ ____
ROOT
ATOM      1  N   UNL     1       2.257   7.350  20.042  0.00  0.00    +0.000 N 
ATOM      2  H   UNL     1       1.960   6.447  20.407  0.00  0.00    +0.000 HD
ENDROOT
BRANCH   1   3
ATOM      3  C   UNL     1       1.438   8.366  20.542  0.00  0.00    +0.000 A 
ATOM      4  C   UNL     1       1.088   8.501  21.887  0.00  0.00    +0.000 A 
ATOM      5  C   UNL     1       0.249   9.537  22.305  0.00  0.00    +0.000 A 
ATOM      6  C   UNL     1      -0.219  10.477  21.386  0.00  0.00    +0.000 A 
ATOM      7  C   UNL     1       0.174  10.414  20.045  0.00  0.00    +0.000 A 
ATOM      8  C   UNL     1       0.998   9.351  19.641  0.00  0.00    +0.000 A 
BRANCH   7   9
ATOM      9  C   UNL     1      -0.253  11.488  19.069  0.00  0.00    +0.000 C 
BRANCH   9  10
ATOM     10  N   UNL     1      -1.538  11.238  18.422  0.00  0.00    +0.000 N 
ATOM     11  C   UNL     1      -1.595  10.176  17.425  0.00  0.00    +0.000 C 
ATOM     12  C   UNL     1      -2.831  10.253  16.547  0.00  0.00    +0.000 C 
ATOM     13  C   UNL     1      -4.049  10.278  17.449  0.00  0.00    +0.000 C 
ATOM     14  C   UNL     1      -4.017  11.515  18.328  0.00  0.00    +0.000 C 
ATOM     15  C   UNL     1      -2.663  11.876  18.917  0.00  0.00    +0.000 C 
ATOM     16  O   UNL     1      -2.600  12.767  19.767  0.00  0.00    +0.000 OA
ENDBRANCH   9  10
ENDBRANCH   7   9
ENDBRANCH   1   3
BRANCH   1  17
ATOM     17  C   UNL     1       2.512   7.265  18.604  0.00  0.00    +0.000 C 
BRANCH  17  26
ATOM     18  C   UNL     1       0.708   2.506  18.956  0.00  0.00    +0.000 C 
ATOM     19  C   UNL     1       1.933   3.047  19.700  0.00  0.00    +0.000 C 
ATOM     20  C   UNL     1       1.811   2.749  21.195  0.00  0.00    +0.000 C 
ATOM     21  C   UNL     1       3.242   2.467  19.120  0.00  0.00    +0.000 C 
ATOM     22  C   UNL     1       3.810   3.677  18.483  0.00  0.00    +0.000 A 
ATOM     23  C   UNL     1       4.953   3.785  17.711  0.00  0.00    +0.000 A 
ATOM     24  C   UNL     1       5.310   5.043  17.230  0.00  0.00    +0.000 A 
ATOM     25  C   UNL     1       4.524   6.166  17.536  0.00  0.00    +0.000 A 
ATOM     26  C   UNL     1       3.364   6.054  18.325  0.00  0.00    +0.000 A 
ATOM     27  C   UNL     1       3.033   4.787  18.776  0.00  0.00    +0.000 A 
ATOM     28  O   UNL     1       1.936   4.496  19.544  0.00  0.00    +0.000 OA
ENDBRANCH  17  26
ENDBRANCH   1  17
TORSDOF 5
ENDMDL
MODEL 7
REMARK VINA RESULT:      -8.4      2.116      8.064
REMARK  Name = 
REMARK  7 active torsions:
REMARK  status: ('A' for Active; 'I' for Inactive)
REMARK    1  A    between atoms: C_1  and  C_2
REMARK    2  A    between atoms: C_2  and  C_3
REMARK    3  A    between atoms: C_9  and  C_10
REMARK    4  A    between atoms: C_10  and  N_11
REMARK    5  A    between atoms: N_11  and  C_12
REMARK    6  A    between atoms: C_16  and  C_17
REMARK    7  A    between atoms: C_17  and  N_18
REMARK                            x       y       z     vdW  Elec       q    Type
REMARK                         _______ _______ _______ _____ _____    ______ ____
ROOT
ATOM      1  N   UNL     1       1.979   7.388  20.322  0.00  0.00    +0.000 N 
ATOM      2  H   UNL     1       2.959   7.654  20.255  0.00  0.00    +0.000 HD
ENDROOT
BRANCH   1   3
ATOM      3  C   UNL     1       1.207   8.481  20.725  0.00  0.00    +0.000 A 
ATOM      4  C   UNL     1       0.924   8.792  22.056  0.00  0.00    +0.000 A 
ATOM      5  C   UNL     1       0.128   9.895  22.376  0.00  0.00    +0.000 A 
ATOM      6  C   UNL     1      -0.362  10.725  21.368  0.00  0.00    +0.000 A 
ATOM      7  C   UNL     1      -0.035  10.483  20.029  0.00  0.00    +0.000 A 
ATOM      8  C   UNL     1       0.746   9.356  19.727  0.00  0.00    +0.000 A 
BRANCH   7   9
ATOM      9  C   UNL     1      -0.484  11.439  18.945  0.00  0.00    +0.000 C 
BRANCH   9  10
ATOM     10  N   UNL     1      -1.905  11.353  18.618  0.00  0.00    +0.000 N 
ATOM     11  C   UNL     1      -2.803  12.302  19.262  0.00  0.00    +0.000 C 
ATOM     12  C   UNL     1      -4.263  11.892  19.172  0.00  0.00    +0.000 C 
ATOM     13  C   UNL     1      -4.599  11.664  17.712  0.00  0.00    +0.000 C 
ATOM     14  C   UNL     1      -3.755  10.530  17.157  0.00  0.00    +0.000 C 
ATOM     15  C   UNL     1      -2.296  10.519  17.582  0.00  0.00    +0.000 C 
ATOM     16  O   UNL     1      -1.521   9.727  17.041  0.00  0.00    +0.000 OA
ENDBRANCH   9  10
ENDBRANCH   7   9
ENDBRANCH   1   3
BRANCH   1  17
ATOM     17  C   UNL     1       1.840   6.107  21.014  0.00  0.00    +0.000 C 
BRANCH  17  26
ATOM     18  C   UNL     1       5.998   4.954  18.292  0.00  0.00    +0.000 C 
ATOM     19  C   UNL     1       4.624   5.299  17.708  0.00  0.00    +0.000 C 
ATOM     20  C   UNL     1       4.762   6.402  16.659  0.00  0.00    +0.000 C 
ATOM     21  C   UNL     1       3.936   4.047  17.118  0.00  0.00    +0.000 C 
ATOM     22  C   UNL     1       2.838   3.861  18.093  0.00  0.00    +0.000 A 
ATOM     23  C   UNL     1       1.912   2.836  18.157  0.00  0.00    +0.000 A 
ATOM     24  C   UNL     1       0.945   2.881  19.159  0.00  0.00    +0.000 A 
ATOM     25  C   UNL     1       0.919   3.949  20.070  0.00  0.00    +0.000 A 
ATOM     26  C   UNL     1       1.860   4.993  20.000  0.00  0.00    +0.000 A 
ATOM     27  C   UNL     1       2.814   4.910  18.999  0.00  0.00    +0.000 A 
ATOM     28  O   UNL     1       3.808   5.830  18.793  0.00  0.00    +0.000 OA
ENDBRANCH  17  26
ENDBRANCH   1  17
TORSDOF 5
ENDMDL
MODEL 8
REMARK VINA RESULT:      -8.4      2.313      8.247
REMARK  Name = 
REMARK  7 active torsions:
REMARK  status: ('A' for Active; 'I' for Inactive)
REMARK    1  A    between atoms: C_1  and  C_2
REMARK    2  A    between atoms: C_2  and  C_3
REMARK    3  A    between atoms: C_9  and  C_10
REMARK    4  A    between atoms: C_10  and  N_11
REMARK    5  A    between atoms: N_11  and  C_12
REMARK    6  A    between atoms: C_16  and  C_17
REMARK    7  A    between atoms: C_17  and  N_18
REMARK                            x       y       z     vdW  Elec       q    Type
REMARK                         _______ _______ _______ _____ _____    ______ ____
ROOT
ATOM      1  N   UNL     1       1.835   7.960  21.330  0.00  0.00    +0.000 N 
ATOM      2  H   UNL     1       1.689   7.199  21.991  0.00  0.00    +0.000 HD
ENDROOT
BRANCH   1   3
ATOM      3  C   UNL     1       0.904   8.979  21.552  0.00  0.00    +0.000 A 
ATOM      4  C   UNL     1       0.370   9.294  22.803  0.00  0.00    +0.000 A 
ATOM      5  C   UNL     1      -0.570  10.318  22.939  0.00  0.00    +0.000 A 
ATOM      6  C   UNL     1      -0.959  11.068  21.828  0.00  0.00    +0.000 A 
ATOM      7  C   UNL     1      -0.387  10.826  20.574  0.00  0.00    +0.000 A 
ATOM      8  C   UNL     1       0.539   9.777  20.455  0.00  0.00    +0.000 A 
BRANCH   7   9
ATOM      9  C   UNL     1      -0.734  11.703  19.391  0.00  0.00    +0.000 C 
BRANCH   9  10
ATOM     10  N   UNL     1      -2.024  11.401  18.776  0.00  0.00    +0.000 N 
ATOM     11  C   UNL     1      -3.165  12.220  19.166  0.00  0.00    +0.000 C 
ATOM     12  C   UNL     1      -4.498  11.596  18.792  0.00  0.00    +0.000 C 
ATOM     13  C   UNL     1      -4.475  11.291  17.307  0.00  0.00    +0.000 C 
ATOM     14  C   UNL     1      -3.380  10.283  17.003  0.00  0.00    +0.000 C 
ATOM     15  C   UNL     1      -2.061  10.497  17.726  0.00  0.00    +0.000 C 
ATOM     16  O   UNL     1      -1.084   9.817  17.403  0.00  0.00    +0.000 OA
ENDBRANCH   9  10
ENDBRANCH   7   9
ENDBRANCH   1   3
BRANCH   1  17
ATOM     17  C   UNL     1       2.029   7.436  19.978  0.00  0.00    +0.000 C 
BRANCH  17  26
ATOM     18  C   UNL     1       6.616   5.375  19.120  0.00  0.00    +0.000 C 
ATOM     19  C   UNL     1       5.324   5.000  18.386  0.00  0.00    +0.000 C 
ATOM     20  C   UNL     1       5.542   5.066  16.874  0.00  0.00    +0.000 C 
ATOM     21  C   UNL     1       4.820   3.605  18.818  0.00  0.00    +0.000 C 
ATOM     22  C   UNL     1       3.604   3.983  19.573  0.00  0.00    +0.000 A 
ATOM     23  C   UNL     1       2.750   3.164  20.291  0.00  0.00    +0.000 A 
ATOM     24  C   UNL     1       1.644   3.743  20.908  0.00  0.00    +0.000 A 
ATOM     25  C   UNL     1       1.409   5.123  20.790  0.00  0.00    +0.000 A 
ATOM     26  C   UNL     1       2.277   5.952  20.055  0.00  0.00    +0.000 A 
ATOM     27  C   UNL     1       3.373   5.345  19.465  0.00  0.00    +0.000 A 
ATOM     28  O   UNL     1       4.322   6.001  18.725  0.00  0.00    +0.000 OA
ENDBRANCH  17  26
ENDBRANCH   1  17
TORSDOF 5
ENDMDL
MODEL 9
REMARK VINA RESULT:      -8.3      2.291      4.191
REMARK  Name = 
REMARK  7 active torsions:
REMARK  status: ('A' for Active; 'I' for Inactive)
REMARK    1  A    between atoms: C_1  and  C_2
REMARK    2  A    between atoms: C_2  and  C_3
REMARK    3  A    between atoms: C_9  and  C_10
REMARK    4  A    between atoms: C_10  and  N_11
REMARK    5  A    between atoms: N_11  and  C_12
REMARK    6  A    between atoms: C_16  and  C_17
REMARK    7  A    between atoms: C_17  and  N_18
REMARK                            x       y       z     vdW  Elec       q    Type
REMARK                         _______ _______ _______ _____ _____    ______ ____
ROOT
ATOM      1  N   UNL     1       1.655   6.974  21.020  0.00  0.00    +0.000 N 
ATOM      2  H   UNL     1       2.381   7.076  21.727  0.00  0.00    +0.000 HD
ENDROOT
BRANCH   1   3
ATOM      3  C   UNL     1       1.823   5.773  20.324  0.00  0.00    +0.000 A 
ATOM      4  C   UNL     1       1.021   4.644  20.505  0.00  0.00    +0.000 A 
ATOM      5  C   UNL     1       1.265   3.474  19.782  0.00  0.00    +0.000 A 
ATOM      6  C   UNL     1       2.291   3.432  18.838  0.00  0.00    +0.000 A 
ATOM      7  C   UNL     1       3.064   4.569  18.579  0.00  0.00    +0.000 A 
ATOM      8  C   UNL     1       2.818   5.728  19.334  0.00  0.00    +0.000 A 
BRANCH   7   9
ATOM      9  C   UNL     1       4.111   4.554  17.487  0.00  0.00    +0.000 C 
BRANCH   9  10
ATOM     10  N   UNL     1       5.305   5.339  17.786  0.00  0.00    +0.000 N 
ATOM     11  C   UNL     1       6.296   4.747  18.674  0.00  0.00    +0.000 C 
ATOM     12  C   UNL     1       7.279   5.763  19.228  0.00  0.00    +0.000 C 
ATOM     13  C   UNL     1       7.904   6.500  18.060  0.00  0.00    +0.000 C 
ATOM     14  C   UNL     1       6.833   7.250  17.289  0.00  0.00    +0.000 C 
ATOM     15  C   UNL     1       5.527   6.505  17.069  0.00  0.00    +0.000 C 
ATOM     16  O   UNL     1       4.681   6.989  16.314  0.00  0.00    +0.000 OA
ENDBRANCH   9  10
ENDBRANCH   7   9
ENDBRANCH   1   3
BRANCH   1  17
ATOM     17  C   UNL     1       1.480   8.223  20.279  0.00  0.00    +0.000 C 
BRANCH  17  26
ATOM     18  C   UNL     1      -0.109  12.746  18.534  0.00  0.00    +0.000 C 
ATOM     19  C   UNL     1       0.790  12.534  19.756  0.00  0.00    +0.000 C 
ATOM     20  C   UNL     1       2.041  13.408  19.644  0.00  0.00    +0.000 C 
ATOM     21  C   UNL     1       0.027  12.814  21.069  0.00  0.00    +0.000 C 
ATOM     22  C   UNL     1      -0.071  11.443  21.619  0.00  0.00    +0.000 A 
ATOM     23  C   UNL     1      -0.735  11.020  22.757  0.00  0.00    +0.000 A 
ATOM     24  C   UNL     1      -0.669   9.670  23.096  0.00  0.00    +0.000 A 
ATOM     25  C   UNL     1       0.061   8.775  22.298  0.00  0.00    +0.000 A 
ATOM     26  C   UNL     1       0.739   9.209  21.143  0.00  0.00    +0.000 A 
ATOM     27  C   UNL     1       0.643  10.555  20.830  0.00  0.00    +0.000 A 
ATOM     28  O   UNL     1       1.229  11.144  19.740  0.00  0.00    +0.000 OA
ENDBRANCH  17  26
ENDBRANCH   1  17
TORSDOF 5
ENDMDL
