MODEL 1
REMARK VINA RESULT:      -8.1      0.000      0.000
REMARK  Name = 
REMARK  9 active torsions:
REMARK  status: ('A' for Active; 'I' for Inactive)
REMARK    1  A    between atoms: C_1  and  C_2
REMARK    2  A    between atoms: C_2  and  C_3
REMARK    3  A    between atoms: C_2  and  C_10
REMARK    4  A    between atoms: C_3  and  C_4
REMARK    5  A    between atoms: N_8  and  C_9
REMARK    6  A    between atoms: C_13  and  C_14
REMARK    7  A    between atoms: C_18  and  C_19
REMARK    8  A    between atoms: C_19  and  C_20
REMARK    9  A    between atoms: C_24  and  C_25
REMARK                            x       y       z     vdW  Elec       q    Type
REMARK                         _______ _______ _______ _____ _____    ______ ____
ROOT
ATOM      1  C   UNL     1       2.730   6.660  19.414  0.00  0.00    +0.000 A 
ATOM      2  C   UNL     1       2.599   7.199  18.129  0.00  0.00    +0.000 A 
ATOM      3  C   UNL     1       1.830   8.344  17.896  0.00  0.00    +0.000 A 
ATOM      4  C   UNL     1       1.150   9.015  18.933  0.00  0.00    +0.000 A 
ATOM      5  C   UNL     1       1.261   8.454  20.221  0.00  0.00    +0.000 A 
ATOM      6  C   UNL     1       2.051   7.308  20.454  0.00  0.00    +0.000 A 
ENDROOT
BRANCH   4   7
ATOM      7  C   UNL     1       0.452  10.287  18.648  0.00  0.00    +0.000 A 
ATOM      8  C   UNL     1       1.013  11.540  18.892  0.00  0.00    +0.000 A 
ATOM      9  C   UNL     1       0.251  12.683  18.671  0.00  0.00    +0.000 A 
ATOM     10  C   UNL     1      -1.048  12.557  18.192  0.00  0.00    +0.000 A 
ATOM     11  C   UNL     1      -1.558  11.285  17.956  0.00  0.00    +0.000 A 
ATOM     12  N   UNL     1      -0.816  10.165  18.186  0.00  0.00    +0.000 NA
BRANCH  11  13
ATOM     13  C   UNL     1      -2.952  11.136  17.359  0.00  0.00    +0.000 C 
ATOM     14  C   UNL     1      -2.950  11.111  15.838  0.00  0.00    +0.000 C 
ATOM     15  F   UNL     1      -3.570   9.987  17.779  0.00  0.00    +0.000 F 
ATOM     16  F   UNL     1      -3.780  12.148  17.760  0.00  0.00    +0.000 F 
ENDBRANCH  11  13
ENDBRANCH   4   7
BRANCH   1  18
ATOM     17  C   UNL     1       2.999   4.367  20.547  0.00  0.00    +0.000 C 
ATOM     18  C   UNL     1       3.620   5.432  19.626  0.00  0.00    +0.000 C 
BRANCH  18  19
ATOM     19  C   UNL     1       4.024   4.814  18.266  0.00  0.00    +0.000 C 
BRANCH  19  20
ATOM     20  C   UNL     1       5.502   4.725  18.087  0.00  0.00    +0.000 A 
ATOM     21  N   UNL     1       6.406   4.664  19.041  0.00  0.00    +0.000 NA
ATOM     22  N   UNL     1       7.643   4.564  18.454  0.00  0.00    +0.000 NA
ATOM     23  C   UNL     1       7.471   4.577  17.152  0.00  0.00    +0.000 A 
ATOM     24  N   UNL     1       6.145   4.689  16.875  0.00  0.00    +0.000 N 
ATOM     25  C   UNL     1       5.551   4.757  15.568  0.00  0.00    +0.000 C 
ENDBRANCH  19  20
ENDBRANCH  18  19
ENDBRANCH   1  18
BRANCH   5  26
ATOM     26  C   UNL     1       0.527   8.999  21.391  0.00  0.00    +0.000 C 
ATOM     27  O   UNL     1       1.052   9.782  22.178  0.00  0.00    +0.000 OA
ENDBRANCH   5  26
TORSDOF 6
ENDMDL
MODEL 2
REMARK VINA RESULT:      -8.1      2.253      2.857
REMARK  Name = 
REMARK  9 active torsions:
REMARK  status: ('A' for Active; 'I' for Inactive)
REMARK    1  A    between atoms: C_1  and  C_2
REMARK    2  A    between atoms: C_2  and  C_3
REMARK    3  A    between atoms: C_2  and  C_10
REMARK    4  A    between atoms: C_3  and  C_4
REMARK    5  A    between atoms: N_8  and  C_9
REMARK    6  A    between atoms: C_13  and  C_14
REMARK    7  A    between atoms: C_18  and  C_19
REMARK    8  A    between atoms: C_19  and  C_20
REMARK    9  A    between atoms: C_24  and  C_25
REMARK                            x       y       z     vdW  Elec       q    Type
REMARK                         _______ _______ _______ _____ _____    ______ ____
ROOT
ATOM      1  C   UNL     1       2.549   6.911  19.468  0.00  0.00    +0.000 A 
ATOM      2  C   UNL     1       2.464   7.504  18.203  0.00  0.00    +0.000 A 
ATOM      3  C   UNL     1       1.787   8.713  18.010  0.00  0.00    +0.000 A 
ATOM      4  C   UNL     1       1.158   9.397  19.070  0.00  0.00    +0.000 A 
ATOM      5  C   UNL     1       1.222   8.784  20.338  0.00  0.00    +0.000 A 
ATOM      6  C   UNL     1       1.920   7.573  20.530  0.00  0.00    +0.000 A 
ENDROOT
BRANCH   4   7
ATOM      7  C   UNL     1       0.562  10.730  18.830  0.00  0.00    +0.000 A 
ATOM      8  C   UNL     1      -0.780  10.920  18.504  0.00  0.00    +0.000 A 
ATOM      9  C   UNL     1      -1.236  12.201  18.212  0.00  0.00    +0.000 A 
ATOM     10  C   UNL     1      -0.350  13.272  18.271  0.00  0.00    +0.000 A 
ATOM     11  C   UNL     1       0.976  13.030  18.610  0.00  0.00    +0.000 A 
ATOM     12  N   UNL     1       1.425  11.772  18.882  0.00  0.00    +0.000 NA
BRANCH  11  13
ATOM     13  C   UNL     1       1.939  14.203  18.753  0.00  0.00    +0.000 C 
ATOM     14  C   UNL     1       1.232  15.546  18.849  0.00  0.00    +0.000 C 
ATOM     15  F   UNL     1       2.732  14.085  19.865  0.00  0.00    +0.000 F 
ATOM     16  F   UNL     1       2.813  14.264  17.703  0.00  0.00    +0.000 F 
ENDBRANCH  11  13
ENDBRANCH   4   7
BRANCH   1  18
ATOM     17  C   UNL     1       2.510   4.449  20.209  0.00  0.00    +0.000 C 
ATOM     18  C   UNL     1       3.341   5.611  19.636  0.00  0.00    +0.000 C 
BRANCH  18  19
ATOM     19  C   UNL     1       4.006   5.204  18.299  0.00  0.00    +0.000 C 
BRANCH  19  20
ATOM     20  C   UNL     1       5.488   5.074  18.407  0.00  0.00    +0.000 A 
ATOM     21  N   UNL     1       6.215   5.248  19.489  0.00  0.00    +0.000 NA
ATOM     22  N   UNL     1       7.527   5.006  19.168  0.00  0.00    +0.000 NA
ATOM     23  C   UNL     1       7.578   4.699  17.893  0.00  0.00    +0.000 A 
ATOM     24  N   UNL     1       6.323   4.740  17.370  0.00  0.00    +0.000 N 
ATOM     25  C   UNL     1       5.962   4.484  16.003  0.00  0.00    +0.000 C 
ENDBRANCH  19  20
ENDBRANCH  18  19
ENDBRANCH   1  18
BRANCH   5  26
ATOM     26  C   UNL     1       0.529   9.343  21.526  0.00  0.00    +0.000 C 
ATOM     27  O   UNL     1       1.144   9.696  22.529  0.00  0.00    +0.000 OA
ENDBRANCH   5  26
TORSDOF 6
ENDMDL
MODEL 3
REMARK VINA RESULT:      -8.0      3.787      8.721
REMARK  Name = 
REMARK  9 active torsions:
REMARK  status: ('A' for Active; 'I' for Inactive)
REMARK    1  A    between atoms: C_1  and  C_2
REMARK    2  A    between atoms: C_2  and  C_3
REMARK    3  A    between atoms: C_2  and  C_10
REMARK    4  A    between atoms: C_3  and  C_4
REMARK    5  A    between atoms: N_8  and  C_9
REMARK    6  A    between atoms: C_13  and  C_14
REMARK    7  A    between atoms: C_18  and  C_19
REMARK    8  A    between atoms: C_19  and  C_20
REMARK    9  A    between atoms: C_24  and  C_25
REMARK                            x       y       z     vdW  Elec       q    Type
REMARK                         _______ _______ _______ _____ _____    ______ ____
ROOT
ATOM      1  C   UNL     1       1.015   8.927  19.729  0.00  0.00    +0.000 A 
ATOM      2  C   UNL     1       1.671   9.084  18.502  0.00  0.00    +0.000 A 
ATOM      3  C   UNL     1       2.527   8.097  18.004  0.00  0.00    +0.000 A 
ATOM      4  C   UNL     1       2.777   6.898  18.702  0.00  0.00    +0.000 A 
ATOM      5  C   UNL     1       2.137   6.754  19.949  0.00  0.00    +0.000 A 
ATOM      6  C   UNL     1       1.261   7.746  20.441  0.00  0.00    +0.000 A 
ENDROOT
BRANCH   4   7
ATOM      7  C   UNL     1       3.596   5.840  18.070  0.00  0.00    +0.000 A 
ATOM      8  C   UNL     1       3.054   4.684  17.513  0.00  0.00    +0.000 A 
ATOM      9  C   UNL     1       3.906   3.703  17.015  0.00  0.00    +0.000 A 
ATOM     10  C   UNL     1       5.281   3.903  17.064  0.00  0.00    +0.000 A 
ATOM     11  C   UNL     1       5.770   5.079  17.622  0.00  0.00    +0.000 A 
ATOM     12  N   UNL     1       4.936   6.033  18.122  0.00  0.00    +0.000 NA
BRANCH  11  13
ATOM     13  C   UNL     1       7.271   5.345  17.612  0.00  0.00    +0.000 C 
ATOM     14  C   UNL     1       7.789   5.885  18.937  0.00  0.00    +0.000 C 
ATOM     15  F   UNL     1       7.992   4.214  17.329  0.00  0.00    +0.000 F 
ATOM     16  F   UNL     1       7.616   6.236  16.634  0.00  0.00    +0.000 F 
ENDBRANCH  11  13
ENDBRANCH   4   7
BRANCH   1  18
ATOM     17  C   UNL     1       0.471  10.672  21.538  0.00  0.00    +0.000 C 
ATOM     18  C   UNL     1       0.051  10.015  20.211  0.00  0.00    +0.000 C 
BRANCH  18  19
ATOM     19  C   UNL     1      -0.155  11.083  19.110  0.00  0.00    +0.000 C 
BRANCH  19  20
ATOM     20  C   UNL     1      -1.478  10.966  18.431  0.00  0.00    +0.000 A 
ATOM     21  N   UNL     1      -1.759  10.224  17.382  0.00  0.00    +0.000 NA
ATOM     22  N   UNL     1      -3.092  10.379  17.091  0.00  0.00    +0.000 NA
ATOM     23  C   UNL     1      -3.596  11.222  17.963  0.00  0.00    +0.000 A 
ATOM     24  N   UNL     1      -2.618  11.626  18.816  0.00  0.00    +0.000 N 
ATOM     25  C   UNL     1      -2.765  12.560  19.899  0.00  0.00    +0.000 C 
ENDBRANCH  19  20
ENDBRANCH  18  19
ENDBRANCH   1  18
BRANCH   5  26
ATOM     26  C   UNL     1       2.377   5.587  20.835  0.00  0.00    +0.000 C 
ATOM     27  O   UNL     1       1.609   4.629  20.867  0.00  0.00    +0.000 OA
ENDBRANCH   5  26
TORSDOF 6
ENDMDL
MODEL 4
REMARK VINA RESULT:      -8.0      3.675      8.587
REMARK  Name = 
REMARK  9 active torsions:
REMARK  status: ('A' for Active; 'I' for Inactive)
REMARK    1  A    between atoms: C_1  and  C_2
REMARK    2  A    between atoms: C_2  and  C_3
REMARK    3  A    between atoms: C_2  and  C_10
REMARK    4  A    between atoms: C_3  and  C_4
REMARK    5  A    between atoms: N_8  and  C_9
REMARK    6  A    between atoms: C_13  and  C_14
REMARK    7  A    between atoms: C_18  and  C_19
REMARK    8  A    between atoms: C_19  and  C_20
REMARK    9  A    between atoms: C_24  and  C_25
REMARK                            x       y       z     vdW  Elec       q    Type
REMARK                         _______ _______ _______ _____ _____    ______ ____
ROOT
ATOM      1  C   UNL     1       1.197   9.249  19.405  0.00  0.00    +0.000 A 
ATOM      2  C   UNL     1       1.770   9.257  18.127  0.00  0.00    +0.000 A 
ATOM      3  C   UNL     1       2.499   8.162  17.651  0.00  0.00    +0.000 A 
ATOM      4  C   UNL     1       2.697   6.999  18.423  0.00  0.00    +0.000 A 
ATOM      5  C   UNL     1       2.143   7.005  19.718  0.00  0.00    +0.000 A 
ATOM      6  C   UNL     1       1.394   8.105  20.189  0.00  0.00    +0.000 A 
ENDROOT
BRANCH   4   7
ATOM      7  C   UNL     1       3.373   5.829  17.822  0.00  0.00    +0.000 A 
ATOM      8  C   UNL     1       2.749   4.596  17.637  0.00  0.00    +0.000 A 
ATOM      9  C   UNL     1       3.488   3.526  17.142  0.00  0.00    +0.000 A 
ATOM     10  C   UNL     1       4.828   3.710  16.821  0.00  0.00    +0.000 A 
ATOM     11  C   UNL     1       5.400   4.962  17.015  0.00  0.00    +0.000 A 
ATOM     12  N   UNL     1       4.681   6.006  17.514  0.00  0.00    +0.000 NA
BRANCH  11  13
ATOM     13  C   UNL     1       6.847   5.198  16.596  0.00  0.00    +0.000 C 
ATOM     14  C   UNL     1       7.099   4.890  15.128  0.00  0.00    +0.000 C 
ATOM     15  F   UNL     1       7.238   6.494  16.808  0.00  0.00    +0.000 F 
ATOM     16  F   UNL     1       7.713   4.443  17.337  0.00  0.00    +0.000 F 
ENDBRANCH  11  13
ENDBRANCH   4   7
BRANCH   1  18
ATOM     17  C   UNL     1       1.094  11.355  20.877  0.00  0.00    +0.000 C 
ATOM     18  C   UNL     1       0.368  10.452  19.864  0.00  0.00    +0.000 C 
BRANCH  18  19
ATOM     19  C   UNL     1      -0.117  11.273  18.644  0.00  0.00    +0.000 C 
BRANCH  19  20
ATOM     20  C   UNL     1      -1.454  10.837  18.148  0.00  0.00    +0.000 A 
ATOM     21  N   UNL     1      -1.691   9.935  17.221  0.00  0.00    +0.000 NA
ATOM     22  N   UNL     1      -3.051   9.809  17.082  0.00  0.00    +0.000 NA
ATOM     23  C   UNL     1      -3.618  10.645  17.921  0.00  0.00    +0.000 A 
ATOM     24  N   UNL     1      -2.655  11.320  18.603  0.00  0.00    +0.000 N 
ATOM     25  C   UNL     1      -2.870  12.336  19.597  0.00  0.00    +0.000 C 
ENDBRANCH  19  20
ENDBRANCH  18  19
ENDBRANCH   1  18
BRANCH   5  26
ATOM     26  C   UNL     1       2.348   5.888  20.675  0.00  0.00    +0.000 C 
ATOM     27  O   UNL     1       1.503   5.012  20.839  0.00  0.00    +0.000 OA
ENDBRANCH   5  26
TORSDOF 6
ENDMDL
MODEL 5
REMARK VINA RESULT:      -7.8      1.933      2.907
REMARK  Name = 
REMARK  9 active torsions:
REMARK  status: ('A' for Active; 'I' for Inactive)
REMARK    1  A    between atoms: C_1  and  C_2
REMARK    2  A    between atoms: C_2  and  C_3
REMARK    3  A    between atoms: C_2  and  C_10
REMARK    4  A    between atoms: C_3  and  C_4
REMARK    5  A    between atoms: N_8  and  C_9
REMARK    6  A    between atoms: C_13  and  C_14
REMARK    7  A    between atoms: C_18  and  C_19
REMARK    8  A    between atoms: C_19  and  C_20
REMARK    9  A    between atoms: C_24  and  C_25
REMARK                            x       y       z     vdW  Elec       q    Type
REMARK                         _______ _______ _______ _____ _____    ______ ____
ROOT
ATOM      1  C   UNL     1       2.706   5.149  18.892  0.00  0.00    +0.000 A 
ATOM      2  C   UNL     1       2.074   5.079  20.139  0.00  0.00    +0.000 A 
ATOM      3  C   UNL     1       1.563   6.223  20.761  0.00  0.00    +0.000 A 
ATOM      4  C   UNL     1       1.654   7.501  20.171  0.00  0.00    +0.000 A 
ATOM      5  C   UNL     1       2.315   7.572  18.929  0.00  0.00    +0.000 A 
ATOM      6  C   UNL     1       2.815   6.413  18.298  0.00  0.00    +0.000 A 
ENDROOT
BRANCH   4   7
ATOM      7  C   UNL     1       0.990   8.654  20.818  0.00  0.00    +0.000 A 
ATOM      8  C   UNL     1       1.090   8.929  22.180  0.00  0.00    +0.000 A 
ATOM      9  C   UNL     1       0.363   9.987  22.717  0.00  0.00    +0.000 A 
ATOM     10  C   UNL     1      -0.432  10.764  21.882  0.00  0.00    +0.000 A 
ATOM     11  C   UNL     1      -0.489  10.453  20.528  0.00  0.00    +0.000 A 
ATOM     12  N   UNL     1       0.211   9.408  20.005  0.00  0.00    +0.000 NA
BRANCH  11  13
ATOM     13  C   UNL     1      -1.296  11.342  19.589  0.00  0.00    +0.000 C 
ATOM     14  C   UNL     1      -2.194  12.326  20.325  0.00  0.00    +0.000 C 
ATOM     15  F   UNL     1      -0.491  12.077  18.758  0.00  0.00    +0.000 F 
ATOM     16  F   UNL     1      -2.084  10.603  18.752  0.00  0.00    +0.000 F 
ENDBRANCH  11  13
ENDBRANCH   4   7
BRANCH   1  18
ATOM     17  C   UNL     1       2.081   2.906  17.801  0.00  0.00    +0.000 C 
ATOM     18  C   UNL     1       3.208   3.861  18.231  0.00  0.00    +0.000 C 
BRANCH  18  19
ATOM     19  C   UNL     1       4.135   4.191  17.036  0.00  0.00    +0.000 C 
BRANCH  19  20
ATOM     20  C   UNL     1       5.564   4.336  17.436  0.00  0.00    +0.000 A 
ATOM     21  N   UNL     1       6.033   4.403  18.664  0.00  0.00    +0.000 NA
ATOM     22  N   UNL     1       7.400   4.505  18.596  0.00  0.00    +0.000 NA
ATOM     23  C   UNL     1       7.739   4.510  17.327  0.00  0.00    +0.000 A 
ATOM     24  N   UNL     1       6.619   4.418  16.562  0.00  0.00    +0.000 N 
ATOM     25  C   UNL     1       6.567   4.412  15.126  0.00  0.00    +0.000 C 
ENDBRANCH  19  20
ENDBRANCH  18  19
ENDBRANCH   1  18
BRANCH   5  26
ATOM     26  C   UNL     1       2.565   8.861  18.235  0.00  0.00    +0.000 C 
ATOM     27  O   UNL     1       1.959   9.177  17.216  0.00  0.00    +0.000 OA
ENDBRANCH   5  26
TORSDOF 6
ENDMDL
MODEL 6
REMARK VINA RESULT:      -7.8      2.507      3.184
REMARK  Name = 
REMARK  9 active torsions:
REMARK  status: ('A' for Active; 'I' for Inactive)
REMARK    1  A    between atoms: C_1  and  C_2
REMARK    2  A    between atoms: C_2  and  C_3
REMARK    3  A    between atoms: C_2  and  C_10
REMARK    4  A    between atoms: C_3  and  C_4
REMARK    5  A    between atoms: N_8  and  C_9
REMARK    6  A    between atoms: C_13  and  C_14
REMARK    7  A    between atoms: C_18  and  C_19
REMARK    8  A    between atoms: C_19  and  C_20
REMARK    9  A    between atoms: C_24  and  C_25
REMARK                            x       y       z     vdW  Elec       q    Type
REMARK                         _______ _______ _______ _____ _____    ______ ____
ROOT
ATOM      1  C   UNL     1       2.598   7.146  18.855  0.00  0.00    +0.000 A 
ATOM      2  C   UNL     1       2.508   7.958  17.719  0.00  0.00    +0.000 A 
ATOM      3  C   UNL     1       1.814   9.172  17.747  0.00  0.00    +0.000 A 
ATOM      4  C   UNL     1       1.172   9.643  18.910  0.00  0.00    +0.000 A 
ATOM      5  C   UNL     1       1.241   8.810  20.045  0.00  0.00    +0.000 A 
ATOM      6  C   UNL     1       1.956   7.594  20.017  0.00  0.00    +0.000 A 
ENDROOT
BRANCH   4   7
ATOM      7  C   UNL     1       0.557  10.989  18.913  0.00  0.00    +0.000 A 
ATOM      8  C   UNL     1      -0.814  11.203  18.789  0.00  0.00    +0.000 A 
ATOM      9  C   UNL     1      -1.297  12.506  18.716  0.00  0.00    +0.000 A 
ATOM     10  C   UNL     1      -0.405  13.571  18.791  0.00  0.00    +0.000 A 
ATOM     11  C   UNL     1       0.953  13.302  18.924  0.00  0.00    +0.000 A 
ATOM     12  N   UNL     1       1.426  12.026  18.980  0.00  0.00    +0.000 NA
BRANCH  11  13
ATOM     13  C   UNL     1       1.933  14.459  19.083  0.00  0.00    +0.000 C 
ATOM     14  C   UNL     1       3.360  14.087  18.708  0.00  0.00    +0.000 C 
ATOM     15  F   UNL     1       1.583  15.538  18.314  0.00  0.00    +0.000 F 
ATOM     16  F   UNL     1       1.947  14.931  20.366  0.00  0.00    +0.000 F 
ENDBRANCH  11  13
ENDBRANCH   4   7
BRANCH   1  18
ATOM     17  C   UNL     1       2.580   4.621  18.369  0.00  0.00    +0.000 C 
ATOM     18  C   UNL     1       3.409   5.847  18.789  0.00  0.00    +0.000 C 
BRANCH  18  19
ATOM     19  C   UNL     1       4.638   6.023  17.864  0.00  0.00    +0.000 C 
BRANCH  19  20
ATOM     20  C   UNL     1       5.932   5.863  18.588  0.00  0.00    +0.000 A 
ATOM     21  N   UNL     1       6.151   5.116  19.648  0.00  0.00    +0.000 NA
ATOM     22  N   UNL     1       7.478   5.226  19.984  0.00  0.00    +0.000 NA
ATOM     23  C   UNL     1       8.041   6.047  19.127  0.00  0.00    +0.000 A 
ATOM     24  N   UNL     1       7.107   6.481  18.240  0.00  0.00    +0.000 N 
ATOM     25  C   UNL     1       7.323   7.404  17.160  0.00  0.00    +0.000 C 
ENDBRANCH  19  20
ENDBRANCH  18  19
ENDBRANCH   1  18
BRANCH   5  26
ATOM     26  C   UNL     1       0.537   9.134  21.311  0.00  0.00    +0.000 C 
ATOM     27  O   UNL     1      -0.479   8.538  21.658  0.00  0.00    +0.000 OA
ENDBRANCH   5  26
TORSDOF 6
ENDMDL
MODEL 7
REMARK VINA RESULT:      -7.8      4.126      8.736
REMARK  Name = 
REMARK  9 active torsions:
REMARK  status: ('A' for Active; 'I' for Inactive)
REMARK    1  A    between atoms: C_1  and  C_2
REMARK    2  A    between atoms: C_2  and  C_3
REMARK    3  A    between atoms: C_2  and  C_10
REMARK    4  A    between atoms: C_3  and  C_4
REMARK    5  A    between atoms: N_8  and  C_9
REMARK    6  A    between atoms: C_13  and  C_14
REMARK    7  A    between atoms: C_18  and  C_19
REMARK    8  A    between atoms: C_19  and  C_20
REMARK    9  A    between atoms: C_24  and  C_25
REMARK                            x       y       z     vdW  Elec       q    Type
REMARK                         _______ _______ _______ _____ _____    ______ ____
ROOT
ATOM      1  C   UNL     1       1.260   9.500  19.159  0.00  0.00    +0.000 A 
ATOM      2  C   UNL     1       1.917   9.427  17.925  0.00  0.00    +0.000 A 
ATOM      3  C   UNL     1       2.634   8.286  17.549  0.00  0.00    +0.000 A 
ATOM      4  C   UNL     1       2.733   7.155  18.384  0.00  0.00    +0.000 A 
ATOM      5  C   UNL     1       2.094   7.241  19.636  0.00  0.00    +0.000 A 
ATOM      6  C   UNL     1       1.358   8.388  20.005  0.00  0.00    +0.000 A 
ENDROOT
BRANCH   4   7
ATOM      7  C   UNL     1       3.402   5.933  17.884  0.00  0.00    +0.000 A 
ATOM      8  C   UNL     1       2.728   4.740  17.631  0.00  0.00    +0.000 A 
ATOM      9  C   UNL     1       3.451   3.617  17.244  0.00  0.00    +0.000 A 
ATOM     10  C   UNL     1       4.830   3.710  17.094  0.00  0.00    +0.000 A 
ATOM     11  C   UNL     1       5.454   4.926  17.350  0.00  0.00    +0.000 A 
ATOM     12  N   UNL     1       4.747   6.022  17.744  0.00  0.00    +0.000 NA
BRANCH  11  13
ATOM     13  C   UNL     1       6.954   5.062  17.117  0.00  0.00    +0.000 C 
ATOM     14  C   UNL     1       7.455   6.490  17.272  0.00  0.00    +0.000 C 
ATOM     15  F   UNL     1       7.681   4.285  17.982  0.00  0.00    +0.000 F 
ATOM     16  F   UNL     1       7.310   4.628  15.870  0.00  0.00    +0.000 F 
ENDBRANCH  11  13
ENDBRANCH   4   7
BRANCH   1  18
ATOM     17  C   UNL     1      -1.074  10.540  19.450  0.00  0.00    +0.000 C 
ATOM     18  C   UNL     1       0.449  10.753  19.505  0.00  0.00    +0.000 C 
BRANCH  18  19
ATOM     19  C   UNL     1       0.876  11.311  20.884  0.00  0.00    +0.000 C 
BRANCH  19  20
ATOM     20  C   UNL     1      -0.285  11.694  21.737  0.00  0.00    +0.000 A 
ATOM     21  N   UNL     1      -0.969  12.817  21.674  0.00  0.00    +0.000 NA
ATOM     22  N   UNL     1      -1.971  12.761  22.611  0.00  0.00    +0.000 NA
ATOM     23  C   UNL     1      -1.874  11.610  23.235  0.00  0.00    +0.000 A 
ATOM     24  N   UNL     1      -0.823  10.912  22.729  0.00  0.00    +0.000 N 
ATOM     25  C   UNL     1      -0.376   9.616  23.159  0.00  0.00    +0.000 C 
ENDBRANCH  19  20
ENDBRANCH  18  19
ENDBRANCH   1  18
BRANCH   5  26
ATOM     26  C   UNL     1       2.190   6.164  20.654  0.00  0.00    +0.000 C 
ATOM     27  O   UNL     1       1.345   5.278  20.742  0.00  0.00    +0.000 OA
ENDBRANCH   5  26
TORSDOF 6
ENDMDL
MODEL 8
REMARK VINA RESULT:      -7.8      2.226      3.753
REMARK  Name = 
REMARK  9 active torsions:
REMARK  status: ('A' for Active; 'I' for Inactive)
REMARK    1  A    between atoms: C_1  and  C_2
REMARK    2  A    between atoms: C_2  and  C_3
REMARK    3  A    between atoms: C_2  and  C_10
REMARK    4  A    between atoms: C_3  and  C_4
REMARK    5  A    between atoms: N_8  and  C_9
REMARK    6  A    between atoms: C_13  and  C_14
REMARK    7  A    between atoms: C_18  and  C_19
REMARK    8  A    between atoms: C_19  and  C_20
REMARK    9  A    between atoms: C_24  and  C_25
REMARK                            x       y       z     vdW  Elec       q    Type
REMARK                         _______ _______ _______ _____ _____    ______ ____
ROOT
ATOM      1  C   UNL     1       4.539   5.455  16.870  0.00  0.00    +0.000 A 
ATOM      2  C   UNL     1       4.434   6.844  16.735  0.00  0.00    +0.000 A 
ATOM      3  C   UNL     1       3.567   7.590  17.539  0.00  0.00    +0.000 A 
ATOM      4  C   UNL     1       2.756   6.991  18.524  0.00  0.00    +0.000 A 
ATOM      5  C   UNL     1       2.843   5.589  18.640  0.00  0.00    +0.000 A 
ATOM      6  C   UNL     1       3.731   4.842  17.837  0.00  0.00    +0.000 A 
ENDROOT
BRANCH   4   7
ATOM      7  C   UNL     1       1.949   7.842  19.425  0.00  0.00    +0.000 A 
ATOM      8  C   UNL     1       1.803   7.591  20.789  0.00  0.00    +0.000 A 
ATOM      9  C   UNL     1       0.956   8.396  21.543  0.00  0.00    +0.000 A 
ATOM     10  C   UNL     1       0.287   9.450  20.930  0.00  0.00    +0.000 A 
ATOM     11  C   UNL     1       0.474   9.663  19.568  0.00  0.00    +0.000 A 
ATOM     12  N   UNL     1       1.292   8.865  18.827  0.00  0.00    +0.000 NA
BRANCH  11  13
ATOM     13  C   UNL     1      -0.192  10.860  18.899  0.00  0.00    +0.000 C 
ATOM     14  C   UNL     1      -1.236  10.460  17.867  0.00  0.00    +0.000 C 
ATOM     15  F   UNL     1      -0.817  11.674  19.808  0.00  0.00    +0.000 F 
ATOM     16  F   UNL     1       0.724  11.662  18.279  0.00  0.00    +0.000 F 
ENDBRANCH  11  13
ENDBRANCH   4   7
BRANCH   1  18
ATOM     17  C   UNL     1       5.092   4.537  14.533  0.00  0.00    +0.000 C 
ATOM     18  C   UNL     1       5.537   4.688  15.998  0.00  0.00    +0.000 C 
BRANCH  18  19
ATOM     19  C   UNL     1       6.940   5.337  16.081  0.00  0.00    +0.000 C 
BRANCH  19  20
ATOM     20  C   UNL     1       7.419   5.499  17.485  0.00  0.00    +0.000 A 
ATOM     21  N   UNL     1       7.598   4.541  18.368  0.00  0.00    +0.000 NA
ATOM     22  N   UNL     1       8.074   5.108  19.525  0.00  0.00    +0.000 NA
ATOM     23  C   UNL     1       8.166   6.403  19.328  0.00  0.00    +0.000 A 
ATOM     24  N   UNL     1       7.755   6.696  18.066  0.00  0.00    +0.000 N 
ATOM     25  C   UNL     1       7.689   8.004  17.475  0.00  0.00    +0.000 C 
ENDBRANCH  19  20
ENDBRANCH  18  19
ENDBRANCH   1  18
BRANCH   5  26
ATOM     26  C   UNL     1       1.983   4.814  19.570  0.00  0.00    +0.000 C 
ATOM     27  O   UNL     1       1.175   3.983  19.166  0.00  0.00    +0.000 OA
ENDBRANCH   5  26
TORSDOF 6
ENDMDL
MODEL 9
REMARK VINA RESULT:      -7.7      4.104      8.711
REMARK  Name = 
REMARK  9 active torsions:
REMARK  status: ('A' for Active; 'I' for Inactive)
REMARK    1  A    between atoms: C_1  and  C_2
REMARK    2  A    between atoms: C_2  and  C_3
REMARK    3  A    between atoms: C_2  and  C_10
REMARK    4  A    between atoms: C_3  and  C_4
REMARK    5  A    between atoms: N_8  and  C_9
REMARK    6  A    between atoms: C_13  and  C_14
REMARK    7  A    between atoms: C_18  and  C_19
REMARK    8  A    between atoms: C_19  and  C_20
REMARK    9  A    between atoms: C_24  and  C_25
REMARK                            x       y       z     vdW  Elec       q    Type
REMARK                         _______ _______ _______ _____ _____    ______ ____
ROOT
ATOM      1  C   UNL     1       1.203   9.572  18.922  0.00  0.00    +0.000 A 
ATOM      2  C   UNL     1       1.973   9.491  17.755  0.00  0.00    +0.000 A 
ATOM      3  C   UNL     1       2.778   8.377  17.491  0.00  0.00    +0.000 A 
ATOM      4  C   UNL     1       2.858   7.283  18.377  0.00  0.00    +0.000 A 
ATOM      5  C   UNL     1       2.104   7.379  19.563  0.00  0.00    +0.000 A 
ATOM      6  C   UNL     1       1.281   8.497  19.817  0.00  0.00    +0.000 A 
ENDROOT
BRANCH   4   7
ATOM      7  C   UNL     1       3.631   6.083  17.988  0.00  0.00    +0.000 A 
ATOM      8  C   UNL     1       3.038   4.869  17.646  0.00  0.00    +0.000 A 
ATOM      9  C   UNL     1       3.845   3.768  17.376  0.00  0.00    +0.000 A 
ATOM     10  C   UNL     1       5.228   3.904  17.431  0.00  0.00    +0.000 A 
ATOM     11  C   UNL     1       5.770   5.140  17.768  0.00  0.00    +0.000 A 
ATOM     12  N   UNL     1       4.979   6.213  18.047  0.00  0.00    +0.000 NA
BRANCH  11  13
ATOM     13  C   UNL     1       7.283   5.322  17.758  0.00  0.00    +0.000 C 
ATOM     14  C   UNL     1       7.844   5.724  19.114  0.00  0.00    +0.000 C 
ATOM     15  F   UNL     1       7.936   4.180  17.375  0.00  0.00    +0.000 F 
ATOM     16  F   UNL     1       7.668   6.269  16.849  0.00  0.00    +0.000 F 
ENDBRANCH  11  13
ENDBRANCH   4   7
BRANCH   1  18
ATOM     17  C   UNL     1      -1.185  10.437  19.318  0.00  0.00    +0.000 C 
ATOM     18  C   UNL     1       0.302  10.790  19.144  0.00  0.00    +0.000 C 
BRANCH  18  19
ATOM     19  C   UNL     1       0.811  11.630  20.339  0.00  0.00    +0.000 C 
BRANCH  19  20
ATOM     20  C   UNL     1      -0.040  11.480  21.555  0.00  0.00    +0.000 A 
ATOM     21  N   UNL     1       0.011  10.502  22.433  0.00  0.00    +0.000 NA
ATOM     22  N   UNL     1      -0.918  10.756  23.412  0.00  0.00    +0.000 NA
ATOM     23  C   UNL     1      -1.525  11.879  23.107  0.00  0.00    +0.000 A 
ATOM     24  N   UNL     1      -1.016  12.364  21.943  0.00  0.00    +0.000 N 
ATOM     25  C   UNL     1      -1.429  13.563  21.267  0.00  0.00    +0.000 C 
ENDBRANCH  19  20
ENDBRANCH  18  19
ENDBRANCH   1  18
BRANCH   5  26
ATOM     26  C   UNL     1       2.161   6.346  20.627  0.00  0.00    +0.000 C 
ATOM     27  O   UNL     1       1.367   5.410  20.666  0.00  0.00    +0.000 OA
ENDBRANCH   5  26
TORSDOF 6
ENDMDL
