MODEL 1
REMARK VINA RESULT:      -8.8      0.000      0.000
REMARK  Name = 
REMARK  4 active torsions:
REMARK  status: ('A' for Active; 'I' for Inactive)
REMARK    1  A    between atoms: C_2  and  C_3
REMARK    2  A    between atoms: C_3  and  C_4
REMARK    3  A    between atoms: C_4  and  N_5
REMARK    4  A    between atoms: N_17  and  C_18
REMARK                            x       y       z     vdW  Elec       q    Type
REMARK                         _______ _______ _______ _____ _____    ______ ____
ROOT
ATOM      1  C   UNL     1       2.222   9.670  18.097  0.00  0.00    +0.000 C 
ENDROOT
BRANCH   1   3
ATOM      2  O   UNL     1       0.667   9.348  19.889  0.00  0.00    +0.000 OA
ATOM      3  C   UNL     1       0.943   9.958  18.858  0.00  0.00    +0.000 C 
ATOM      4  N   UNL     1       0.172  10.948  18.280  0.00  0.00    +0.000 N 
ATOM      5  H   UNL     1       0.383  11.251  17.330  0.00  0.00    +0.000 HD
BRANCH   4   6
ATOM      6  C   UNL     1      -1.046  11.482  18.787  0.00  0.00    +0.000 A 
ATOM      7  C   UNL     1      -1.121  12.122  20.033  0.00  0.00    +0.000 A 
ATOM      8  C   UNL     1      -2.339  12.585  20.521  0.00  0.00    +0.000 A 
ATOM      9  C   UNL     1      -3.491  12.419  19.764  0.00  0.00    +0.000 A 
ATOM     10  C   UNL     1      -3.423  11.817  18.499  0.00  0.00    +0.000 A 
ATOM     11  C   UNL     1      -4.580  11.664  17.723  0.00  0.00    +0.000 A 
ATOM     12  C   UNL     1      -4.495  11.082  16.466  0.00  0.00    +0.000 A 
ATOM     13  C   UNL     1      -3.251  10.668  16.029  0.00  0.00    +0.000 A 
ATOM     14  N   UNL     1      -2.113  10.781  16.754  0.00  0.00    +0.000 NA
ATOM     15  C   UNL     1      -2.192  11.351  17.982  0.00  0.00    +0.000 A 
ENDBRANCH   4   6
ENDBRANCH   1   3
BRANCH   1  16
ATOM     16  C   UNL     1       2.282   8.184  17.751  0.00  0.00    +0.000 C 
BRANCH  16  17
ATOM     17  N   UNL     1       2.369   7.341  18.943  0.00  0.00    +0.000 N 
ATOM     18  C   UNL     1       3.151   6.209  18.950  0.00  0.00    +0.000 C 
ATOM     19  N   UNL     1       4.216   6.063  18.213  0.00  0.00    +0.000 NA
ATOM     20  S   UNL     1       4.897   4.590  18.443  0.00  0.00    +0.000 S 
ATOM     21  O   UNL     1       6.150   4.721  19.155  0.00  0.00    +0.000 OA
ATOM     22  O   UNL     1       4.756   3.779  17.254  0.00  0.00    +0.000 OA
ATOM     23  C   UNL     1       3.716   4.027  19.586  0.00  0.00    +0.000 A 
ATOM     24  C   UNL     1       3.628   2.783  20.179  0.00  0.00    +0.000 A 
ATOM     25  C   UNL     1       2.553   2.572  21.042  0.00  0.00    +0.000 A 
ATOM     26  C   UNL     1       1.617   3.597  21.284  0.00  0.00    +0.000 A 
ATOM     27  C   UNL     1       1.736   4.847  20.660  0.00  0.00    +0.000 A 
ATOM     28  C   UNL     1       2.803   5.041  19.798  0.00  0.00    +0.000 A 
ATOM     29  H   UNL     1       1.491   7.294  19.447  0.00  0.00    +0.000 HD
ENDBRANCH  16  17
ENDBRANCH   1  16
TORSDOF 4
ENDMDL
MODEL 2
REMARK VINA RESULT:      -8.6      3.282      5.349
REMARK  Name = 
REMARK  4 active torsions:
REMARK  status: ('A' for Active; 'I' for Inactive)
REMARK    1  A    between atoms: C_2  and  C_3
REMARK    2  A    between atoms: C_3  and  C_4
REMARK    3  A    between atoms: C_4  and  N_5
REMARK    4  A    between atoms: N_17  and  C_18
REMARK                            x       y       z     vdW  Elec       q    Type
REMARK                         _______ _______ _______ _____ _____    ______ ____
ROOT
ATOM      1  C   UNL     1       2.271   4.187  19.988  0.00  0.00    +0.000 C 
ENDROOT
BRANCH   1   3
ATOM      2  O   UNL     1       1.946   5.411  17.955  0.00  0.00    +0.000 OA
ATOM      3  C   UNL     1       2.074   5.453  19.177  0.00  0.00    +0.000 C 
ATOM      4  N   UNL     1       2.049   6.599  19.948  0.00  0.00    +0.000 N 
ATOM      5  H   UNL     1       2.361   6.553  20.918  0.00  0.00    +0.000 HD
BRANCH   4   6
ATOM      6  C   UNL     1       1.821   7.927  19.490  0.00  0.00    +0.000 A 
ATOM      7  C   UNL     1       2.288   8.381  18.248  0.00  0.00    +0.000 A 
ATOM      8  C   UNL     1       2.092   9.701  17.854  0.00  0.00    +0.000 A 
ATOM      9  C   UNL     1       1.422  10.578  18.697  0.00  0.00    +0.000 A 
ATOM     10  C   UNL     1       0.914  10.127  19.925  0.00  0.00    +0.000 A 
ATOM     11  C   UNL     1       0.221  11.002  20.771  0.00  0.00    +0.000 A 
ATOM     12  C   UNL     1      -0.291  10.538  21.974  0.00  0.00    +0.000 A 
ATOM     13  C   UNL     1      -0.086   9.209  22.294  0.00  0.00    +0.000 A 
ATOM     14  N   UNL     1       0.594   8.335  21.513  0.00  0.00    +0.000 NA
ATOM     15  C   UNL     1       1.093   8.785  20.336  0.00  0.00    +0.000 A 
ENDBRANCH   4   6
ENDBRANCH   1   3
BRANCH   1  16
ATOM     16  C   UNL     1       3.752   3.818  19.999  0.00  0.00    +0.000 C 
BRANCH  16  17
ATOM     17  N   UNL     1       4.241   3.449  18.671  0.00  0.00    +0.000 N 
ATOM     18  C   UNL     1       5.414   3.974  18.180  0.00  0.00    +0.000 C 
ATOM     19  N   UNL     1       6.402   4.360  18.936  0.00  0.00    +0.000 NA
ATOM     20  S   UNL     1       7.635   4.960  18.037  0.00  0.00    +0.000 S 
ATOM     21  O   UNL     1       8.765   4.057  18.066  0.00  0.00    +0.000 OA
ATOM     22  O   UNL     1       7.768   6.385  18.252  0.00  0.00    +0.000 OA
ATOM     23  C   UNL     1       6.851   4.749  16.502  0.00  0.00    +0.000 A 
ATOM     24  C   UNL     1       7.309   5.117  15.252  0.00  0.00    +0.000 A 
ATOM     25  C   UNL     1       6.463   4.865  14.173  0.00  0.00    +0.000 A 
ATOM     26  C   UNL     1       5.207   4.260  14.373  0.00  0.00    +0.000 A 
ATOM     27  C   UNL     1       4.773   3.903  15.658  0.00  0.00    +0.000 A 
ATOM     28  C   UNL     1       5.618   4.166  16.723  0.00  0.00    +0.000 A 
ATOM     29  H   UNL     1       3.487   3.312  18.007  0.00  0.00    +0.000 HD
ENDBRANCH  16  17
ENDBRANCH   1  16
TORSDOF 4
ENDMDL
MODEL 3
REMARK VINA RESULT:      -8.5      0.828      2.104
REMARK  Name = 
REMARK  4 active torsions:
REMARK  status: ('A' for Active; 'I' for Inactive)
REMARK    1  A    between atoms: C_2  and  C_3
REMARK    2  A    between atoms: C_3  and  C_4
REMARK    3  A    between atoms: C_4  and  N_5
REMARK    4  A    between atoms: N_17  and  C_18
REMARK                            x       y       z     vdW  Elec       q    Type
REMARK                         _______ _______ _______ _____ _____    ______ ____
ROOT
ATOM      1  C   UNL     1       2.245   9.669  18.151  0.00  0.00    +0.000 C 
ENDROOT
BRANCH   1   3
ATOM      2  O   UNL     1       0.517   9.254  19.756  0.00  0.00    +0.000 OA
ATOM      3  C   UNL     1       0.819   9.728  18.663  0.00  0.00    +0.000 C 
ATOM      4  N   UNL     1      -0.050  10.359  17.794  0.00  0.00    +0.000 N 
ATOM      5  H   UNL     1       0.248  10.538  16.836  0.00  0.00    +0.000 HD
BRANCH   4   6
ATOM      6  C   UNL     1      -1.431  10.624  18.016  0.00  0.00    +0.000 A 
ATOM      7  C   UNL     1      -2.444   9.925  17.345  0.00  0.00    +0.000 A 
ATOM      8  C   UNL     1      -3.783  10.247  17.547  0.00  0.00    +0.000 A 
ATOM      9  C   UNL     1      -4.119  11.267  18.428  0.00  0.00    +0.000 A 
ATOM     10  C   UNL     1      -3.117  11.946  19.136  0.00  0.00    +0.000 A 
ATOM     11  C   UNL     1      -3.453  12.963  20.040  0.00  0.00    +0.000 A 
ATOM     12  C   UNL     1      -2.452  13.616  20.746  0.00  0.00    +0.000 A 
ATOM     13  C   UNL     1      -1.144  13.231  20.519  0.00  0.00    +0.000 A 
ATOM     14  N   UNL     1      -0.777  12.266  19.642  0.00  0.00    +0.000 NA
ATOM     15  C   UNL     1      -1.752  11.625  18.952  0.00  0.00    +0.000 A 
ENDBRANCH   4   6
ENDBRANCH   1   3
BRANCH   1  16
ATOM     16  C   UNL     1       2.595   8.226  17.794  0.00  0.00    +0.000 C 
BRANCH  16  17
ATOM     17  N   UNL     1       2.513   7.335  18.950  0.00  0.00    +0.000 N 
ATOM     18  C   UNL     1       3.199   6.142  18.971  0.00  0.00    +0.000 C 
ATOM     19  N   UNL     1       4.308   5.937  18.318  0.00  0.00    +0.000 NA
ATOM     20  S   UNL     1       4.849   4.405  18.536  0.00  0.00    +0.000 S 
ATOM     21  O   UNL     1       6.043   4.405  19.354  0.00  0.00    +0.000 OA
ATOM     22  O   UNL     1       4.746   3.654  17.304  0.00  0.00    +0.000 OA
ATOM     23  C   UNL     1       3.534   3.899  19.552  0.00  0.00    +0.000 A 
ATOM     24  C   UNL     1       3.297   2.644  20.079  0.00  0.00    +0.000 A 
ATOM     25  C   UNL     1       2.140   2.491  20.842  0.00  0.00    +0.000 A 
ATOM     26  C   UNL     1       1.271   3.579  21.052  0.00  0.00    +0.000 A 
ATOM     27  C   UNL     1       1.541   4.838  20.496  0.00  0.00    +0.000 A 
ATOM     28  C   UNL     1       2.689   4.976  19.734  0.00  0.00    +0.000 A 
ATOM     29  H   UNL     1       1.594   7.341  19.378  0.00  0.00    +0.000 HD
ENDBRANCH  16  17
ENDBRANCH   1  16
TORSDOF 4
ENDMDL
MODEL 4
REMARK VINA RESULT:      -8.3      2.452      2.814
REMARK  Name = 
REMARK  4 active torsions:
REMARK  status: ('A' for Active; 'I' for Inactive)
REMARK    1  A    between atoms: C_2  and  C_3
REMARK    2  A    between atoms: C_3  and  C_4
REMARK    3  A    between atoms: C_4  and  N_5
REMARK    4  A    between atoms: N_17  and  C_18
REMARK                            x       y       z     vdW  Elec       q    Type
REMARK                         _______ _______ _______ _____ _____    ______ ____
ROOT
ATOM      1  C   UNL     1       2.168   9.750  17.947  0.00  0.00    +0.000 C 
ENDROOT
BRANCH   1   3
ATOM      2  O   UNL     1      -0.149   9.510  18.503  0.00  0.00    +0.000 OA
ATOM      3  C   UNL     1       0.960   9.912  18.849  0.00  0.00    +0.000 C 
ATOM      4  N   UNL     1       1.251  10.529  20.050  0.00  0.00    +0.000 N 
ATOM      5  H   UNL     1       2.147  11.002  20.162  0.00  0.00    +0.000 HD
BRANCH   4   6
ATOM      6  C   UNL     1       0.348  10.767  21.124  0.00  0.00    +0.000 A 
ATOM      7  C   UNL     1       0.157   9.841  22.160  0.00  0.00    +0.000 A 
ATOM      8  C   UNL     1      -0.774  10.083  23.166  0.00  0.00    +0.000 A 
ATOM      9  C   UNL     1      -1.516  11.256  23.149  0.00  0.00    +0.000 A 
ATOM     10  C   UNL     1      -1.304  12.209  22.142  0.00  0.00    +0.000 A 
ATOM     11  C   UNL     1      -2.037  13.404  22.131  0.00  0.00    +0.000 A 
ATOM     12  C   UNL     1      -1.806  14.346  21.138  0.00  0.00    +0.000 A 
ATOM     13  C   UNL     1      -0.849  14.056  20.183  0.00  0.00    +0.000 A 
ATOM     14  N   UNL     1      -0.133  12.907  20.148  0.00  0.00    +0.000 NA
ATOM     15  C   UNL     1      -0.355  11.986  21.118  0.00  0.00    +0.000 A 
ENDBRANCH   4   6
ENDBRANCH   1   3
BRANCH   1  16
ATOM     16  C   UNL     1       2.363   8.271  17.622  0.00  0.00    +0.000 C 
BRANCH  16  17
ATOM     17  N   UNL     1       2.354   7.435  18.821  0.00  0.00    +0.000 N 
ATOM     18  C   UNL     1       3.120   6.294  18.891  0.00  0.00    +0.000 C 
ATOM     19  N   UNL     1       4.233   6.132  18.234  0.00  0.00    +0.000 NA
ATOM     20  S   UNL     1       4.880   4.653  18.520  0.00  0.00    +0.000 S 
ATOM     21  O   UNL     1       6.079   4.774  19.321  0.00  0.00    +0.000 OA
ATOM     22  O   UNL     1       4.816   3.836  17.328  0.00  0.00    +0.000 OA
ATOM     23  C   UNL     1       3.613   4.110  19.577  0.00  0.00    +0.000 A 
ATOM     24  C   UNL     1       3.468   2.870  20.169  0.00  0.00    +0.000 A 
ATOM     25  C   UNL     1       2.331   2.677  20.953  0.00  0.00    +0.000 A 
ATOM     26  C   UNL     1       1.392   3.713  21.121  0.00  0.00    +0.000 A 
ATOM     27  C   UNL     1       1.570   4.958  20.501  0.00  0.00    +0.000 A 
ATOM     28  C   UNL     1       2.698   5.135  19.718  0.00  0.00    +0.000 A 
ATOM     29  H   UNL     1       1.440   7.400  19.261  0.00  0.00    +0.000 HD
ENDBRANCH  16  17
ENDBRANCH   1  16
TORSDOF 4
ENDMDL
MODEL 5
REMARK VINA RESULT:      -8.2      2.041      3.169
REMARK  Name = 
REMARK  4 active torsions:
REMARK  status: ('A' for Active; 'I' for Inactive)
REMARK    1  A    between atoms: C_2  and  C_3
REMARK    2  A    between atoms: C_3  and  C_4
REMARK    3  A    between atoms: C_4  and  N_5
REMARK    4  A    between atoms: N_17  and  C_18
REMARK                            x       y       z     vdW  Elec       q    Type
REMARK                         _______ _______ _______ _____ _____    ______ ____
ROOT
ATOM      1  C   UNL     1       1.230   8.968  17.716  0.00  0.00    +0.000 C 
ENDROOT
BRANCH   1   3
ATOM      2  O   UNL     1       1.028   9.847  19.935  0.00  0.00    +0.000 OA
ATOM      3  C   UNL     1       0.858  10.031  18.731  0.00  0.00    +0.000 C 
ATOM      4  N   UNL     1       0.340  11.178  18.160  0.00  0.00    +0.000 N 
ATOM      5  H   UNL     1       0.054  11.160  17.182  0.00  0.00    +0.000 HD
BRANCH   4   6
ATOM      6  C   UNL     1      -0.042  12.368  18.840  0.00  0.00    +0.000 A 
ATOM      7  C   UNL     1      -1.248  12.472  19.548  0.00  0.00    +0.000 A 
ATOM      8  C   UNL     1      -1.614  13.668  20.156  0.00  0.00    +0.000 A 
ATOM      9  C   UNL     1      -0.773  14.770  20.068  0.00  0.00    +0.000 A 
ATOM     10  C   UNL     1       0.455  14.668  19.398  0.00  0.00    +0.000 A 
ATOM     11  C   UNL     1       1.315  15.772  19.322  0.00  0.00    +0.000 A 
ATOM     12  C   UNL     1       2.535  15.652  18.671  0.00  0.00    +0.000 A 
ATOM     13  C   UNL     1       2.850  14.429  18.110  0.00  0.00    +0.000 A 
ATOM     14  N   UNL     1       2.039  13.344  18.146  0.00  0.00    +0.000 NA
ATOM     15  C   UNL     1       0.848  13.457  18.783  0.00  0.00    +0.000 A 
ENDBRANCH   4   6
ENDBRANCH   1   3
BRANCH   1  16
ATOM     16  C   UNL     1       2.581   8.362  18.089  0.00  0.00    +0.000 C 
BRANCH  16  17
ATOM     17  N   UNL     1       2.464   7.356  19.143  0.00  0.00    +0.000 N 
ATOM     18  C   UNL     1       3.111   6.146  19.039  0.00  0.00    +0.000 C 
ATOM     19  N   UNL     1       4.217   5.976  18.371  0.00  0.00    +0.000 NA
ATOM     20  S   UNL     1       4.707   4.412  18.427  0.00  0.00    +0.000 S 
ATOM     21  O   UNL     1       5.895   4.287  19.242  0.00  0.00    +0.000 OA
ATOM     22  O   UNL     1       4.587   3.800  17.121  0.00  0.00    +0.000 OA
ATOM     23  C   UNL     1       3.370   3.844  19.380  0.00  0.00    +0.000 A 
ATOM     24  C   UNL     1       3.091   2.549  19.770  0.00  0.00    +0.000 A 
ATOM     25  C   UNL     1       1.924   2.353  20.509  0.00  0.00    +0.000 A 
ATOM     26  C   UNL     1       1.090   3.440  20.831  0.00  0.00    +0.000 A 
ATOM     27  C   UNL     1       1.403   4.741  20.413  0.00  0.00    +0.000 A 
ATOM     28  C   UNL     1       2.559   4.923  19.673  0.00  0.00    +0.000 A 
ATOM     29  H   UNL     1       1.542   7.347  19.568  0.00  0.00    +0.000 HD
ENDBRANCH  16  17
ENDBRANCH   1  16
TORSDOF 4
ENDMDL
MODEL 6
REMARK VINA RESULT:      -8.2      6.925     10.311
REMARK  Name = 
REMARK  4 active torsions:
REMARK  status: ('A' for Active; 'I' for Inactive)
REMARK    1  A    between atoms: C_2  and  C_3
REMARK    2  A    between atoms: C_3  and  C_4
REMARK    3  A    between atoms: C_4  and  N_5
REMARK    4  A    between atoms: N_17  and  C_18
REMARK                            x       y       z     vdW  Elec       q    Type
REMARK                         _______ _______ _______ _____ _____    ______ ____
ROOT
ATOM      1  C   UNL     1       8.085   9.317  17.718  0.00  0.00    +0.000 C 
ENDROOT
BRANCH   1   3
ATOM      2  O   UNL     1       8.226   7.100  18.613  0.00  0.00    +0.000 OA
ATOM      3  C   UNL     1       7.722   7.846  17.776  0.00  0.00    +0.000 C 
ATOM      4  N   UNL     1       6.795   7.472  16.822  0.00  0.00    +0.000 N 
ATOM      5  H   UNL     1       6.590   8.108  16.052  0.00  0.00    +0.000 HD
BRANCH   4   6
ATOM      6  C   UNL     1       6.213   6.183  16.661  0.00  0.00    +0.000 A 
ATOM      7  C   UNL     1       6.880   5.137  16.009  0.00  0.00    +0.000 A 
ATOM      8  C   UNL     1       6.260   3.905  15.823  0.00  0.00    +0.000 A 
ATOM      9  C   UNL     1       4.969   3.707  16.295  0.00  0.00    +0.000 A 
ATOM     10  C   UNL     1       4.306   4.732  16.986  0.00  0.00    +0.000 A 
ATOM     11  C   UNL     1       3.011   4.531  17.481  0.00  0.00    +0.000 A 
ATOM     12  C   UNL     1       2.373   5.548  18.177  0.00  0.00    +0.000 A 
ATOM     13  C   UNL     1       3.054   6.738  18.350  0.00  0.00    +0.000 A 
ATOM     14  N   UNL     1       4.299   6.979  17.872  0.00  0.00    +0.000 NA
ATOM     15  C   UNL     1       4.926   5.986  17.194  0.00  0.00    +0.000 A 
ENDBRANCH   4   6
ENDBRANCH   1   3
BRANCH   1  16
ATOM     16  C   UNL     1       9.045   9.647  18.859  0.00  0.00    +0.000 C 
BRANCH  16  17
ATOM     17  N   UNL     1       8.698  10.899  19.530  0.00  0.00    +0.000 N 
ATOM     18  C   UNL     1       9.440  12.039  19.323  0.00  0.00    +0.000 C 
ATOM     19  N   UNL     1      10.100  12.280  18.226  0.00  0.00    +0.000 NA
ATOM     20  S   UNL     1      10.897  13.710  18.317  0.00  0.00    +0.000 S 
ATOM     21  O   UNL     1      10.283  14.685  17.443  0.00  0.00    +0.000 OA
ATOM     22  O   UNL     1      12.326  13.488  18.359  0.00  0.00    +0.000 OA
ATOM     23  C   UNL     1      10.394  14.088  19.937  0.00  0.00    +0.000 A 
ATOM     24  C   UNL     1      10.761  15.169  20.714  0.00  0.00    +0.000 A 
ATOM     25  C   UNL     1      10.239  15.221  22.006  0.00  0.00    +0.000 A 
ATOM     26  C   UNL     1       9.378  14.208  22.471  0.00  0.00    +0.000 A 
ATOM     27  C   UNL     1       9.030  13.122  21.656  0.00  0.00    +0.000 A 
ATOM     28  C   UNL     1       9.562  13.077  20.377  0.00  0.00    +0.000 A 
ATOM     29  H   UNL     1       8.341  10.748  20.467  0.00  0.00    +0.000 HD
ENDBRANCH  16  17
ENDBRANCH   1  16
TORSDOF 4
ENDMDL
MODEL 7
REMARK VINA RESULT:      -8.2      1.791      1.956
REMARK  Name = 
REMARK  4 active torsions:
REMARK  status: ('A' for Active; 'I' for Inactive)
REMARK    1  A    between atoms: C_2  and  C_3
REMARK    2  A    between atoms: C_3  and  C_4
REMARK    3  A    between atoms: C_4  and  N_5
REMARK    4  A    between atoms: N_17  and  C_18
REMARK                            x       y       z     vdW  Elec       q    Type
REMARK                         _______ _______ _______ _____ _____    ______ ____
ROOT
ATOM      1  C   UNL     1       1.520   8.488  21.721  0.00  0.00    +0.000 C 
ENDROOT
BRANCH   1   3
ATOM      2  O   UNL     1      -0.733   8.911  22.415  0.00  0.00    +0.000 OA
ATOM      3  C   UNL     1       0.186   9.206  21.654  0.00  0.00    +0.000 C 
ATOM      4  N   UNL     1       0.142  10.190  20.685  0.00  0.00    +0.000 N 
ATOM      5  H   UNL     1       0.875  10.225  19.978  0.00  0.00    +0.000 HD
BRANCH   4   6
ATOM      6  C   UNL     1      -0.942  11.074  20.421  0.00  0.00    +0.000 A 
ATOM      7  C   UNL     1      -1.352  12.052  21.338  0.00  0.00    +0.000 A 
ATOM      8  C   UNL     1      -2.449  12.864  21.069  0.00  0.00    +0.000 A 
ATOM      9  C   UNL     1      -3.143  12.709  19.876  0.00  0.00    +0.000 A 
ATOM     10  C   UNL     1      -2.719  11.762  18.931  0.00  0.00    +0.000 A 
ATOM     11  C   UNL     1      -3.403  11.615  17.718  0.00  0.00    +0.000 A 
ATOM     12  C   UNL     1      -2.962  10.687  16.785  0.00  0.00    +0.000 A 
ATOM     13  C   UNL     1      -1.850   9.930  17.103  0.00  0.00    +0.000 A 
ATOM     14  N   UNL     1      -1.171  10.029  18.271  0.00  0.00    +0.000 NA
ATOM     15  C   UNL     1      -1.598  10.937  19.183  0.00  0.00    +0.000 A 
ENDBRANCH   4   6
ENDBRANCH   1   3
BRANCH   1  16
ATOM     16  C   UNL     1       1.811   7.834  20.373  0.00  0.00    +0.000 C 
BRANCH  16  17
ATOM     17  N   UNL     1       1.812   6.374  20.455  0.00  0.00    +0.000 N 
ATOM     18  C   UNL     1       2.719   5.627  19.739  0.00  0.00    +0.000 C 
ATOM     19  N   UNL     1       3.899   6.063  19.396  0.00  0.00    +0.000 NA
ATOM     20  S   UNL     1       4.717   4.936  18.530  0.00  0.00    +0.000 S 
ATOM     21  O   UNL     1       5.811   4.400  19.310  0.00  0.00    +0.000 OA
ATOM     22  O   UNL     1       4.873   5.370  17.159  0.00  0.00    +0.000 OA
ATOM     23  C   UNL     1       3.448   3.749  18.546  0.00  0.00    +0.000 A 
ATOM     24  C   UNL     1       3.425   2.517  17.922  0.00  0.00    +0.000 A 
ATOM     25  C   UNL     1       2.261   1.762  18.064  0.00  0.00    +0.000 A 
ATOM     26  C   UNL     1       1.176   2.254  18.815  0.00  0.00    +0.000 A 
ATOM     27  C   UNL     1       1.233   3.512  19.431  0.00  0.00    +0.000 A 
ATOM     28  C   UNL     1       2.391   4.256  19.276  0.00  0.00    +0.000 A 
ATOM     29  H   UNL     1       0.876   5.992  20.546  0.00  0.00    +0.000 HD
ENDBRANCH  16  17
ENDBRANCH   1  16
TORSDOF 4
ENDMDL
MODEL 8
REMARK VINA RESULT:      -8.2      3.321      4.333
REMARK  Name = 
REMARK  4 active torsions:
REMARK  status: ('A' for Active; 'I' for Inactive)
REMARK    1  A    between atoms: C_2  and  C_3
REMARK    2  A    between atoms: C_3  and  C_4
REMARK    3  A    between atoms: C_4  and  N_5
REMARK    4  A    between atoms: N_17  and  C_18
REMARK                            x       y       z     vdW  Elec       q    Type
REMARK                         _______ _______ _______ _____ _____    ______ ____
ROOT
ATOM      1  C   UNL     1       1.967   9.121  17.949  0.00  0.00    +0.000 C 
ENDROOT
BRANCH   1   3
ATOM      2  O   UNL     1      -0.254   9.933  18.326  0.00  0.00    +0.000 OA
ATOM      3  C   UNL     1       0.870   9.745  18.788  0.00  0.00    +0.000 C 
ATOM      4  N   UNL     1       1.270  10.053  20.075  0.00  0.00    +0.000 N 
ATOM      5  H   UNL     1       2.264  10.046  20.300  0.00  0.00    +0.000 HD
BRANCH   4   6
ATOM      6  C   UNL     1       0.457  10.588  21.113  0.00  0.00    +0.000 A 
ATOM      7  C   UNL     1      -0.222   9.772  22.028  0.00  0.00    +0.000 A 
ATOM      8  C   UNL     1      -1.050  10.328  22.998  0.00  0.00    +0.000 A 
ATOM      9  C   UNL     1      -1.202  11.707  23.065  0.00  0.00    +0.000 A 
ATOM     10  C   UNL     1      -0.496  12.537  22.181  0.00  0.00    +0.000 A 
ATOM     11  C   UNL     1      -0.630  13.930  22.256  0.00  0.00    +0.000 A 
ATOM     12  C   UNL     1       0.087  14.740  21.387  0.00  0.00    +0.000 A 
ATOM     13  C   UNL     1       0.913  14.125  20.465  0.00  0.00    +0.000 A 
ATOM     14  N   UNL     1       1.057  12.784  20.348  0.00  0.00    +0.000 NA
ATOM     15  C   UNL     1       0.360  11.990  21.197  0.00  0.00    +0.000 A 
ENDBRANCH   4   6
ENDBRANCH   1   3
BRANCH   1  16
ATOM     16  C   UNL     1       2.424   7.818  18.602  0.00  0.00    +0.000 C 
BRANCH  16  17
ATOM     17  N   UNL     1       2.980   6.877  17.630  0.00  0.00    +0.000 N 
ATOM     18  C   UNL     1       4.052   6.078  17.954  0.00  0.00    +0.000 C 
ATOM     19  N   UNL     1       4.316   5.685  19.168  0.00  0.00    +0.000 NA
ATOM     20  S   UNL     1       5.675   4.769  19.211  0.00  0.00    +0.000 S 
ATOM     21  O   UNL     1       5.342   3.388  19.486  0.00  0.00    +0.000 OA
ATOM     22  O   UNL     1       6.733   5.471  19.904  0.00  0.00    +0.000 OA
ATOM     23  C   UNL     1       6.017   4.884  17.512  0.00  0.00    +0.000 A 
ATOM     24  C   UNL     1       7.102   4.377  16.824  0.00  0.00    +0.000 A 
ATOM     25  C   UNL     1       7.157   4.641  15.455  0.00  0.00    +0.000 A 
ATOM     26  C   UNL     1       6.141   5.387  14.828  0.00  0.00    +0.000 A 
ATOM     27  C   UNL     1       5.056   5.890  15.560  0.00  0.00    +0.000 A 
ATOM     28  C   UNL     1       5.016   5.629  16.919  0.00  0.00    +0.000 A 
ATOM     29  H   UNL     1       2.948   7.238  16.682  0.00  0.00    +0.000 HD
ENDBRANCH  16  17
ENDBRANCH   1  16
TORSDOF 4
ENDMDL
MODEL 9
REMARK VINA RESULT:      -8.1      2.717      3.480
REMARK  Name = 
REMARK  4 active torsions:
REMARK  status: ('A' for Active; 'I' for Inactive)
REMARK    1  A    between atoms: C_2  and  C_3
REMARK    2  A    between atoms: C_3  and  C_4
REMARK    3  A    between atoms: C_4  and  N_5
REMARK    4  A    between atoms: N_17  and  C_18
REMARK                            x       y       z     vdW  Elec       q    Type
REMARK                         _______ _______ _______ _____ _____    ______ ____
ROOT
ATOM      1  C   UNL     1       2.486   8.013  17.964  0.00  0.00    +0.000 C 
ENDROOT
BRANCH   1   3
ATOM      2  O   UNL     1       1.394   8.683  19.988  0.00  0.00    +0.000 OA
ATOM      3  C   UNL     1       1.563   8.889  18.788  0.00  0.00    +0.000 C 
ATOM      4  N   UNL     1       0.973   9.903  18.057  0.00  0.00    +0.000 N 
ATOM      5  H   UNL     1       1.016   9.872  17.039  0.00  0.00    +0.000 HD
BRANCH   4   6
ATOM      6  C   UNL     1       0.111  10.920  18.556  0.00  0.00    +0.000 A 
ATOM      7  C   UNL     1       0.586  11.992  19.325  0.00  0.00    +0.000 A 
ATOM      8  C   UNL     1      -0.293  12.940  19.841  0.00  0.00    +0.000 A 
ATOM      9  C   UNL     1      -1.653  12.827  19.587  0.00  0.00    +0.000 A 
ATOM     10  C   UNL     1      -2.136  11.783  18.784  0.00  0.00    +0.000 A 
ATOM     11  C   UNL     1      -3.506  11.676  18.508  0.00  0.00    +0.000 A 
ATOM     12  C   UNL     1      -3.968  10.647  17.699  0.00  0.00    +0.000 A 
ATOM     13  C   UNL     1      -3.040   9.754  17.196  0.00  0.00    +0.000 A 
ATOM     14  N   UNL     1      -1.711   9.812  17.453  0.00  0.00    +0.000 NA
ATOM     15  C   UNL     1      -1.256  10.817  18.242  0.00  0.00    +0.000 A 
ENDBRANCH   4   6
ENDBRANCH   1   3
BRANCH   1  16
ATOM     16  C   UNL     1       2.772   6.721  18.727  0.00  0.00    +0.000 C 
BRANCH  16  17
ATOM     17  N   UNL     1       3.373   5.696  17.874  0.00  0.00    +0.000 N 
ATOM     18  C   UNL     1       4.735   5.640  17.693  0.00  0.00    +0.000 C 
ATOM     19  N   UNL     1       5.598   6.058  18.576  0.00  0.00    +0.000 NA
ATOM     20  S   UNL     1       7.135   5.872  18.036  0.00  0.00    +0.000 S 
ATOM     21  O   UNL     1       7.803   4.823  18.775  0.00  0.00    +0.000 OA
ATOM     22  O   UNL     1       7.741   7.162  17.789  0.00  0.00    +0.000 OA
ATOM     23  C   UNL     1       6.698   5.211  16.490  0.00  0.00    +0.000 A 
ATOM     24  C   UNL     1       7.531   4.864  15.445  0.00  0.00    +0.000 A 
ATOM     25  C   UNL     1       6.921   4.383  14.287  0.00  0.00    +0.000 A 
ATOM     26  C   UNL     1       5.520   4.263  14.213  0.00  0.00    +0.000 A 
ATOM     27  C   UNL     1       4.704   4.630  15.293  0.00  0.00    +0.000 A 
ATOM     28  C   UNL     1       5.322   5.114  16.435  0.00  0.00    +0.000 A 
ATOM     29  H   UNL     1       2.794   5.475  17.071  0.00  0.00    +0.000 HD
ENDBRANCH  16  17
ENDBRANCH   1  16
TORSDOF 4
ENDMDL
