MODEL 1
REMARK VINA RESULT:      -8.6      0.000      0.000
REMARK  Name = 
REMARK  6 active torsions:
REMARK  status: ('A' for Active; 'I' for Inactive)
REMARK    1  A    between atoms: C_1  and  C_2
REMARK    2  A    between atoms: C_4  and  C_5
REMARK    3  A    between atoms: C_5  and  N_6
REMARK    4  A    between atoms: C_7  and  C_9
REMARK    5  A    between atoms: N_14  and  C_15
REMARK    6  A    between atoms: C_15  and  C_16
REMARK                            x       y       z     vdW  Elec       q    Type
REMARK                         _______ _______ _______ _____ _____    ______ ____
ROOT
ATOM      1  C   UNL     1       2.274   6.680  19.092  0.00  0.00    +0.000 A 
ATOM      2  C   UNL     1       1.903   6.271  20.431  0.00  0.00    +0.000 A 
ATOM      3  C   UNL     1       2.128   5.019  20.849  0.00  0.00    +0.000 A 
ATOM      4  C   UNL     1       2.770   4.021  19.951  0.00  0.00    +0.000 A 
ATOM      5  O   UNL     1       3.042   2.911  20.398  0.00  0.00    +0.000 OA
ATOM      6  N   UNL     1       3.044   4.455  18.653  0.00  0.00    +0.000 N 
ATOM      7  C   UNL     1       2.789   5.765  18.251  0.00  0.00    +0.000 A 
ENDROOT
BRANCH   1   9
ATOM      8  N   UNL     1       1.357   8.911  19.385  0.00  0.00    +0.000 N 
ATOM      9  C   UNL     1       2.107   8.082  18.582  0.00  0.00    +0.000 C 
ATOM     10  O   UNL     1       2.648   8.460  17.548  0.00  0.00    +0.000 OA
ATOM     11  H   UNL     1       1.107   8.613  20.318  0.00  0.00    +0.000 HD
BRANCH   8  12
ATOM     12  C   UNL     1       1.228  10.324  19.096  0.00  0.00    +0.000 C 
BRANCH  12  16
ATOM     13  C   UNL     1      -2.984   9.762  16.325  0.00  0.00    +0.000 C 
ATOM     14  C   UNL     1      -2.229  10.413  17.444  0.00  0.00    +0.000 A 
ATOM     15  C   UNL     1      -0.887  10.092  17.709  0.00  0.00    +0.000 A 
ATOM     16  C   UNL     1      -0.199  10.701  18.773  0.00  0.00    +0.000 A 
ATOM     17  C   UNL     1      -0.872  11.641  19.571  0.00  0.00    +0.000 A 
ATOM     18  C   UNL     1      -2.204  11.967  19.311  0.00  0.00    +0.000 A 
ATOM     19  C   UNL     1      -2.866  11.354  18.256  0.00  0.00    +0.000 A 
ATOM     20  F   UNL     1      -4.149  11.673  18.023  0.00  0.00    +0.000 F 
ENDBRANCH  12  16
ENDBRANCH   8  12
ENDBRANCH   1   9
BRANCH   6  21
ATOM     21  C   UNL     1       3.814   3.571  17.774  0.00  0.00    +0.000 C 
BRANCH  21  22
ATOM     22  C   UNL     1       4.959   4.208  17.012  0.00  0.00    +0.000 A 
ATOM     23  C   UNL     1       4.984   4.099  15.607  0.00  0.00    +0.000 A 
ATOM     24  C   UNL     1       6.087   4.526  14.866  0.00  0.00    +0.000 A 
ATOM     25  C   UNL     1       7.186   5.084  15.512  0.00  0.00    +0.000 A 
ATOM     26  C   UNL     1       7.164   5.242  16.896  0.00  0.00    +0.000 A 
ATOM     27  C   UNL     1       6.058   4.811  17.642  0.00  0.00    +0.000 A 
ATOM     28 CL   UNL     1       6.141   5.015  19.355  0.00  0.00    +0.000 Cl
ENDBRANCH  21  22
ENDBRANCH   6  21
TORSDOF 5
ENDMDL
MODEL 2
REMARK VINA RESULT:      -8.6      1.567      2.305
REMARK  Name = 
REMARK  6 active torsions:
REMARK  status: ('A' for Active; 'I' for Inactive)
REMARK    1  A    between atoms: C_1  and  C_2
REMARK    2  A    between atoms: C_4  and  C_5
REMARK    3  A    between atoms: C_5  and  N_6
REMARK    4  A    between atoms: C_7  and  C_9
REMARK    5  A    between atoms: N_14  and  C_15
REMARK    6  A    between atoms: C_15  and  C_16
REMARK                            x       y       z     vdW  Elec       q    Type
REMARK                         _______ _______ _______ _____ _____    ______ ____
ROOT
ATOM      1  C   UNL     1       2.066   6.626  19.871  0.00  0.00    +0.000 A 
ATOM      2  C   UNL     1       1.487   5.629  20.746  0.00  0.00    +0.000 A 
ATOM      3  C   UNL     1       1.798   4.334  20.606  0.00  0.00    +0.000 A 
ATOM      4  C   UNL     1       2.752   3.891  19.553  0.00  0.00    +0.000 A 
ATOM      5  O   UNL     1       3.083   2.710  19.513  0.00  0.00    +0.000 OA
ATOM      6  N   UNL     1       3.225   4.889  18.699  0.00  0.00    +0.000 N 
ATOM      7  C   UNL     1       2.873   6.226  18.871  0.00  0.00    +0.000 A 
ENDROOT
BRANCH   1   9
ATOM      8  N   UNL     1       1.794   8.807  18.833  0.00  0.00    +0.000 N 
ATOM      9  C   UNL     1       1.807   8.098  20.013  0.00  0.00    +0.000 C 
ATOM     10  O   UNL     1       1.578   8.610  21.104  0.00  0.00    +0.000 OA
ATOM     11  H   UNL     1       1.785   8.311  17.952  0.00  0.00    +0.000 HD
BRANCH   8  12
ATOM     12  C   UNL     1       1.419  10.205  18.798  0.00  0.00    +0.000 C 
BRANCH  12  16
ATOM     13  C   UNL     1      -2.998  12.465  19.858  0.00  0.00    +0.000 C 
ATOM     14  C   UNL     1      -2.185  11.483  19.070  0.00  0.00    +0.000 A 
ATOM     15  C   UNL     1      -0.816  11.292  19.324  0.00  0.00    +0.000 A 
ATOM     16  C   UNL     1      -0.064  10.379  18.565  0.00  0.00    +0.000 A 
ATOM     17  C   UNL     1      -0.701   9.653  17.545  0.00  0.00    +0.000 A 
ATOM     18  C   UNL     1      -2.062   9.835  17.290  0.00  0.00    +0.000 A 
ATOM     19  C   UNL     1      -2.786  10.743  18.051  0.00  0.00    +0.000 A 
ATOM     20  F   UNL     1      -4.092  10.912  17.788  0.00  0.00    +0.000 F 
ENDBRANCH  12  16
ENDBRANCH   8  12
ENDBRANCH   1   9
BRANCH   6  21
ATOM     21  C   UNL     1       4.282   4.542  17.745  0.00  0.00    +0.000 C 
BRANCH  21  22
ATOM     22  C   UNL     1       5.590   5.296  17.884  0.00  0.00    +0.000 A 
ATOM     23  C   UNL     1       6.416   5.025  18.993  0.00  0.00    +0.000 A 
ATOM     24  C   UNL     1       7.549   5.794  19.258  0.00  0.00    +0.000 A 
ATOM     25  C   UNL     1       7.891   6.845  18.412  0.00  0.00    +0.000 A 
ATOM     26  C   UNL     1       7.114   7.103  17.285  0.00  0.00    +0.000 A 
ATOM     27  C   UNL     1       5.973   6.332  17.019  0.00  0.00    +0.000 A 
ATOM     28 CL   UNL     1       5.053   6.753  15.619  0.00  0.00    +0.000 Cl
ENDBRANCH  21  22
ENDBRANCH   6  21
TORSDOF 5
ENDMDL
MODEL 3
REMARK VINA RESULT:      -8.5      1.311      1.790
REMARK  Name = 
REMARK  6 active torsions:
REMARK  status: ('A' for Active; 'I' for Inactive)
REMARK    1  A    between atoms: C_1  and  C_2
REMARK    2  A    between atoms: C_4  and  C_5
REMARK    3  A    between atoms: C_5  and  N_6
REMARK    4  A    between atoms: C_7  and  C_9
REMARK    5  A    between atoms: N_14  and  C_15
REMARK    6  A    between atoms: C_15  and  C_16
REMARK                            x       y       z     vdW  Elec       q    Type
REMARK                         _______ _______ _______ _____ _____    ______ ____
ROOT
ATOM      1  C   UNL     1       2.119   7.167  19.178  0.00  0.00    +0.000 A 
ATOM      2  C   UNL     1       1.512   6.555  20.342  0.00  0.00    +0.000 A 
ATOM      3  C   UNL     1       1.864   5.321  20.724  0.00  0.00    +0.000 A 
ATOM      4  C   UNL     1       2.890   4.553  19.968  0.00  0.00    +0.000 A 
ATOM      5  O   UNL     1       3.251   3.463  20.400  0.00  0.00    +0.000 OA
ATOM      6  N   UNL     1       3.389   5.169  18.819  0.00  0.00    +0.000 N 
ATOM      7  C   UNL     1       2.994   6.453  18.448  0.00  0.00    +0.000 A 
ENDROOT
BRANCH   1   9
ATOM      8  N   UNL     1       1.080   9.320  19.621  0.00  0.00    +0.000 N 
ATOM      9  C   UNL     1       1.816   8.569  18.732  0.00  0.00    +0.000 C 
ATOM     10  O   UNL     1       2.242   9.014  17.672  0.00  0.00    +0.000 OA
ATOM     11  H   UNL     1       0.929   8.977  20.561  0.00  0.00    +0.000 HD
BRANCH   8  12
ATOM     12  C   UNL     1       0.833  10.728  19.393  0.00  0.00    +0.000 C 
BRANCH  12  16
ATOM     13  C   UNL     1      -3.018   9.805  16.221  0.00  0.00    +0.000 C 
ATOM     14  C   UNL     1      -2.438  10.517  17.406  0.00  0.00    +0.000 A 
ATOM     15  C   UNL     1      -1.106  10.314  17.805  0.00  0.00    +0.000 A 
ATOM     16  C   UNL     1      -0.582  10.978  18.928  0.00  0.00    +0.000 A 
ATOM     17  C   UNL     1      -1.410  11.853  19.649  0.00  0.00    +0.000 A 
ATOM     18  C   UNL     1      -2.734  12.062  19.256  0.00  0.00    +0.000 A 
ATOM     19  C   UNL     1      -3.232  11.396  18.145  0.00  0.00    +0.000 A 
ATOM     20  F   UNL     1      -4.508  11.602  17.784  0.00  0.00    +0.000 F 
ENDBRANCH  12  16
ENDBRANCH   8  12
ENDBRANCH   1   9
BRANCH   6  21
ATOM     21  C   UNL     1       4.510   4.533  18.122  0.00  0.00    +0.000 C 
BRANCH  21  22
ATOM     22  C   UNL     1       5.819   5.297  18.111  0.00  0.00    +0.000 A 
ATOM     23  C   UNL     1       6.669   5.207  19.232  0.00  0.00    +0.000 A 
ATOM     24  C   UNL     1       7.806   6.006  19.346  0.00  0.00    +0.000 A 
ATOM     25  C   UNL     1       8.128   6.908  18.336  0.00  0.00    +0.000 A 
ATOM     26  C   UNL     1       7.326   6.984  17.199  0.00  0.00    +0.000 A 
ATOM     27  C   UNL     1       6.182   6.182  17.084  0.00  0.00    +0.000 A 
ATOM     28 CL   UNL     1       5.232   6.375  15.654  0.00  0.00    +0.000 Cl
ENDBRANCH  21  22
ENDBRANCH   6  21
TORSDOF 5
ENDMDL
MODEL 4
REMARK VINA RESULT:      -8.5      2.135      2.584
REMARK  Name = 
REMARK  6 active torsions:
REMARK  status: ('A' for Active; 'I' for Inactive)
REMARK    1  A    between atoms: C_1  and  C_2
REMARK    2  A    between atoms: C_4  and  C_5
REMARK    3  A    between atoms: C_5  and  N_6
REMARK    4  A    between atoms: C_7  and  C_9
REMARK    5  A    between atoms: N_14  and  C_15
REMARK    6  A    between atoms: C_15  and  C_16
REMARK                            x       y       z     vdW  Elec       q    Type
REMARK                         _______ _______ _______ _____ _____    ______ ____
ROOT
ATOM      1  C   UNL     1       2.399   6.340  19.656  0.00  0.00    +0.000 A 
ATOM      2  C   UNL     1       1.578   5.626  20.611  0.00  0.00    +0.000 A 
ATOM      3  C   UNL     1       1.882   4.372  20.970  0.00  0.00    +0.000 A 
ATOM      4  C   UNL     1       3.074   3.686  20.401  0.00  0.00    +0.000 A 
ATOM      5  O   UNL     1       3.371   2.572  20.821  0.00  0.00    +0.000 OA
ATOM      6  N   UNL     1       3.787   4.400  19.437  0.00  0.00    +0.000 N 
ATOM      7  C   UNL     1       3.437   5.701  19.084  0.00  0.00    +0.000 A 
ENDROOT
BRANCH   1   9
ATOM      8  N   UNL     1       1.324   8.473  20.101  0.00  0.00    +0.000 N 
ATOM      9  C   UNL     1       2.151   7.766  19.258  0.00  0.00    +0.000 C 
ATOM     10  O   UNL     1       2.693   8.265  18.277  0.00  0.00    +0.000 OA
ATOM     11  H   UNL     1       1.070   8.081  20.998  0.00  0.00    +0.000 HD
BRANCH   8  12
ATOM     12  C   UNL     1       1.107   9.894  19.926  0.00  0.00    +0.000 C 
BRANCH  12  16
ATOM     13  C   UNL     1      -2.455  13.213  21.351  0.00  0.00    +0.000 C 
ATOM     14  C   UNL     1      -1.570  12.038  21.637  0.00  0.00    +0.000 A 
ATOM     15  C   UNL     1      -0.655  11.559  20.684  0.00  0.00    +0.000 A 
ATOM     16  C   UNL     1       0.156  10.445  20.963  0.00  0.00    +0.000 A 
ATOM     17  C   UNL     1       0.042   9.814  22.212  0.00  0.00    +0.000 A 
ATOM     18  C   UNL     1      -0.863  10.287  23.164  0.00  0.00    +0.000 A 
ATOM     19  C   UNL     1      -1.656  11.388  22.870  0.00  0.00    +0.000 A 
ATOM     20  F   UNL     1      -2.526  11.825  23.793  0.00  0.00    +0.000 F 
ENDBRANCH  12  16
ENDBRANCH   8  12
ENDBRANCH   1   9
BRANCH   6  21
ATOM     21  C   UNL     1       5.054   3.841  18.957  0.00  0.00    +0.000 C 
BRANCH  21  22
ATOM     22  C   UNL     1       5.560   4.364  17.627  0.00  0.00    +0.000 A 
ATOM     23  C   UNL     1       4.927   3.934  16.443  0.00  0.00    +0.000 A 
ATOM     24  C   UNL     1       5.444   4.255  15.187  0.00  0.00    +0.000 A 
ATOM     25  C   UNL     1       6.599   5.024  15.085  0.00  0.00    +0.000 A 
ATOM     26  C   UNL     1       7.216   5.497  16.241  0.00  0.00    +0.000 A 
ATOM     27  C   UNL     1       6.699   5.173  17.504  0.00  0.00    +0.000 A 
ATOM     28 CL   UNL     1       7.556   5.775  18.878  0.00  0.00    +0.000 Cl
ENDBRANCH  21  22
ENDBRANCH   6  21
TORSDOF 5
ENDMDL
MODEL 5
REMARK VINA RESULT:      -8.5      1.569      1.902
REMARK  Name = 
REMARK  6 active torsions:
REMARK  status: ('A' for Active; 'I' for Inactive)
REMARK    1  A    between atoms: C_1  and  C_2
REMARK    2  A    between atoms: C_4  and  C_5
REMARK    3  A    between atoms: C_5  and  N_6
REMARK    4  A    between atoms: C_7  and  C_9
REMARK    5  A    between atoms: N_14  and  C_15
REMARK    6  A    between atoms: C_15  and  C_16
REMARK                            x       y       z     vdW  Elec       q    Type
REMARK                         _______ _______ _______ _____ _____    ______ ____
ROOT
ATOM      1  C   UNL     1       1.934   6.692  19.917  0.00  0.00    +0.000 A 
ATOM      2  C   UNL     1       1.337   5.672  20.754  0.00  0.00    +0.000 A 
ATOM      3  C   UNL     1       1.594   4.376  20.538  0.00  0.00    +0.000 A 
ATOM      4  C   UNL     1       2.504   3.953  19.439  0.00  0.00    +0.000 A 
ATOM      5  O   UNL     1       2.786   2.764  19.329  0.00  0.00    +0.000 OA
ATOM      6  N   UNL     1       2.995   4.976  18.626  0.00  0.00    +0.000 N 
ATOM      7  C   UNL     1       2.700   6.315  18.878  0.00  0.00    +0.000 A 
ENDROOT
BRANCH   1   9
ATOM      8  N   UNL     1       1.701   8.931  19.001  0.00  0.00    +0.000 N 
ATOM      9  C   UNL     1       1.738   8.163  20.143  0.00  0.00    +0.000 C 
ATOM     10  O   UNL     1       1.575   8.627  21.267  0.00  0.00    +0.000 OA
ATOM     11  H   UNL     1       1.635   8.481  18.098  0.00  0.00    +0.000 HD
BRANCH   8  12
ATOM     12  C   UNL     1       1.377  10.341  19.052  0.00  0.00    +0.000 C 
BRANCH  12  16
ATOM     13  C   UNL     1      -2.722   9.548  16.170  0.00  0.00    +0.000 C 
ATOM     14  C   UNL     1      -2.051  10.193  17.345  0.00  0.00    +0.000 A 
ATOM     15  C   UNL     1      -0.687   9.992  17.613  0.00  0.00    +0.000 A 
ATOM     16  C   UNL     1      -0.077  10.593  18.728  0.00  0.00    +0.000 A 
ATOM     17  C   UNL     1      -0.851  11.403  19.575  0.00  0.00    +0.000 A 
ATOM     18  C   UNL     1      -2.207  11.610  19.311  0.00  0.00    +0.000 A 
ATOM     19  C   UNL     1      -2.791  11.007  18.206  0.00  0.00    +0.000 A 
ATOM     20  F   UNL     1      -4.096  11.210  17.971  0.00  0.00    +0.000 F 
ENDBRANCH  12  16
ENDBRANCH   8  12
ENDBRANCH   1   9
BRANCH   6  21
ATOM     21  C   UNL     1       4.014   4.640  17.628  0.00  0.00    +0.000 C 
BRANCH  21  22
ATOM     22  C   UNL     1       5.373   5.286  17.808  0.00  0.00    +0.000 A 
ATOM     23  C   UNL     1       6.153   4.926  18.925  0.00  0.00    +0.000 A 
ATOM     24  C   UNL     1       7.338   5.597  19.229  0.00  0.00    +0.000 A 
ATOM     25  C   UNL     1       7.777   6.637  18.415  0.00  0.00    +0.000 A 
ATOM     26  C   UNL     1       7.045   6.981  17.281  0.00  0.00    +0.000 A 
ATOM     27  C   UNL     1       5.853   6.308  16.976  0.00  0.00    +0.000 A 
ATOM     28 CL   UNL     1       4.997   6.832  15.570  0.00  0.00    +0.000 Cl
ENDBRANCH  21  22
ENDBRANCH   6  21
TORSDOF 5
ENDMDL
MODEL 6
REMARK VINA RESULT:      -8.4      0.340      1.353
REMARK  Name = 
REMARK  6 active torsions:
REMARK  status: ('A' for Active; 'I' for Inactive)
REMARK    1  A    between atoms: C_1  and  C_2
REMARK    2  A    between atoms: C_4  and  C_5
REMARK    3  A    between atoms: C_5  and  N_6
REMARK    4  A    between atoms: C_7  and  C_9
REMARK    5  A    between atoms: N_14  and  C_15
REMARK    6  A    between atoms: C_15  and  C_16
REMARK                            x       y       z     vdW  Elec       q    Type
REMARK                         _______ _______ _______ _____ _____    ______ ____
ROOT
ATOM      1  C   UNL     1       2.339   6.523  19.175  0.00  0.00    +0.000 A 
ATOM      2  C   UNL     1       1.882   6.121  20.488  0.00  0.00    +0.000 A 
ATOM      3  C   UNL     1       2.101   4.879  20.937  0.00  0.00    +0.000 A 
ATOM      4  C   UNL     1       2.826   3.884  20.100  0.00  0.00    +0.000 A 
ATOM      5  O   UNL     1       3.087   2.785  20.579  0.00  0.00    +0.000 OA
ATOM      6  N   UNL     1       3.183   4.310  18.819  0.00  0.00    +0.000 N 
ATOM      7  C   UNL     1       2.931   5.609  18.384  0.00  0.00    +0.000 A 
ENDROOT
BRANCH   1   9
ATOM      8  N   UNL     1       1.355   8.736  19.371  0.00  0.00    +0.000 N 
ATOM      9  C   UNL     1       2.181   7.915  18.637  0.00  0.00    +0.000 C 
ATOM     10  O   UNL     1       2.790   8.295  17.641  0.00  0.00    +0.000 OA
ATOM     11  H   UNL     1       1.042   8.442  20.286  0.00  0.00    +0.000 HD
BRANCH   8  12
ATOM     12  C   UNL     1       1.218  10.142  19.056  0.00  0.00    +0.000 C 
BRANCH  12  16
ATOM     13  C   UNL     1      -2.885  12.891  20.220  0.00  0.00    +0.000 C 
ATOM     14  C   UNL     1      -2.192  11.863  19.377  0.00  0.00    +0.000 A 
ATOM     15  C   UNL     1      -0.865  11.479  19.631  0.00  0.00    +0.000 A 
ATOM     16  C   UNL     1      -0.225  10.524  18.821  0.00  0.00    +0.000 A 
ATOM     17  C   UNL     1      -0.933   9.954  17.750  0.00  0.00    +0.000 A 
ATOM     18  C   UNL     1      -2.254  10.330  17.495  0.00  0.00    +0.000 A 
ATOM     19  C   UNL     1      -2.867  11.274  18.306  0.00  0.00    +0.000 A 
ATOM     20  F   UNL     1      -4.134  11.629  18.043  0.00  0.00    +0.000 F 
ENDBRANCH  12  16
ENDBRANCH   8  12
ENDBRANCH   1   9
BRANCH   6  21
ATOM     21  C   UNL     1       4.031   3.432  18.008  0.00  0.00    +0.000 C 
BRANCH  21  22
ATOM     22  C   UNL     1       5.072   4.113  17.141  0.00  0.00    +0.000 A 
ATOM     23  C   UNL     1       5.013   3.937  15.744  0.00  0.00    +0.000 A 
ATOM     24  C   UNL     1       6.028   4.407  14.911  0.00  0.00    +0.000 A 
ATOM     25  C   UNL     1       7.122   5.074  15.454  0.00  0.00    +0.000 A 
ATOM     26  C   UNL     1       7.180   5.297  16.828  0.00  0.00    +0.000 A 
ATOM     27  C   UNL     1       6.161   4.824  17.667  0.00  0.00    +0.000 A 
ATOM     28 CL   UNL     1       6.341   5.117  19.360  0.00  0.00    +0.000 Cl
ENDBRANCH  21  22
ENDBRANCH   6  21
TORSDOF 5
ENDMDL
MODEL 7
REMARK VINA RESULT:      -8.4      2.335      2.980
REMARK  Name = 
REMARK  6 active torsions:
REMARK  status: ('A' for Active; 'I' for Inactive)
REMARK    1  A    between atoms: C_1  and  C_2
REMARK    2  A    between atoms: C_4  and  C_5
REMARK    3  A    between atoms: C_5  and  N_6
REMARK    4  A    between atoms: C_7  and  C_9
REMARK    5  A    between atoms: N_14  and  C_15
REMARK    6  A    between atoms: C_15  and  C_16
REMARK                            x       y       z     vdW  Elec       q    Type
REMARK                         _______ _______ _______ _____ _____    ______ ____
ROOT
ATOM      1  C   UNL     1       2.384   6.296  19.677  0.00  0.00    +0.000 A 
ATOM      2  C   UNL     1       1.568   5.598  20.647  0.00  0.00    +0.000 A 
ATOM      3  C   UNL     1       1.867   4.345  21.015  0.00  0.00    +0.000 A 
ATOM      4  C   UNL     1       3.048   3.645  20.441  0.00  0.00    +0.000 A 
ATOM      5  O   UNL     1       3.342   2.533  20.868  0.00  0.00    +0.000 OA
ATOM      6  N   UNL     1       3.756   4.345  19.462  0.00  0.00    +0.000 N 
ATOM      7  C   UNL     1       3.411   5.645  19.100  0.00  0.00    +0.000 A 
ENDROOT
BRANCH   1   9
ATOM      8  N   UNL     1       1.341   8.446  20.122  0.00  0.00    +0.000 N 
ATOM      9  C   UNL     1       2.142   7.720  19.268  0.00  0.00    +0.000 C 
ATOM     10  O   UNL     1       2.666   8.203  18.270  0.00  0.00    +0.000 OA
ATOM     11  H   UNL     1       1.103   8.067  21.028  0.00  0.00    +0.000 HD
BRANCH   8  12
ATOM     12  C   UNL     1       1.135   9.867  19.935  0.00  0.00    +0.000 C 
BRANCH  12  16
ATOM     13  C   UNL     1      -2.380  13.247  21.333  0.00  0.00    +0.000 C 
ATOM     14  C   UNL     1      -1.520  12.055  21.624  0.00  0.00    +0.000 A 
ATOM     15  C   UNL     1      -0.604  11.562  20.680  0.00  0.00    +0.000 A 
ATOM     16  C   UNL     1       0.184  10.433  20.963  0.00  0.00    +0.000 A 
ATOM     17  C   UNL     1       0.046   9.800  22.210  0.00  0.00    +0.000 A 
ATOM     18  C   UNL     1      -0.861  10.287  23.154  0.00  0.00    +0.000 A 
ATOM     19  C   UNL     1      -1.630  11.403  22.854  0.00  0.00    +0.000 A 
ATOM     20  F   UNL     1      -2.501  11.854  23.770  0.00  0.00    +0.000 F 
ENDBRANCH  12  16
ENDBRANCH   8  12
ENDBRANCH   1   9
BRANCH   6  21
ATOM     21  C   UNL     1       5.014   3.773  18.974  0.00  0.00    +0.000 C 
BRANCH  21  22
ATOM     22  C   UNL     1       6.011   4.746  18.377  0.00  0.00    +0.000 A 
ATOM     23  C   UNL     1       6.901   5.419  19.236  0.00  0.00    +0.000 A 
ATOM     24  C   UNL     1       7.731   6.438  18.767  0.00  0.00    +0.000 A 
ATOM     25  C   UNL     1       7.698   6.801  17.424  0.00  0.00    +0.000 A 
ATOM     26  C   UNL     1       6.857   6.119  16.547  0.00  0.00    +0.000 A 
ATOM     27  C   UNL     1       6.021   5.096  17.018  0.00  0.00    +0.000 A 
ATOM     28 CL   UNL     1       4.986   4.337  15.862  0.00  0.00    +0.000 Cl
ENDBRANCH  21  22
ENDBRANCH   6  21
TORSDOF 5
ENDMDL
MODEL 8
REMARK VINA RESULT:      -8.3      1.138      1.178
REMARK  Name = 
REMARK  6 active torsions:
REMARK  status: ('A' for Active; 'I' for Inactive)
REMARK    1  A    between atoms: C_1  and  C_2
REMARK    2  A    between atoms: C_4  and  C_5
REMARK    3  A    between atoms: C_5  and  N_6
REMARK    4  A    between atoms: C_7  and  C_9
REMARK    5  A    between atoms: N_14  and  C_15
REMARK    6  A    between atoms: C_15  and  C_16
REMARK                            x       y       z     vdW  Elec       q    Type
REMARK                         _______ _______ _______ _____ _____    ______ ____
ROOT
ATOM      1  C   UNL     1       2.045   6.204  19.901  0.00  0.00    +0.000 A 
ATOM      2  C   UNL     1       0.988   5.345  20.392  0.00  0.00    +0.000 A 
ATOM      3  C   UNL     1       1.129   4.014  20.379  0.00  0.00    +0.000 A 
ATOM      4  C   UNL     1       2.377   3.386  19.866  0.00  0.00    +0.000 A 
ATOM      5  O   UNL     1       2.506   2.169  19.953  0.00  0.00    +0.000 OA
ATOM      6  N   UNL     1       3.331   4.261  19.345  0.00  0.00    +0.000 N 
ATOM      7  C   UNL     1       3.146   5.642  19.369  0.00  0.00    +0.000 A 
ENDROOT
BRANCH   1   9
ATOM      8  N   UNL     1       2.061   8.329  18.721  0.00  0.00    +0.000 N 
ATOM      9  C   UNL     1       1.977   7.703  19.944  0.00  0.00    +0.000 C 
ATOM     10  O   UNL     1       1.809   8.310  20.997  0.00  0.00    +0.000 OA
ATOM     11  H   UNL     1       1.993   7.781  17.873  0.00  0.00    +0.000 HD
BRANCH   8  12
ATOM     12  C   UNL     1       1.869   9.758  18.591  0.00  0.00    +0.000 C 
BRANCH  12  16
ATOM     13  C   UNL     1      -2.645   9.619  16.279  0.00  0.00    +0.000 C 
ATOM     14  C   UNL     1      -1.772  10.036  17.423  0.00  0.00    +0.000 A 
ATOM     15  C   UNL     1      -0.399   9.736  17.447  0.00  0.00    +0.000 A 
ATOM     16  C   UNL     1       0.403  10.120  18.535  0.00  0.00    +0.000 A 
ATOM     17  C   UNL     1      -0.187  10.815  19.604  0.00  0.00    +0.000 A 
ATOM     18  C   UNL     1      -1.549  11.120  19.585  0.00  0.00    +0.000 A 
ATOM     19  C   UNL     1      -2.324  10.730  18.502  0.00  0.00    +0.000 A 
ATOM     20  F   UNL     1      -3.633  11.024  18.502  0.00  0.00    +0.000 F 
ENDBRANCH  12  16
ENDBRANCH   8  12
ENDBRANCH   1   9
BRANCH   6  21
ATOM     21  C   UNL     1       4.639   3.718  18.969  0.00  0.00    +0.000 C 
BRANCH  21  22
ATOM     22  C   UNL     1       5.286   4.312  17.733  0.00  0.00    +0.000 A 
ATOM     23  C   UNL     1       4.785   3.954  16.466  0.00  0.00    +0.000 A 
ATOM     24  C   UNL     1       5.434   4.342  15.293  0.00  0.00    +0.000 A 
ATOM     25  C   UNL     1       6.594   5.108  15.360  0.00  0.00    +0.000 A 
ATOM     26  C   UNL     1       7.083   5.510  16.601  0.00  0.00    +0.000 A 
ATOM     27  C   UNL     1       6.433   5.119  17.780  0.00  0.00    +0.000 A 
ATOM     28 CL   UNL     1       7.137   5.636  19.271  0.00  0.00    +0.000 Cl
ENDBRANCH  21  22
ENDBRANCH   6  21
TORSDOF 5
ENDMDL
MODEL 9
REMARK VINA RESULT:      -8.3      1.394      2.270
REMARK  Name = 
REMARK  6 active torsions:
REMARK  status: ('A' for Active; 'I' for Inactive)
REMARK    1  A    between atoms: C_1  and  C_2
REMARK    2  A    between atoms: C_4  and  C_5
REMARK    3  A    between atoms: C_5  and  N_6
REMARK    4  A    between atoms: C_7  and  C_9
REMARK    5  A    between atoms: N_14  and  C_15
REMARK    6  A    between atoms: C_15  and  C_16
REMARK                            x       y       z     vdW  Elec       q    Type
REMARK                         _______ _______ _______ _____ _____    ______ ____
ROOT
ATOM      1  C   UNL     1       2.061   7.217  19.256  0.00  0.00    +0.000 A 
ATOM      2  C   UNL     1       1.492   6.570  20.419  0.00  0.00    +0.000 A 
ATOM      3  C   UNL     1       1.853   5.325  20.753  0.00  0.00    +0.000 A 
ATOM      4  C   UNL     1       2.852   4.579  19.940  0.00  0.00    +0.000 A 
ATOM      5  O   UNL     1       3.225   3.476  20.327  0.00  0.00    +0.000 OA
ATOM      6  N   UNL     1       3.315   5.229  18.795  0.00  0.00    +0.000 N 
ATOM      7  C   UNL     1       2.911   6.524  18.476  0.00  0.00    +0.000 A 
ENDROOT
BRANCH   1   9
ATOM      8  N   UNL     1       1.007   9.343  19.779  0.00  0.00    +0.000 N 
ATOM      9  C   UNL     1       1.747   8.631  18.862  0.00  0.00    +0.000 C 
ATOM     10  O   UNL     1       2.167   9.118  17.818  0.00  0.00    +0.000 OA
ATOM     11  H   UNL     1       0.861   8.966  20.706  0.00  0.00    +0.000 HD
BRANCH   8  12
ATOM     12  C   UNL     1       0.749  10.757  19.604  0.00  0.00    +0.000 C 
BRANCH  12  16
ATOM     13  C   UNL     1      -3.720  13.037  20.354  0.00  0.00    +0.000 C 
ATOM     14  C   UNL     1      -2.829  12.131  19.560  0.00  0.00    +0.000 A 
ATOM     15  C   UNL     1      -1.512  11.857  19.966  0.00  0.00    +0.000 A 
ATOM     16  C   UNL     1      -0.684  11.017  19.201  0.00  0.00    +0.000 A 
ATOM     17  C   UNL     1      -1.192  10.451  18.020  0.00  0.00    +0.000 A 
ATOM     18  C   UNL     1      -2.501  10.717  17.613  0.00  0.00    +0.000 A 
ATOM     19  C   UNL     1      -3.302  11.549  18.382  0.00  0.00    +0.000 A 
ATOM     20  F   UNL     1      -4.555  11.801  17.974  0.00  0.00    +0.000 F 
ENDBRANCH  12  16
ENDBRANCH   8  12
ENDBRANCH   1   9
BRANCH   6  21
ATOM     21  C   UNL     1       4.411   4.613  18.042  0.00  0.00    +0.000 C 
BRANCH  21  22
ATOM     22  C   UNL     1       5.741   5.340  18.071  0.00  0.00    +0.000 A 
ATOM     23  C   UNL     1       6.579   5.178  19.191  0.00  0.00    +0.000 A 
ATOM     24  C   UNL     1       7.738   5.940  19.346  0.00  0.00    +0.000 A 
ATOM     25  C   UNL     1       8.092   6.874  18.376  0.00  0.00    +0.000 A 
ATOM     26  C   UNL     1       7.301   7.019  17.239  0.00  0.00    +0.000 A 
ATOM     27  C   UNL     1       6.135   6.256  17.083  0.00  0.00    +0.000 A 
ATOM     28 CL   UNL     1       5.201   6.535  15.658  0.00  0.00    +0.000 Cl
ENDBRANCH  21  22
ENDBRANCH   6  21
TORSDOF 5
ENDMDL
