MODEL 1
REMARK VINA RESULT:      -9.9      0.000      0.000
REMARK  Name = 
REMARK  7 active torsions:
REMARK  status: ('A' for Active; 'I' for Inactive)
REMARK    1  A    between atoms: C_1  and  C_2
REMARK    2  A    between atoms: N_4  and  C_5
REMARK    3  A    between atoms: C_5  and  C_6
REMARK    4  A    between atoms: C_10  and  C_11
REMARK    5  A    between atoms: N_17  and  C_18
REMARK    6  A    between atoms: C_22  and  C_23
REMARK    7  A    between atoms: C_28  and  C_29
REMARK                            x       y       z     vdW  Elec       q    Type
REMARK                         _______ _______ _______ _____ _____    ______ ____
ROOT
ATOM      1  C   UNL     1       3.661   4.023  17.855  0.00  0.00    +0.000 A 
ATOM      2  C   UNL     1       3.273   5.341  17.609  0.00  0.00    +0.000 A 
ATOM      3  C   UNL     1       2.593   6.014  18.608  0.00  0.00    +0.000 A 
ATOM      4  C   UNL     1       2.250   5.435  19.822  0.00  0.00    +0.000 A 
ATOM      5  C   UNL     1       2.544   4.098  20.067  0.00  0.00    +0.000 A 
ATOM      6  C   UNL     1       3.260   3.402  19.065  0.00  0.00    +0.000 A 
ATOM      7  C   UNL     1       1.610   6.467  20.696  0.00  0.00    +0.000 C 
ATOM      8  N   UNL     1       1.603   7.663  19.866  0.00  0.00    +0.000 N 
ATOM      9  C   UNL     1       2.180   7.418  18.619  0.00  0.00    +0.000 C 
ATOM     10  O   UNL     1       2.386   8.149  17.663  0.00  0.00    +0.000 OA
ENDROOT
BRANCH   8  11
ATOM     11  C   UNL     1       1.054   8.896  20.307  0.00  0.00    +0.000 A 
ATOM     12  C   UNL     1       1.177  10.062  19.541  0.00  0.00    +0.000 A 
ATOM     13  C   UNL     1       0.602  11.264  19.953  0.00  0.00    +0.000 A 
ATOM     14  C   UNL     1      -0.086  11.334  21.160  0.00  0.00    +0.000 A 
ATOM     15  C   UNL     1      -0.200  10.198  21.964  0.00  0.00    +0.000 A 
ATOM     16  C   UNL     1      -0.884  10.273  23.298  0.00  0.00    +0.000 C 
ATOM     17  C   UNL     1       0.361   8.985  21.526  0.00  0.00    +0.000 A 
ENDBRANCH   8  11
BRANCH   5  18
ATOM     18  C   UNL     1       2.157   3.401  21.345  0.00  0.00    +0.000 C 
ATOM     19  F   UNL     1       2.788   2.207  21.531  0.00  0.00    +0.000 F 
ATOM     20  F   UNL     1       2.435   4.143  22.450  0.00  0.00    +0.000 F 
ATOM     21  F   UNL     1       0.827   3.126  21.399  0.00  0.00    +0.000 F 
ENDBRANCH   5  18
BRANCH   1  22
ATOM     22  C   UNL     1       4.539   3.293  16.853  0.00  0.00    +0.000 C 
BRANCH  22  26
ATOM     23  C   UNL     1       7.789   7.003  17.662  0.00  0.00    +0.000 C 
ATOM     24  C   UNL     1       7.170   5.944  16.814  0.00  0.00    +0.000 C 
ATOM     25  C   UNL     1       6.268   5.049  17.259  0.00  0.00    +0.000 C 
ATOM     26  N   UNL     1       5.673   4.110  16.420  0.00  0.00    +0.000 N 
ATOM     27  C   UNL     1       6.134   4.076  15.108  0.00  0.00    +0.000 C 
ATOM     28  C   UNL     1       7.048   4.946  14.642  0.00  0.00    +0.000 C 
ATOM     29  C   UNL     1       7.569   4.936  13.246  0.00  0.00    +0.000 C 
ATOM     30  O   UNL     1       7.577   5.942  15.473  0.00  0.00    +0.000 OA
ENDBRANCH  22  26
ENDBRANCH   1  22
TORSDOF 4
ENDMDL
MODEL 2
REMARK VINA RESULT:      -9.8      0.320      1.236
REMARK  Name = 
REMARK  7 active torsions:
REMARK  status: ('A' for Active; 'I' for Inactive)
REMARK    1  A    between atoms: C_1  and  C_2
REMARK    2  A    between atoms: N_4  and  C_5
REMARK    3  A    between atoms: C_5  and  C_6
REMARK    4  A    between atoms: C_10  and  C_11
REMARK    5  A    between atoms: N_17  and  C_18
REMARK    6  A    between atoms: C_22  and  C_23
REMARK    7  A    between atoms: C_28  and  C_29
REMARK                            x       y       z     vdW  Elec       q    Type
REMARK                         _______ _______ _______ _____ _____    ______ ____
ROOT
ATOM      1  C   UNL     1       3.644   4.030  17.913  0.00  0.00    +0.000 A 
ATOM      2  C   UNL     1       3.253   5.355  17.709  0.00  0.00    +0.000 A 
ATOM      3  C   UNL     1       2.581   5.998  18.732  0.00  0.00    +0.000 A 
ATOM      4  C   UNL     1       2.248   5.384  19.932  0.00  0.00    +0.000 A 
ATOM      5  C   UNL     1       2.546   4.040  20.136  0.00  0.00    +0.000 A 
ATOM      6  C   UNL     1       3.253   3.374  19.107  0.00  0.00    +0.000 A 
ATOM      7  C   UNL     1       1.615   6.389  20.842  0.00  0.00    +0.000 C 
ATOM      8  N   UNL     1       1.601   7.609  20.047  0.00  0.00    +0.000 N 
ATOM      9  C   UNL     1       2.168   7.401  18.788  0.00  0.00    +0.000 C 
ATOM     10  O   UNL     1       2.365   8.159  17.852  0.00  0.00    +0.000 OA
ENDROOT
BRANCH   8  11
ATOM     11  C   UNL     1       1.056   8.828  20.528  0.00  0.00    +0.000 A 
ATOM     12  C   UNL     1       0.619   8.956  21.853  0.00  0.00    +0.000 A 
ATOM     13  C   UNL     1       0.123  10.166  22.339  0.00  0.00    +0.000 A 
ATOM     14  C   UNL     1       0.024  11.271  21.499  0.00  0.00    +0.000 A 
ATOM     15  C   UNL     1       0.422  11.169  20.165  0.00  0.00    +0.000 A 
ATOM     16  C   UNL     1       0.263  12.333  19.230  0.00  0.00    +0.000 C 
ATOM     17  C   UNL     1       0.945   9.952  19.692  0.00  0.00    +0.000 A 
ENDBRANCH   8  11
BRANCH   5  18
ATOM     18  C   UNL     1       2.170   3.306  21.395  0.00  0.00    +0.000 C 
ATOM     19  F   UNL     1       2.864   2.148  21.584  0.00  0.00    +0.000 F 
ATOM     20  F   UNL     1       2.379   4.049  22.515  0.00  0.00    +0.000 F 
ATOM     21  F   UNL     1       0.857   2.955  21.415  0.00  0.00    +0.000 F 
ENDBRANCH   5  18
BRANCH   1  22
ATOM     22  C   UNL     1       4.513   3.330  16.882  0.00  0.00    +0.000 C 
BRANCH  22  26
ATOM     23  C   UNL     1       7.735   7.046  17.778  0.00  0.00    +0.000 C 
ATOM     24  C   UNL     1       7.136   5.990  16.911  0.00  0.00    +0.000 C 
ATOM     25  C   UNL     1       6.228   5.089  17.333  0.00  0.00    +0.000 C 
ATOM     26  N   UNL     1       5.653   4.154  16.477  0.00  0.00    +0.000 N 
ATOM     27  C   UNL     1       6.140   4.128  15.174  0.00  0.00    +0.000 C 
ATOM     28  C   UNL     1       7.060   5.005  14.732  0.00  0.00    +0.000 C 
ATOM     29  C   UNL     1       7.610   5.004  13.347  0.00  0.00    +0.000 C 
ATOM     30  O   UNL     1       7.570   5.997  15.580  0.00  0.00    +0.000 OA
ENDBRANCH  22  26
ENDBRANCH   1  22
TORSDOF 4
ENDMDL
MODEL 3
REMARK VINA RESULT:      -9.7      3.815      8.645
REMARK  Name = 
REMARK  7 active torsions:
REMARK  status: ('A' for Active; 'I' for Inactive)
REMARK    1  A    between atoms: C_1  and  C_2
REMARK    2  A    between atoms: N_4  and  C_5
REMARK    3  A    between atoms: C_5  and  C_6
REMARK    4  A    between atoms: C_10  and  C_11
REMARK    5  A    between atoms: N_17  and  C_18
REMARK    6  A    between atoms: C_22  and  C_23
REMARK    7  A    between atoms: C_28  and  C_29
REMARK                            x       y       z     vdW  Elec       q    Type
REMARK                         _______ _______ _______ _____ _____    ______ ____
ROOT
ATOM      1  C   UNL     1      -0.290  11.069  19.050  0.00  0.00    +0.000 A 
ATOM      2  C   UNL     1       0.619  10.265  18.359  0.00  0.00    +0.000 A 
ATOM      3  C   UNL     1       1.192   9.204  19.037  0.00  0.00    +0.000 A 
ATOM      4  C   UNL     1       0.935   8.922  20.371  0.00  0.00    +0.000 A 
ATOM      5  C   UNL     1       0.101   9.752  21.114  0.00  0.00    +0.000 A 
ATOM      6  C   UNL     1      -0.510  10.829  20.430  0.00  0.00    +0.000 A 
ATOM      7  C   UNL     1       1.642   7.659  20.753  0.00  0.00    +0.000 C 
ATOM      8  N   UNL     1       2.333   7.272  19.532  0.00  0.00    +0.000 N 
ATOM      9  C   UNL     1       2.083   8.175  18.498  0.00  0.00    +0.000 C 
ATOM     10  O   UNL     1       2.446   8.196  17.333  0.00  0.00    +0.000 OA
ENDROOT
BRANCH   8  11
ATOM     11  C   UNL     1       3.158   6.119  19.454  0.00  0.00    +0.000 A 
ATOM     12  C   UNL     1       2.675   4.854  19.812  0.00  0.00    +0.000 A 
ATOM     13  C   UNL     1       3.471   3.714  19.696  0.00  0.00    +0.000 A 
ATOM     14  C   UNL     1       4.783   3.819  19.245  0.00  0.00    +0.000 A 
ATOM     15  C   UNL     1       5.306   5.069  18.910  0.00  0.00    +0.000 A 
ATOM     16  C   UNL     1       6.739   5.206  18.483  0.00  0.00    +0.000 C 
ATOM     17  C   UNL     1       4.487   6.208  19.006  0.00  0.00    +0.000 A 
ENDBRANCH   8  11
BRANCH   5  18
ATOM     18  C   UNL     1      -0.180   9.524  22.576  0.00  0.00    +0.000 C 
ATOM     19  F   UNL     1      -0.841  10.556  23.174  0.00  0.00    +0.000 F 
ATOM     20  F   UNL     1      -0.940   8.419  22.796  0.00  0.00    +0.000 F 
ATOM     21  F   UNL     1       0.959   9.350  23.298  0.00  0.00    +0.000 F 
ENDBRANCH   5  18
BRANCH   1  22
ATOM     22  C   UNL     1      -1.057  12.151  18.311  0.00  0.00    +0.000 C 
BRANCH  22  26
ATOM     23  C   UNL     1      -3.410  10.171  14.370  0.00  0.00    +0.000 C 
ATOM     24  C   UNL     1      -3.381  10.746  15.746  0.00  0.00    +0.000 C 
ATOM     25  C   UNL     1      -2.253  11.043  16.419  0.00  0.00    +0.000 C 
ATOM     26  N   UNL     1      -2.271  11.629  17.682  0.00  0.00    +0.000 N 
ATOM     27  C   UNL     1      -3.522  11.803  18.263  0.00  0.00    +0.000 C 
ATOM     28  C   UNL     1      -4.665  11.498  17.621  0.00  0.00    +0.000 C 
ATOM     29  C   UNL     1      -6.021  11.665  18.213  0.00  0.00    +0.000 C 
ATOM     30  O   UNL     1      -4.637  10.988  16.316  0.00  0.00    +0.000 OA
ENDBRANCH  22  26
ENDBRANCH   1  22
TORSDOF 4
ENDMDL
MODEL 4
REMARK VINA RESULT:      -9.7      3.837      8.579
REMARK  Name = 
REMARK  7 active torsions:
REMARK  status: ('A' for Active; 'I' for Inactive)
REMARK    1  A    between atoms: C_1  and  C_2
REMARK    2  A    between atoms: N_4  and  C_5
REMARK    3  A    between atoms: C_5  and  C_6
REMARK    4  A    between atoms: C_10  and  C_11
REMARK    5  A    between atoms: N_17  and  C_18
REMARK    6  A    between atoms: C_22  and  C_23
REMARK    7  A    between atoms: C_28  and  C_29
REMARK                            x       y       z     vdW  Elec       q    Type
REMARK                         _______ _______ _______ _____ _____    ______ ____
ROOT
ATOM      1  C   UNL     1      -0.387  11.152  19.120  0.00  0.00    +0.000 A 
ATOM      2  C   UNL     1       0.519  10.380  18.391  0.00  0.00    +0.000 A 
ATOM      3  C   UNL     1       1.124   9.312  19.031  0.00  0.00    +0.000 A 
ATOM      4  C   UNL     1       0.899   8.994  20.363  0.00  0.00    +0.000 A 
ATOM      5  C   UNL     1       0.068   9.792  21.143  0.00  0.00    +0.000 A 
ATOM      6  C   UNL     1      -0.575  10.875  20.498  0.00  0.00    +0.000 A 
ATOM      7  C   UNL     1       1.635   7.735  20.700  0.00  0.00    +0.000 C 
ATOM      8  N   UNL     1       2.306   7.388  19.456  0.00  0.00    +0.000 N 
ATOM      9  C   UNL     1       2.019   8.311  18.449  0.00  0.00    +0.000 C 
ATOM     10  O   UNL     1       2.357   8.366  17.277  0.00  0.00    +0.000 OA
ENDROOT
BRANCH   8  11
ATOM     11  C   UNL     1       3.147   6.251  19.333  0.00  0.00    +0.000 A 
ATOM     12  C   UNL     1       4.344   6.306  18.608  0.00  0.00    +0.000 A 
ATOM     13  C   UNL     1       5.192   5.202  18.523  0.00  0.00    +0.000 A 
ATOM     14  C   UNL     1       4.846   4.003  19.138  0.00  0.00    +0.000 A 
ATOM     15  C   UNL     1       3.644   3.904  19.842  0.00  0.00    +0.000 A 
ATOM     16  C   UNL     1       3.226   2.600  20.458  0.00  0.00    +0.000 C 
ATOM     17  C   UNL     1       2.809   5.031  19.945  0.00  0.00    +0.000 A 
ENDBRANCH   8  11
BRANCH   5  18
ATOM     18  C   UNL     1      -0.178   9.525  22.604  0.00  0.00    +0.000 C 
ATOM     19  F   UNL     1       0.963   9.345  23.329  0.00  0.00    +0.000 F 
ATOM     20  F   UNL     1      -0.848  10.539  23.215  0.00  0.00    +0.000 F 
ATOM     21  F   UNL     1      -0.922   8.405  22.806  0.00  0.00    +0.000 F 
ENDBRANCH   5  18
BRANCH   1  22
ATOM     22  C   UNL     1      -1.188  12.238  18.423  0.00  0.00    +0.000 C 
BRANCH  22  26
ATOM     23  C   UNL     1      -3.412  10.201  14.436  0.00  0.00    +0.000 C 
ATOM     24  C   UNL     1      -3.427  10.792  15.806  0.00  0.00    +0.000 C 
ATOM     25  C   UNL     1      -2.321  11.102  16.509  0.00  0.00    +0.000 C 
ATOM     26  N   UNL     1      -2.380  11.703  17.763  0.00  0.00    +0.000 N 
ATOM     27  C   UNL     1      -3.649  11.877  18.305  0.00  0.00    +0.000 C 
ATOM     28  C   UNL     1      -4.770  11.559  17.632  0.00  0.00    +0.000 C 
ATOM     29  C   UNL     1      -6.144  11.726  18.181  0.00  0.00    +0.000 C 
ATOM     30  O   UNL     1      -4.701  11.034  16.335  0.00  0.00    +0.000 OA
ENDBRANCH  22  26
ENDBRANCH   1  22
TORSDOF 4
ENDMDL
MODEL 5
REMARK VINA RESULT:      -9.6      3.702      8.497
REMARK  Name = 
REMARK  7 active torsions:
REMARK  status: ('A' for Active; 'I' for Inactive)
REMARK    1  A    between atoms: C_1  and  C_2
REMARK    2  A    between atoms: N_4  and  C_5
REMARK    3  A    between atoms: C_5  and  C_6
REMARK    4  A    between atoms: C_10  and  C_11
REMARK    5  A    between atoms: N_17  and  C_18
REMARK    6  A    between atoms: C_22  and  C_23
REMARK    7  A    between atoms: C_28  and  C_29
REMARK                            x       y       z     vdW  Elec       q    Type
REMARK                         _______ _______ _______ _____ _____    ______ ____
ROOT
ATOM      1  C   UNL     1      -0.218  11.182  19.200  0.00  0.00    +0.000 A 
ATOM      2  C   UNL     1       0.659  10.341  18.515  0.00  0.00    +0.000 A 
ATOM      3  C   UNL     1       1.168   9.245  19.188  0.00  0.00    +0.000 A 
ATOM      4  C   UNL     1       0.875   8.962  20.515  0.00  0.00    +0.000 A 
ATOM      5  C   UNL     1       0.073   9.825  21.255  0.00  0.00    +0.000 A 
ATOM      6  C   UNL     1      -0.473  10.938  20.574  0.00  0.00    +0.000 A 
ATOM      7  C   UNL     1       1.513   7.661  20.893  0.00  0.00    +0.000 C 
ATOM      8  N   UNL     1       2.202   7.253  19.678  0.00  0.00    +0.000 N 
ATOM      9  C   UNL     1       2.014   8.179  18.651  0.00  0.00    +0.000 C 
ATOM     10  O   UNL     1       2.396   8.194  17.492  0.00  0.00    +0.000 OA
ENDROOT
BRANCH   8  11
ATOM     11  C   UNL     1       2.969   6.060  19.600  0.00  0.00    +0.000 A 
ATOM     12  C   UNL     1       2.468   4.841  20.073  0.00  0.00    +0.000 A 
ATOM     13  C   UNL     1       3.203   3.661  19.958  0.00  0.00    +0.000 A 
ATOM     14  C   UNL     1       4.474   3.680  19.392  0.00  0.00    +0.000 A 
ATOM     15  C   UNL     1       5.016   4.884  18.938  0.00  0.00    +0.000 A 
ATOM     16  C   UNL     1       6.410   4.931  18.383  0.00  0.00    +0.000 C 
ATOM     17  C   UNL     1       4.256   6.063  19.035  0.00  0.00    +0.000 A 
ENDBRANCH   8  11
BRANCH   5  18
ATOM     18  C   UNL     1      -0.242   9.596  22.709  0.00  0.00    +0.000 C 
ATOM     19  F   UNL     1      -0.928  10.621  23.290  0.00  0.00    +0.000 F 
ATOM     20  F   UNL     1      -0.997   8.484  22.912  0.00  0.00    +0.000 F 
ATOM     21  F   UNL     1       0.880   9.434  23.460  0.00  0.00    +0.000 F 
ENDBRANCH   5  18
BRANCH   1  22
ATOM     22  C   UNL     1      -0.919  12.310  18.462  0.00  0.00    +0.000 C 
BRANCH  22  26
ATOM     23  C   UNL     1      -5.769  11.129  18.720  0.00  0.00    +0.000 C 
ATOM     24  C   UNL     1      -4.466  11.234  18.002  0.00  0.00    +0.000 C 
ATOM     25  C   UNL     1      -3.370  11.832  18.506  0.00  0.00    +0.000 C 
ATOM     26  N   UNL     1      -2.157  11.860  17.823  0.00  0.00    +0.000 N 
ATOM     27  C   UNL     1      -2.158  11.325  16.540  0.00  0.00    +0.000 C 
ATOM     28  C   UNL     1      -3.244  10.738  16.005  0.00  0.00    +0.000 C 
ATOM     29  C   UNL     1      -3.285  10.160  14.633  0.00  0.00    +0.000 C 
ATOM     30  O   UNL     1      -4.436  10.639  16.734  0.00  0.00    +0.000 OA
ENDBRANCH  22  26
ENDBRANCH   1  22
TORSDOF 4
ENDMDL
MODEL 6
REMARK VINA RESULT:      -9.6      3.674      8.433
REMARK  Name = 
REMARK  7 active torsions:
REMARK  status: ('A' for Active; 'I' for Inactive)
REMARK    1  A    between atoms: C_1  and  C_2
REMARK    2  A    between atoms: N_4  and  C_5
REMARK    3  A    between atoms: C_5  and  C_6
REMARK    4  A    between atoms: C_10  and  C_11
REMARK    5  A    between atoms: N_17  and  C_18
REMARK    6  A    between atoms: C_22  and  C_23
REMARK    7  A    between atoms: C_28  and  C_29
REMARK                            x       y       z     vdW  Elec       q    Type
REMARK                         _______ _______ _______ _____ _____    ______ ____
ROOT
ATOM      1  C   UNL     1      -0.127  11.202  19.150  0.00  0.00    +0.000 A 
ATOM      2  C   UNL     1       0.740  10.376  18.432  0.00  0.00    +0.000 A 
ATOM      3  C   UNL     1       1.248   9.257  19.068  0.00  0.00    +0.000 A 
ATOM      4  C   UNL     1       0.966   8.937  20.389  0.00  0.00    +0.000 A 
ATOM      5  C   UNL     1       0.175   9.782  21.162  0.00  0.00    +0.000 A 
ATOM      6  C   UNL     1      -0.370  10.919  20.519  0.00  0.00    +0.000 A 
ATOM      7  C   UNL     1       1.598   7.622  20.723  0.00  0.00    +0.000 C 
ATOM      8  N   UNL     1       2.274   7.245  19.490  0.00  0.00    +0.000 N 
ATOM      9  C   UNL     1       2.082   8.202  18.492  0.00  0.00    +0.000 C 
ATOM     10  O   UNL     1       2.454   8.249  17.330  0.00  0.00    +0.000 OA
ENDROOT
BRANCH   8  11
ATOM     11  C   UNL     1       3.033   6.051  19.369  0.00  0.00    +0.000 A 
ATOM     12  C   UNL     1       4.426   6.086  19.225  0.00  0.00    +0.000 A 
ATOM     13  C   UNL     1       5.176   4.913  19.150  0.00  0.00    +0.000 A 
ATOM     14  C   UNL     1       4.545   3.674  19.186  0.00  0.00    +0.000 A 
ATOM     15  C   UNL     1       3.155   3.603  19.297  0.00  0.00    +0.000 A 
ATOM     16  C   UNL     1       2.454   2.276  19.273  0.00  0.00    +0.000 C 
ATOM     17  C   UNL     1       2.410   4.792  19.399  0.00  0.00    +0.000 A 
ENDBRANCH   8  11
BRANCH   5  18
ATOM     18  C   UNL     1      -0.127   9.513  22.611  0.00  0.00    +0.000 C 
ATOM     19  F   UNL     1      -0.910   8.415  22.813  0.00  0.00    +0.000 F 
ATOM     20  F   UNL     1       0.995   9.308  23.350  0.00  0.00    +0.000 F 
ATOM     21  F   UNL     1      -0.785  10.546  23.201  0.00  0.00    +0.000 F 
ENDBRANCH   5  18
BRANCH   1  22
ATOM     22  C   UNL     1      -0.827  12.354  18.452  0.00  0.00    +0.000 C 
BRANCH  22  26
ATOM     23  C   UNL     1      -5.713  11.405  18.914  0.00  0.00    +0.000 C 
ATOM     24  C   UNL     1      -4.434  11.432  18.147  0.00  0.00    +0.000 C 
ATOM     25  C   UNL     1      -3.294  11.991  18.596  0.00  0.00    +0.000 C 
ATOM     26  N   UNL     1      -2.106  11.946  17.870  0.00  0.00    +0.000 N 
ATOM     27  C   UNL     1      -2.179  11.379  16.602  0.00  0.00    +0.000 C 
ATOM     28  C   UNL     1      -3.309  10.829  16.122  0.00  0.00    +0.000 C 
ATOM     29  C   UNL     1      -3.427  10.218  14.769  0.00  0.00    +0.000 C 
ATOM     30  O   UNL     1      -4.477  10.804  16.896  0.00  0.00    +0.000 OA
ENDBRANCH  22  26
ENDBRANCH   1  22
TORSDOF 4
ENDMDL
MODEL 7
REMARK VINA RESULT:      -9.6      0.411      1.961
REMARK  Name = 
REMARK  7 active torsions:
REMARK  status: ('A' for Active; 'I' for Inactive)
REMARK    1  A    between atoms: C_1  and  C_2
REMARK    2  A    between atoms: N_4  and  C_5
REMARK    3  A    between atoms: C_5  and  C_6
REMARK    4  A    between atoms: C_10  and  C_11
REMARK    5  A    between atoms: N_17  and  C_18
REMARK    6  A    between atoms: C_22  and  C_23
REMARK    7  A    between atoms: C_28  and  C_29
REMARK                            x       y       z     vdW  Elec       q    Type
REMARK                         _______ _______ _______ _____ _____    ______ ____
ROOT
ATOM      1  C   UNL     1       3.585   4.123  17.902  0.00  0.00    +0.000 A 
ATOM      2  C   UNL     1       3.176   5.451  17.761  0.00  0.00    +0.000 A 
ATOM      3  C   UNL     1       2.499   6.036  18.815  0.00  0.00    +0.000 A 
ATOM      4  C   UNL     1       2.178   5.362  19.985  0.00  0.00    +0.000 A 
ATOM      5  C   UNL     1       2.493   4.014  20.126  0.00  0.00    +0.000 A 
ATOM      6  C   UNL     1       3.206   3.406  19.065  0.00  0.00    +0.000 A 
ATOM      7  C   UNL     1       1.534   6.316  20.942  0.00  0.00    +0.000 C 
ATOM      8  N   UNL     1       1.501   7.570  20.205  0.00  0.00    +0.000 N 
ATOM      9  C   UNL     1       2.067   7.429  18.937  0.00  0.00    +0.000 C 
ATOM     10  O   UNL     1       2.252   8.233  18.037  0.00  0.00    +0.000 OA
ENDROOT
BRANCH   8  11
ATOM     11  C   UNL     1       0.942   8.758  20.744  0.00  0.00    +0.000 A 
ATOM     12  C   UNL     1       0.468   8.806  22.062  0.00  0.00    +0.000 A 
ATOM     13  C   UNL     1      -0.043   9.985  22.606  0.00  0.00    +0.000 A 
ATOM     14  C   UNL     1      -0.119  11.139  21.832  0.00  0.00    +0.000 A 
ATOM     15  C   UNL     1       0.315  11.117  20.506  0.00  0.00    +0.000 A 
ATOM     16  C   UNL     1       0.180  12.336  19.639  0.00  0.00    +0.000 C 
ATOM     17  C   UNL     1       0.853   9.931  19.975  0.00  0.00    +0.000 A 
ENDBRANCH   8  11
BRANCH   5  18
ATOM     18  C   UNL     1       2.131   3.218  21.350  0.00  0.00    +0.000 C 
ATOM     19  F   UNL     1       2.819   2.047  21.467  0.00  0.00    +0.000 F 
ATOM     20  F   UNL     1       2.362   3.899  22.504  0.00  0.00    +0.000 F 
ATOM     21  F   UNL     1       0.816   2.874  21.371  0.00  0.00    +0.000 F 
ENDBRANCH   5  18
BRANCH   1  22
ATOM     22  C   UNL     1       4.461   3.484  16.838  0.00  0.00    +0.000 C 
BRANCH  22  26
ATOM     23  C   UNL     1       7.630   4.920  13.249  0.00  0.00    +0.000 C 
ATOM     24  C   UNL     1       7.027   5.032  14.608  0.00  0.00    +0.000 C 
ATOM     25  C   UNL     1       5.964   4.319  15.026  0.00  0.00    +0.000 C 
ATOM     26  N   UNL     1       5.465   4.415  16.323  0.00  0.00    +0.000 N 
ATOM     27  C   UNL     1       6.061   5.367  17.144  0.00  0.00    +0.000 C 
ATOM     28  C   UNL     1       7.112   6.107  16.745  0.00  0.00    +0.000 C 
ATOM     29  C   UNL     1       7.771   7.139  17.593  0.00  0.00    +0.000 C 
ATOM     30  O   UNL     1       7.659   5.941  15.466  0.00  0.00    +0.000 OA
ENDBRANCH  22  26
ENDBRANCH   1  22
TORSDOF 4
ENDMDL
MODEL 8
REMARK VINA RESULT:      -9.4      0.191      1.539
REMARK  Name = 
REMARK  7 active torsions:
REMARK  status: ('A' for Active; 'I' for Inactive)
REMARK    1  A    between atoms: C_1  and  C_2
REMARK    2  A    between atoms: N_4  and  C_5
REMARK    3  A    between atoms: C_5  and  C_6
REMARK    4  A    between atoms: C_10  and  C_11
REMARK    5  A    between atoms: N_17  and  C_18
REMARK    6  A    between atoms: C_22  and  C_23
REMARK    7  A    between atoms: C_28  and  C_29
REMARK                            x       y       z     vdW  Elec       q    Type
REMARK                         _______ _______ _______ _____ _____    ______ ____
ROOT
ATOM      1  C   UNL     1       3.655   4.158  17.889  0.00  0.00    +0.000 A 
ATOM      2  C   UNL     1       3.256   5.473  17.647  0.00  0.00    +0.000 A 
ATOM      3  C   UNL     1       2.555   6.132  18.640  0.00  0.00    +0.000 A 
ATOM      4  C   UNL     1       2.201   5.541  19.846  0.00  0.00    +0.000 A 
ATOM      5  C   UNL     1       2.507   4.205  20.087  0.00  0.00    +0.000 A 
ATOM      6  C   UNL     1       3.244   3.524  19.089  0.00  0.00    +0.000 A 
ATOM      7  C   UNL     1       1.538   6.560  20.719  0.00  0.00    +0.000 C 
ATOM      8  N   UNL     1       1.530   7.761  19.896  0.00  0.00    +0.000 N 
ATOM      9  C   UNL     1       2.127   7.531  18.656  0.00  0.00    +0.000 C 
ATOM     10  O   UNL     1       2.337   8.271  17.707  0.00  0.00    +0.000 OA
ENDROOT
BRANCH   8  11
ATOM     11  C   UNL     1       0.962   8.985  20.338  0.00  0.00    +0.000 A 
ATOM     12  C   UNL     1       1.063  10.152  19.571  0.00  0.00    +0.000 A 
ATOM     13  C   UNL     1       0.469  11.345  19.984  0.00  0.00    +0.000 A 
ATOM     14  C   UNL     1      -0.216  11.404  21.194  0.00  0.00    +0.000 A 
ATOM     15  C   UNL     1      -0.309  10.267  21.998  0.00  0.00    +0.000 A 
ATOM     16  C   UNL     1      -0.990  10.331  23.335  0.00  0.00    +0.000 C 
ATOM     17  C   UNL     1       0.271   9.063  21.560  0.00  0.00    +0.000 A 
ENDBRANCH   8  11
BRANCH   5  18
ATOM     18  C   UNL     1       2.111   3.496  21.354  0.00  0.00    +0.000 C 
ATOM     19  F   UNL     1       2.690   2.270  21.501  0.00  0.00    +0.000 F 
ATOM     20  F   UNL     1       2.440   4.197  22.471  0.00  0.00    +0.000 F 
ATOM     21  F   UNL     1       0.770   3.279  21.425  0.00  0.00    +0.000 F 
ENDBRANCH   5  18
BRANCH   1  22
ATOM     22  C   UNL     1       4.554   3.444  16.894  0.00  0.00    +0.000 C 
BRANCH  22  26
ATOM     23  C   UNL     1       7.588   4.686  13.121  0.00  0.00    +0.000 C 
ATOM     24  C   UNL     1       7.029   4.876  14.491  0.00  0.00    +0.000 C 
ATOM     25  C   UNL     1       5.988   4.180  14.986  0.00  0.00    +0.000 C 
ATOM     26  N   UNL     1       5.531   4.351  16.290  0.00  0.00    +0.000 N 
ATOM     27  C   UNL     1       6.143   5.356  17.032  0.00  0.00    +0.000 C 
ATOM     28  C   UNL     1       7.172   6.079  16.554  0.00  0.00    +0.000 C 
ATOM     29  C   UNL     1       7.848   7.167  17.316  0.00  0.00    +0.000 C 
ATOM     30  O   UNL     1       7.680   5.841  15.271  0.00  0.00    +0.000 OA
ENDBRANCH  22  26
ENDBRANCH   1  22
TORSDOF 4
ENDMDL
MODEL 9
REMARK VINA RESULT:      -9.0      3.490      8.891
REMARK  Name = 
REMARK  7 active torsions:
REMARK  status: ('A' for Active; 'I' for Inactive)
REMARK    1  A    between atoms: C_1  and  C_2
REMARK    2  A    between atoms: N_4  and  C_5
REMARK    3  A    between atoms: C_5  and  C_6
REMARK    4  A    between atoms: C_10  and  C_11
REMARK    5  A    between atoms: N_17  and  C_18
REMARK    6  A    between atoms: C_22  and  C_23
REMARK    7  A    between atoms: C_28  and  C_29
REMARK                            x       y       z     vdW  Elec       q    Type
REMARK                         _______ _______ _______ _____ _____    ______ ____
ROOT
ATOM      1  C   UNL     1       0.111  11.230  19.238  0.00  0.00    +0.000 A 
ATOM      2  C   UNL     1       0.926  10.419  18.445  0.00  0.00    +0.000 A 
ATOM      3  C   UNL     1       1.398   9.240  18.993  0.00  0.00    +0.000 A 
ATOM      4  C   UNL     1       1.130   8.843  20.297  0.00  0.00    +0.000 A 
ATOM      5  C   UNL     1       0.393   9.667  21.142  0.00  0.00    +0.000 A 
ATOM      6  C   UNL     1      -0.115  10.866  20.590  0.00  0.00    +0.000 A 
ATOM      7  C   UNL     1       1.712   7.484  20.527  0.00  0.00    +0.000 C 
ATOM      8  N   UNL     1       2.345   7.163  19.256  0.00  0.00    +0.000 N 
ATOM      9  C   UNL     1       2.173   8.192  18.329  0.00  0.00    +0.000 C 
ATOM     10  O   UNL     1       2.522   8.302  17.164  0.00  0.00    +0.000 OA
ENDROOT
BRANCH   8  11
ATOM     11  C   UNL     1       3.048   5.949  19.038  0.00  0.00    +0.000 A 
ATOM     12  C   UNL     1       4.411   5.834  19.339  0.00  0.00    +0.000 A 
ATOM     13  C   UNL     1       5.093   4.630  19.166  0.00  0.00    +0.000 A 
ATOM     14  C   UNL     1       4.432   3.517  18.656  0.00  0.00    +0.000 A 
ATOM     15  C   UNL     1       3.081   3.606  18.315  0.00  0.00    +0.000 A 
ATOM     16  C   UNL     1       2.369   2.433  17.705  0.00  0.00    +0.000 C 
ATOM     17  C   UNL     1       2.396   4.817  18.519  0.00  0.00    +0.000 A 
ENDBRANCH   8  11
BRANCH   5  18
ATOM     18  C   UNL     1       0.110   9.313  22.577  0.00  0.00    +0.000 C 
ATOM     19  F   UNL     1      -0.493  10.314  23.280  0.00  0.00    +0.000 F 
ATOM     20  F   UNL     1      -0.707   8.232  22.698  0.00  0.00    +0.000 F 
ATOM     21  F   UNL     1       1.241   9.011  23.267  0.00  0.00    +0.000 F 
ENDBRANCH   5  18
BRANCH   1  22
ATOM     22  C   UNL     1      -0.553  12.456  18.635  0.00  0.00    +0.000 C 
BRANCH  22  26
ATOM     23  C   UNL     1      -4.307  13.726  21.680  0.00  0.00    +0.000 C 
ATOM     24  C   UNL     1      -3.753  13.071  20.461  0.00  0.00    +0.000 C 
ATOM     25  C   UNL     1      -2.474  13.183  20.056  0.00  0.00    +0.000 C 
ATOM     26  N   UNL     1      -1.983  12.510  18.940  0.00  0.00    +0.000 N 
ATOM     27  C   UNL     1      -2.912  11.789  18.197  0.00  0.00    +0.000 C 
ATOM     28  C   UNL     1      -4.200  11.675  18.569  0.00  0.00    +0.000 C 
ATOM     29  C   UNL     1      -5.224  10.917  17.796  0.00  0.00    +0.000 C 
ATOM     30  O   UNL     1      -4.664  12.287  19.740  0.00  0.00    +0.000 OA
ENDBRANCH  22  26
ENDBRANCH   1  22
TORSDOF 4
ENDMDL
