MODEL 1
REMARK VINA RESULT:      -8.9      0.000      0.000
REMARK  Name = 
REMARK  6 active torsions:
REMARK  status: ('A' for Active; 'I' for Inactive)
REMARK    1  A    between atoms: C_1  and  C_2
REMARK    2  A    between atoms: C_8  and  C_9
REMARK    3  A    between atoms: N_11  and  C_12
REMARK    4  A    between atoms: N_19  and  C_20
REMARK    5  A    between atoms: C_20  and  C_21
REMARK    6  A    between atoms: C_21  and  C_22
REMARK                            x       y       z     vdW  Elec       q    Type
REMARK                         _______ _______ _______ _____ _____    ______ ____
ROOT
ATOM      1  C   UNL     1       7.024   6.034  18.764  0.00  0.00    +0.000 C 
ATOM      2  C   UNL     1       6.380   5.528  17.475  0.00  0.00    +0.000 C 
ATOM      3  C   UNL     1       5.227   6.444  17.008  0.00  0.00    +0.000 C 
ATOM      4  N   UNL     1       4.075   6.270  17.927  0.00  0.00    +0.000 N 
ATOM      5  C   UNL     1       3.157   7.275  17.907  0.00  0.00    +0.000 A 
ATOM      6  N   UNL     1       2.901   8.116  16.935  0.00  0.00    +0.000 NA
ATOM      7  N   UNL     1       2.058   9.080  17.417  0.00  0.00    +0.000 NA
ATOM      8  C   UNL     1       1.838   8.863  18.701  0.00  0.00    +0.000 A 
ATOM      9  N   UNL     1       2.482   7.691  19.044  0.00  0.00    +0.000 N 
ATOM     10  C   UNL     1       3.612   4.872  17.847  0.00  0.00    +0.000 C 
ATOM     11  C   UNL     1       4.755   3.975  18.353  0.00  0.00    +0.000 C 
ATOM     12  O   UNL     1       5.964   4.150  17.592  0.00  0.00    +0.000 OA
ENDROOT
BRANCH   8  13
ATOM     13  C   UNL     1       0.963   9.805  19.493  0.00  0.00    +0.000 A 
ATOM     14  C   UNL     1       0.364  10.869  18.839  0.00  0.00    +0.000 A 
ATOM     15  N   UNL     1      -0.452  11.521  19.715  0.00  0.00    +0.000 N 
ATOM     16  C   UNL     1      -1.205  12.718  19.413  0.00  0.00    +0.000 C 
ATOM     17  C   UNL     1      -0.426  10.891  20.936  0.00  0.00    +0.000 A 
ATOM     18  C   UNL     1      -1.165  11.157  22.103  0.00  0.00    +0.000 A 
ATOM     19  C   UNL     1      -0.893  10.407  23.244  0.00  0.00    +0.000 A 
ATOM     20  C   UNL     1       0.131   9.473  23.243  0.00  0.00    +0.000 A 
ATOM     21  C   UNL     1       0.868   9.231  22.078  0.00  0.00    +0.000 A 
ATOM     22  C   UNL     1       0.548   9.881  20.865  0.00  0.00    +0.000 A 
ENDBRANCH   8  13
BRANCH   9  23
ATOM     23  C   UNL     1       2.417   6.950  20.285  0.00  0.00    +0.000 C 
BRANCH  23  24
ATOM     24  C   UNL     1       1.169   6.070  20.405  0.00  0.00    +0.000 C 
BRANCH  24  25
ATOM     25  C   UNL     1       1.376   4.569  20.433  0.00  0.00    +0.000 A 
ATOM     26  C   UNL     1       0.804   3.696  19.498  0.00  0.00    +0.000 A 
ATOM     27  C   UNL     1       1.099   2.330  19.525  0.00  0.00    +0.000 A 
ATOM     28  C   UNL     1       1.975   1.817  20.478  0.00  0.00    +0.000 A 
ATOM     29  C   UNL     1       2.553   2.670  21.413  0.00  0.00    +0.000 A 
ATOM     30  C   UNL     1       2.257   4.035  21.389  0.00  0.00    +0.000 A 
ENDBRANCH  24  25
ENDBRANCH  23  24
ENDBRANCH   9  23
TORSDOF 4
ENDMDL
MODEL 2
REMARK VINA RESULT:      -8.2      0.806      1.961
REMARK  Name = 
REMARK  6 active torsions:
REMARK  status: ('A' for Active; 'I' for Inactive)
REMARK    1  A    between atoms: C_1  and  C_2
REMARK    2  A    between atoms: C_8  and  C_9
REMARK    3  A    between atoms: N_11  and  C_12
REMARK    4  A    between atoms: N_19  and  C_20
REMARK    5  A    between atoms: C_20  and  C_21
REMARK    6  A    between atoms: C_21  and  C_22
REMARK                            x       y       z     vdW  Elec       q    Type
REMARK                         _______ _______ _______ _____ _____    ______ ____
ROOT
ATOM      1  C   UNL     1       7.206   6.298  18.667  0.00  0.00    +0.000 C 
ATOM      2  C   UNL     1       6.625   5.917  17.307  0.00  0.00    +0.000 C 
ATOM      3  C   UNL     1       5.404   6.790  16.937  0.00  0.00    +0.000 C 
ATOM      4  N   UNL     1       4.260   6.401  17.797  0.00  0.00    +0.000 N 
ATOM      5  C   UNL     1       3.260   7.320  17.886  0.00  0.00    +0.000 A 
ATOM      6  N   UNL     1       2.946   8.260  17.027  0.00  0.00    +0.000 NA
ATOM      7  N   UNL     1       2.019   9.078  17.612  0.00  0.00    +0.000 NA
ATOM      8  C   UNL     1       1.800   8.675  18.850  0.00  0.00    +0.000 A 
ATOM      9  N   UNL     1       2.537   7.525  19.052  0.00  0.00    +0.000 N 
ATOM     10  C   UNL     1       3.917   4.993  17.521  0.00  0.00    +0.000 C 
ATOM     11  C   UNL     1       5.126   4.133  17.933  0.00  0.00    +0.000 C 
ATOM     12  O   UNL     1       6.325   4.506  17.231  0.00  0.00    +0.000 OA
ENDROOT
BRANCH   8  13
ATOM     13  C   UNL     1       0.838   9.428  19.738  0.00  0.00    +0.000 A 
ATOM     14  C   UNL     1       0.883   9.214  21.105  0.00  0.00    +0.000 A 
ATOM     15  N   UNL     1       0.007  10.062  21.712  0.00  0.00    +0.000 N 
ATOM     16  C   UNL     1      -0.266  10.096  23.133  0.00  0.00    +0.000 C 
ATOM     17  C   UNL     1      -0.603  10.858  20.772  0.00  0.00    +0.000 A 
ATOM     18  C   UNL     1      -1.506  11.923  20.942  0.00  0.00    +0.000 A 
ATOM     19  C   UNL     1      -2.039  12.525  19.805  0.00  0.00    +0.000 A 
ATOM     20  C   UNL     1      -1.739  12.034  18.544  0.00  0.00    +0.000 A 
ATOM     21  C   UNL     1      -0.850  10.964  18.393  0.00  0.00    +0.000 A 
ATOM     22  C   UNL     1      -0.193  10.400  19.509  0.00  0.00    +0.000 A 
ENDBRANCH   8  13
BRANCH   9  23
ATOM     23  C   UNL     1       2.519   6.622  20.182  0.00  0.00    +0.000 C 
BRANCH  23  24
ATOM     24  C   UNL     1       1.229   5.801  20.287  0.00  0.00    +0.000 C 
BRANCH  24  25
ATOM     25  C   UNL     1       1.339   4.304  20.083  0.00  0.00    +0.000 A 
ATOM     26  C   UNL     1       1.008   3.664  18.881  0.00  0.00    +0.000 A 
ATOM     27  C   UNL     1       1.210   2.290  18.726  0.00  0.00    +0.000 A 
ATOM     28  C   UNL     1       1.752   1.536  19.763  0.00  0.00    +0.000 A 
ATOM     29  C   UNL     1       2.087   2.154  20.964  0.00  0.00    +0.000 A 
ATOM     30  C   UNL     1       1.883   3.528  21.121  0.00  0.00    +0.000 A 
ENDBRANCH  24  25
ENDBRANCH  23  24
ENDBRANCH   9  23
TORSDOF 4
ENDMDL
MODEL 3
REMARK VINA RESULT:      -8.1      2.399      6.686
REMARK  Name = 
REMARK  6 active torsions:
REMARK  status: ('A' for Active; 'I' for Inactive)
REMARK    1  A    between atoms: C_1  and  C_2
REMARK    2  A    between atoms: C_8  and  C_9
REMARK    3  A    between atoms: N_11  and  C_12
REMARK    4  A    between atoms: N_19  and  C_20
REMARK    5  A    between atoms: C_20  and  C_21
REMARK    6  A    between atoms: C_21  and  C_22
REMARK                            x       y       z     vdW  Elec       q    Type
REMARK                         _______ _______ _______ _____ _____    ______ ____
ROOT
ATOM      1  C   UNL     1      -2.525  10.039  18.262  0.00  0.00    +0.000 C 
ATOM      2  C   UNL     1      -1.615  11.249  18.466  0.00  0.00    +0.000 C 
ATOM      3  C   UNL     1      -0.169  10.967  17.999  0.00  0.00    +0.000 C 
ATOM      4  N   UNL     1       0.469  10.031  18.957  0.00  0.00    +0.000 N 
ATOM      5  C   UNL     1       1.565   9.375  18.487  0.00  0.00    +0.000 A 
ATOM      6  N   UNL     1       2.380   9.744  17.529  0.00  0.00    +0.000 NA
ATOM      7  N   UNL     1       3.212   8.695  17.250  0.00  0.00    +0.000 NA
ATOM      8  C   UNL     1       2.876   7.661  18.000  0.00  0.00    +0.000 A 
ATOM      9  N   UNL     1       1.860   8.066  18.840  0.00  0.00    +0.000 N 
ATOM     10  C   UNL     1       0.533  10.678  20.281  0.00  0.00    +0.000 C 
ATOM     11  C   UNL     1      -0.914  10.915  20.751  0.00  0.00    +0.000 C 
ATOM     12  O   UNL     1      -1.661  11.728  19.828  0.00  0.00    +0.000 OA
ENDROOT
BRANCH   8  13
ATOM     13  C   UNL     1       3.618   6.352  17.867  0.00  0.00    +0.000 A 
ATOM     14  C   UNL     1       4.999   6.355  17.959  0.00  0.00    +0.000 A 
ATOM     15  N   UNL     1       5.447   5.069  17.913  0.00  0.00    +0.000 N 
ATOM     16  C   UNL     1       6.838   4.673  17.926  0.00  0.00    +0.000 C 
ATOM     17  C   UNL     1       4.381   4.206  17.819  0.00  0.00    +0.000 A 
ATOM     18  C   UNL     1       4.357   2.799  17.828  0.00  0.00    +0.000 A 
ATOM     19  C   UNL     1       3.135   2.157  17.642  0.00  0.00    +0.000 A 
ATOM     20  C   UNL     1       1.988   2.892  17.383  0.00  0.00    +0.000 A 
ATOM     21  C   UNL     1       2.032   4.291  17.363  0.00  0.00    +0.000 A 
ATOM     22  C   UNL     1       3.223   4.987  17.664  0.00  0.00    +0.000 A 
ENDBRANCH   8  13
BRANCH   9  23
ATOM     23  C   UNL     1       1.259   7.354  19.947  0.00  0.00    +0.000 C 
BRANCH  23  24
ATOM     24  C   UNL     1       2.267   6.549  20.774  0.00  0.00    +0.000 C 
BRANCH  24  25
ATOM     25  C   UNL     1       2.089   5.045  20.815  0.00  0.00    +0.000 A 
ATOM     26  C   UNL     1       3.076   4.166  21.280  0.00  0.00    +0.000 A 
ATOM     27  C   UNL     1       2.822   2.794  21.372  0.00  0.00    +0.000 A 
ATOM     28  C   UNL     1       1.579   2.282  21.010  0.00  0.00    +0.000 A 
ATOM     29  C   UNL     1       0.587   3.140  20.546  0.00  0.00    +0.000 A 
ATOM     30  C   UNL     1       0.840   4.511  20.451  0.00  0.00    +0.000 A 
ENDBRANCH  24  25
ENDBRANCH  23  24
ENDBRANCH   9  23
TORSDOF 4
ENDMDL
MODEL 4
REMARK VINA RESULT:      -7.9      0.960      2.232
REMARK  Name = 
REMARK  6 active torsions:
REMARK  status: ('A' for Active; 'I' for Inactive)
REMARK    1  A    between atoms: C_1  and  C_2
REMARK    2  A    between atoms: C_8  and  C_9
REMARK    3  A    between atoms: N_11  and  C_12
REMARK    4  A    between atoms: N_19  and  C_20
REMARK    5  A    between atoms: C_20  and  C_21
REMARK    6  A    between atoms: C_21  and  C_22
REMARK                            x       y       z     vdW  Elec       q    Type
REMARK                         _______ _______ _______ _____ _____    ______ ____
ROOT
ATOM      1  C   UNL     1       7.328   6.542  18.918  0.00  0.00    +0.000 C 
ATOM      2  C   UNL     1       6.834   5.959  17.596  0.00  0.00    +0.000 C 
ATOM      3  C   UNL     1       5.599   6.716  17.058  0.00  0.00    +0.000 C 
ATOM      4  N   UNL     1       4.429   6.390  17.910  0.00  0.00    +0.000 N 
ATOM      5  C   UNL     1       3.389   7.265  17.830  0.00  0.00    +0.000 A 
ATOM      6  N   UNL     1       3.081   8.067  16.841  0.00  0.00    +0.000 NA
ATOM      7  N   UNL     1       2.093   8.911  17.268  0.00  0.00    +0.000 NA
ATOM      8  C   UNL     1       1.828   8.663  18.539  0.00  0.00    +0.000 A 
ATOM      9  N   UNL     1       2.600   7.586  18.925  0.00  0.00    +0.000 N 
ATOM     10  C   UNL     1       4.158   4.943  17.810  0.00  0.00    +0.000 C 
ATOM     11  C   UNL     1       5.379   4.203  18.386  0.00  0.00    +0.000 C 
ATOM     12  O   UNL     1       6.596   4.537  17.696  0.00  0.00    +0.000 OA
ENDROOT
BRANCH   8  13
ATOM     13  C   UNL     1       0.792   9.480  19.273  0.00  0.00    +0.000 A 
ATOM     14  C   UNL     1       0.963   9.715  20.627  0.00  0.00    +0.000 A 
ATOM     15  N   UNL     1      -0.025  10.547  21.058  0.00  0.00    +0.000 N 
ATOM     16  C   UNL     1      -0.211  10.976  22.428  0.00  0.00    +0.000 C 
ATOM     17  C   UNL     1      -0.838  10.894  20.005  0.00  0.00    +0.000 A 
ATOM     18  C   UNL     1      -1.923  11.789  19.961  0.00  0.00    +0.000 A 
ATOM     19  C   UNL     1      -2.635  11.906  18.769  0.00  0.00    +0.000 A 
ATOM     20  C   UNL     1      -2.321  11.105  17.682  0.00  0.00    +0.000 A 
ATOM     21  C   UNL     1      -1.248  10.209  17.748  0.00  0.00    +0.000 A 
ATOM     22  C   UNL     1      -0.424  10.142  18.893  0.00  0.00    +0.000 A 
ENDBRANCH   8  13
BRANCH   9  23
ATOM     23  C   UNL     1       2.561   6.839  20.163  0.00  0.00    +0.000 C 
BRANCH  23  24
ATOM     24  C   UNL     1       1.351   5.906  20.276  0.00  0.00    +0.000 C 
BRANCH  24  25
ATOM     25  C   UNL     1       1.600   4.422  20.106  0.00  0.00    +0.000 A 
ATOM     26  C   UNL     1       2.261   3.638  21.061  0.00  0.00    +0.000 A 
ATOM     27  C   UNL     1       2.386   2.256  20.886  0.00  0.00    +0.000 A 
ATOM     28  C   UNL     1       1.847   1.637  19.761  0.00  0.00    +0.000 A 
ATOM     29  C   UNL     1       1.187   2.400  18.803  0.00  0.00    +0.000 A 
ATOM     30  C   UNL     1       1.063   3.780  18.975  0.00  0.00    +0.000 A 
ENDBRANCH  24  25
ENDBRANCH  23  24
ENDBRANCH   9  23
TORSDOF 4
ENDMDL
MODEL 5
REMARK VINA RESULT:      -7.6      3.306      7.831
REMARK  Name = 
REMARK  6 active torsions:
REMARK  status: ('A' for Active; 'I' for Inactive)
REMARK    1  A    between atoms: C_1  and  C_2
REMARK    2  A    between atoms: C_8  and  C_9
REMARK    3  A    between atoms: N_11  and  C_12
REMARK    4  A    between atoms: N_19  and  C_20
REMARK    5  A    between atoms: C_20  and  C_21
REMARK    6  A    between atoms: C_21  and  C_22
REMARK                            x       y       z     vdW  Elec       q    Type
REMARK                         _______ _______ _______ _____ _____    ______ ____
ROOT
ATOM      1  C   UNL     1       2.616  14.495  19.099  0.00  0.00    +0.000 C 
ATOM      2  C   UNL     1       1.513  14.622  20.147  0.00  0.00    +0.000 C 
ATOM      3  C   UNL     1       1.349  13.325  20.971  0.00  0.00    +0.000 C 
ATOM      4  N   UNL     1       0.735  12.284  20.110  0.00  0.00    +0.000 N 
ATOM      5  C   UNL     1       0.897  11.003  20.540  0.00  0.00    +0.000 A 
ATOM      6  N   UNL     1       1.111  10.581  21.762  0.00  0.00    +0.000 NA
ATOM      7  N   UNL     1       1.418   9.249  21.705  0.00  0.00    +0.000 NA
ATOM      8  C   UNL     1       1.447   8.862  20.443  0.00  0.00    +0.000 A 
ATOM      9  N   UNL     1       1.072   9.940  19.666  0.00  0.00    +0.000 N 
ATOM     10  C   UNL     1      -0.607  12.740  19.701  0.00  0.00    +0.000 C 
ATOM     11  C   UNL     1      -0.426  14.008  18.847  0.00  0.00    +0.000 C 
ATOM     12  O   UNL     1       0.265  15.050  19.558  0.00  0.00    +0.000 OA
ENDROOT
BRANCH   8  13
ATOM     13  C   UNL     1       1.796   7.436  20.091  0.00  0.00    +0.000 A 
ATOM     14  C   UNL     1       1.242   6.409  20.837  0.00  0.00    +0.000 A 
ATOM     15  N   UNL     1       1.610   5.218  20.288  0.00  0.00    +0.000 N 
ATOM     16  C   UNL     1       1.269   3.917  20.822  0.00  0.00    +0.000 C 
ATOM     17  C   UNL     1       2.381   5.435  19.171  0.00  0.00    +0.000 A 
ATOM     18  C   UNL     1       2.908   4.515  18.247  0.00  0.00    +0.000 A 
ATOM     19  C   UNL     1       3.729   4.996  17.229  0.00  0.00    +0.000 A 
ATOM     20  C   UNL     1       4.070   6.338  17.178  0.00  0.00    +0.000 A 
ATOM     21  C   UNL     1       3.548   7.239  18.114  0.00  0.00    +0.000 A 
ATOM     22  C   UNL     1       2.619   6.818  19.090  0.00  0.00    +0.000 A 
ENDBRANCH   8  13
BRANCH   9  23
ATOM     23  C   UNL     1       0.800   9.985  18.246  0.00  0.00    +0.000 C 
BRANCH  23  24
ATOM     24  C   UNL     1      -0.428   9.166  17.834  0.00  0.00    +0.000 C 
BRANCH  24  25
ATOM     25  C   UNL     1      -1.652   9.931  17.375  0.00  0.00    +0.000 A 
ATOM     26  C   UNL     1      -2.106   9.935  16.049  0.00  0.00    +0.000 A 
ATOM     27  C   UNL     1      -3.290  10.592  15.703  0.00  0.00    +0.000 A 
ATOM     28  C   UNL     1      -4.042  11.247  16.675  0.00  0.00    +0.000 A 
ATOM     29  C   UNL     1      -3.607  11.253  17.996  0.00  0.00    +0.000 A 
ATOM     30  C   UNL     1      -2.423  10.599  18.343  0.00  0.00    +0.000 A 
ENDBRANCH  24  25
ENDBRANCH  23  24
ENDBRANCH   9  23
TORSDOF 4
ENDMDL
MODEL 6
REMARK VINA RESULT:      -7.4      2.031      4.509
REMARK  Name = 
REMARK  6 active torsions:
REMARK  status: ('A' for Active; 'I' for Inactive)
REMARK    1  A    between atoms: C_1  and  C_2
REMARK    2  A    between atoms: C_8  and  C_9
REMARK    3  A    between atoms: N_11  and  C_12
REMARK    4  A    between atoms: N_19  and  C_20
REMARK    5  A    between atoms: C_20  and  C_21
REMARK    6  A    between atoms: C_21  and  C_22
REMARK                            x       y       z     vdW  Elec       q    Type
REMARK                         _______ _______ _______ _____ _____    ______ ____
ROOT
ATOM      1  C   UNL     1       1.042   2.490  18.579  0.00  0.00    +0.000 C 
ATOM      2  C   UNL     1       1.980   2.517  19.784  0.00  0.00    +0.000 C 
ATOM      3  C   UNL     1       1.898   3.858  20.548  0.00  0.00    +0.000 C 
ATOM      4  N   UNL     1       2.539   4.916  19.729  0.00  0.00    +0.000 N 
ATOM      5  C   UNL     1       2.198   6.192  20.056  0.00  0.00    +0.000 A 
ATOM      6  N   UNL     1       1.765   6.643  21.208  0.00  0.00    +0.000 NA
ATOM      7  N   UNL     1       1.350   7.935  21.031  0.00  0.00    +0.000 NA
ATOM      8  C   UNL     1       1.479   8.263  19.758  0.00  0.00    +0.000 A 
ATOM      9  N   UNL     1       2.063   7.194  19.107  0.00  0.00    +0.000 N 
ATOM     10  C   UNL     1       3.964   4.577  19.548  0.00  0.00    +0.000 C 
ATOM     11  C   UNL     1       4.030   3.262  18.750  0.00  0.00    +0.000 C 
ATOM     12  O   UNL     1       3.337   2.188  19.410  0.00  0.00    +0.000 OA
ENDROOT
BRANCH   8  13
ATOM     13  C   UNL     1       1.059   9.632  19.278  0.00  0.00    +0.000 A 
ATOM     14  C   UNL     1       2.020  10.621  19.157  0.00  0.00    +0.000 A 
ATOM     15  N   UNL     1       1.443  11.732  18.619  0.00  0.00    +0.000 N 
ATOM     16  C   UNL     1       2.118  12.991  18.392  0.00  0.00    +0.000 C 
ATOM     17  C   UNL     1       0.116  11.489  18.354  0.00  0.00    +0.000 A 
ATOM     18  C   UNL     1      -0.842  12.306  17.727  0.00  0.00    +0.000 A 
ATOM     19  C   UNL     1      -2.154  11.845  17.647  0.00  0.00    +0.000 A 
ATOM     20  C   UNL     1      -2.513  10.642  18.236  0.00  0.00    +0.000 A 
ATOM     21  C   UNL     1      -1.550   9.848  18.869  0.00  0.00    +0.000 A 
ATOM     22  C   UNL     1      -0.187  10.218  18.871  0.00  0.00    +0.000 A 
ENDBRANCH   8  13
BRANCH   9  23
ATOM     23  C   UNL     1       2.551   7.116  17.747  0.00  0.00    +0.000 C 
BRANCH  23  24
ATOM     24  C   UNL     1       3.946   7.722  17.564  0.00  0.00    +0.000 C 
BRANCH  24  25
ATOM     25  C   UNL     1       5.056   6.791  17.123  0.00  0.00    +0.000 A 
ATOM     26  C   UNL     1       6.336   6.794  17.693  0.00  0.00    +0.000 A 
ATOM     27  C   UNL     1       7.293   5.853  17.302  0.00  0.00    +0.000 A 
ATOM     28  C   UNL     1       6.985   4.892  16.343  0.00  0.00    +0.000 A 
ATOM     29  C   UNL     1       5.719   4.873  15.766  0.00  0.00    +0.000 A 
ATOM     30  C   UNL     1       4.762   5.814  16.154  0.00  0.00    +0.000 A 
ENDBRANCH  24  25
ENDBRANCH  23  24
ENDBRANCH   9  23
TORSDOF 4
ENDMDL
MODEL 7
REMARK VINA RESULT:      -7.4      3.503      8.088
REMARK  Name = 
REMARK  6 active torsions:
REMARK  status: ('A' for Active; 'I' for Inactive)
REMARK    1  A    between atoms: C_1  and  C_2
REMARK    2  A    between atoms: C_8  and  C_9
REMARK    3  A    between atoms: N_11  and  C_12
REMARK    4  A    between atoms: N_19  and  C_20
REMARK    5  A    between atoms: C_20  and  C_21
REMARK    6  A    between atoms: C_21  and  C_22
REMARK                            x       y       z     vdW  Elec       q    Type
REMARK                         _______ _______ _______ _____ _____    ______ ____
ROOT
ATOM      1  C   UNL     1       0.357  14.908  20.343  0.00  0.00    +0.000 C 
ATOM      2  C   UNL     1      -0.510  14.468  21.521  0.00  0.00    +0.000 C 
ATOM      3  C   UNL     1      -0.115  13.065  22.034  0.00  0.00    +0.000 C 
ATOM      4  N   UNL     1      -0.542  12.052  21.038  0.00  0.00    +0.000 N 
ATOM      5  C   UNL     1       0.077  10.844  21.135  0.00  0.00    +0.000 A 
ATOM      6  N   UNL     1       0.638  10.304  22.190  0.00  0.00    +0.000 NA
ATOM      7  N   UNL     1       1.314   9.185  21.787  0.00  0.00    +0.000 NA
ATOM      8  C   UNL     1       1.214   9.064  20.475  0.00  0.00    +0.000 A 
ATOM      9  N   UNL     1       0.392  10.076  20.023  0.00  0.00    +0.000 N 
ATOM     10  C   UNL     1      -2.011  12.098  20.915  0.00  0.00    +0.000 C 
ATOM     11  C   UNL     1      -2.387  13.485  20.363  0.00  0.00    +0.000 C 
ATOM     12  O   UNL     1      -1.918  14.553  21.207  0.00  0.00    +0.000 OA
ENDROOT
BRANCH   8  13
ATOM     13  C   UNL     1       1.902   7.925  19.762  0.00  0.00    +0.000 A 
ATOM     14  C   UNL     1       2.607   8.192  18.601  0.00  0.00    +0.000 A 
ATOM     15  N   UNL     1       3.223   7.050  18.186  0.00  0.00    +0.000 N 
ATOM     16  C   UNL     1       4.008   6.921  16.978  0.00  0.00    +0.000 C 
ATOM     17  C   UNL     1       2.960   6.030  19.069  0.00  0.00    +0.000 A 
ATOM     18  C   UNL     1       3.448   4.710  19.093  0.00  0.00    +0.000 A 
ATOM     19  C   UNL     1       2.961   3.843  20.068  0.00  0.00    +0.000 A 
ATOM     20  C   UNL     1       1.969   4.256  20.944  0.00  0.00    +0.000 A 
ATOM     21  C   UNL     1       1.484   5.568  20.897  0.00  0.00    +0.000 A 
ATOM     22  C   UNL     1       2.032   6.516  20.005  0.00  0.00    +0.000 A 
ENDBRANCH   8  13
BRANCH   9  23
ATOM     23  C   UNL     1      -0.149  10.282  18.697  0.00  0.00    +0.000 C 
BRANCH  23  24
ATOM     24  C   UNL     1      -1.515   9.622  18.486  0.00  0.00    +0.000 C 
BRANCH  24  25
ATOM     25  C   UNL     1      -2.349  10.109  17.319  0.00  0.00    +0.000 A 
ATOM     26  C   UNL     1      -2.164   9.666  16.002  0.00  0.00    +0.000 A 
ATOM     27  C   UNL     1      -3.020  10.088  14.981  0.00  0.00    +0.000 A 
ATOM     28  C   UNL     1      -4.077  10.950  15.259  0.00  0.00    +0.000 A 
ATOM     29  C   UNL     1      -4.277  11.399  16.560  0.00  0.00    +0.000 A 
ATOM     30  C   UNL     1      -3.421  10.980  17.582  0.00  0.00    +0.000 A 
ENDBRANCH  24  25
ENDBRANCH  23  24
ENDBRANCH   9  23
TORSDOF 4
ENDMDL
MODEL 8
REMARK VINA RESULT:      -7.4      1.880      4.492
REMARK  Name = 
REMARK  6 active torsions:
REMARK  status: ('A' for Active; 'I' for Inactive)
REMARK    1  A    between atoms: C_1  and  C_2
REMARK    2  A    between atoms: C_8  and  C_9
REMARK    3  A    between atoms: N_11  and  C_12
REMARK    4  A    between atoms: N_19  and  C_20
REMARK    5  A    between atoms: C_20  and  C_21
REMARK    6  A    between atoms: C_21  and  C_22
REMARK                            x       y       z     vdW  Elec       q    Type
REMARK                         _______ _______ _______ _____ _____    ______ ____
ROOT
ATOM      1  C   UNL     1       1.119   2.678  18.979  0.00  0.00    +0.000 C 
ATOM      2  C   UNL     1       2.121   2.830  20.122  0.00  0.00    +0.000 C 
ATOM      3  C   UNL     1       1.988   4.199  20.826  0.00  0.00    +0.000 C 
ATOM      4  N   UNL     1       2.504   5.255  19.922  0.00  0.00    +0.000 N 
ATOM      5  C   UNL     1       2.093   6.520  20.209  0.00  0.00    +0.000 A 
ATOM      6  N   UNL     1       1.695   6.999  21.363  0.00  0.00    +0.000 NA
ATOM      7  N   UNL     1       1.181   8.248  21.151  0.00  0.00    +0.000 NA
ATOM      8  C   UNL     1       1.213   8.519  19.858  0.00  0.00    +0.000 A 
ATOM      9  N   UNL     1       1.833   7.462  19.224  0.00  0.00    +0.000 N 
ATOM     10  C   UNL     1       3.937   5.006  19.671  0.00  0.00    +0.000 C 
ATOM     11  C   UNL     1       4.050   3.659  18.933  0.00  0.00    +0.000 C 
ATOM     12  O   UNL     1       3.474   2.576  19.684  0.00  0.00    +0.000 OA
ENDROOT
BRANCH   8  13
ATOM     13  C   UNL     1       0.670   9.830  19.341  0.00  0.00    +0.000 A 
ATOM     14  C   UNL     1      -0.700  10.031  19.336  0.00  0.00    +0.000 A 
ATOM     15  N   UNL     1      -0.957  11.305  18.928  0.00  0.00    +0.000 N 
ATOM     16  C   UNL     1      -2.277  11.867  18.743  0.00  0.00    +0.000 C 
ATOM     17  C   UNL     1       0.223  11.967  18.688  0.00  0.00    +0.000 A 
ATOM     18  C   UNL     1       0.448  13.310  18.335  0.00  0.00    +0.000 A 
ATOM     19  C   UNL     1       1.754  13.716  18.073  0.00  0.00    +0.000 A 
ATOM     20  C   UNL     1       2.792  12.797  18.093  0.00  0.00    +0.000 A 
ATOM     21  C   UNL     1       2.550  11.461  18.431  0.00  0.00    +0.000 A 
ATOM     22  C   UNL     1       1.262  11.030  18.820  0.00  0.00    +0.000 A 
ENDBRANCH   8  13
BRANCH   9  23
ATOM     23  C   UNL     1       2.247   7.348  17.843  0.00  0.00    +0.000 C 
BRANCH  23  24
ATOM     24  C   UNL     1       3.609   7.989  17.559  0.00  0.00    +0.000 C 
BRANCH  24  25
ATOM     25  C   UNL     1       4.737   7.069  17.139  0.00  0.00    +0.000 A 
ATOM     26  C   UNL     1       4.584   6.046  16.193  0.00  0.00    +0.000 A 
ATOM     27  C   UNL     1       5.683   5.284  15.784  0.00  0.00    +0.000 A 
ATOM     28  C   UNL     1       6.949   5.535  16.306  0.00  0.00    +0.000 A 
ATOM     29  C   UNL     1       7.119   6.547  17.246  0.00  0.00    +0.000 A 
ATOM     30  C   UNL     1       6.022   7.308  17.658  0.00  0.00    +0.000 A 
ENDBRANCH  24  25
ENDBRANCH  23  24
ENDBRANCH   9  23
TORSDOF 4
ENDMDL
MODEL 9
REMARK VINA RESULT:      -7.2      1.988      4.494
REMARK  Name = 
REMARK  6 active torsions:
REMARK  status: ('A' for Active; 'I' for Inactive)
REMARK    1  A    between atoms: C_1  and  C_2
REMARK    2  A    between atoms: C_8  and  C_9
REMARK    3  A    between atoms: N_11  and  C_12
REMARK    4  A    between atoms: N_19  and  C_20
REMARK    5  A    between atoms: C_20  and  C_21
REMARK    6  A    between atoms: C_21  and  C_22
REMARK                            x       y       z     vdW  Elec       q    Type
REMARK                         _______ _______ _______ _____ _____    ______ ____
ROOT
ATOM      1  C   UNL     1       1.472   2.820  18.950  0.00  0.00    +0.000 C 
ATOM      2  C   UNL     1       2.403   3.062  20.136  0.00  0.00    +0.000 C 
ATOM      3  C   UNL     1       2.160   4.443  20.787  0.00  0.00    +0.000 C 
ATOM      4  N   UNL     1       2.665   5.498  19.874  0.00  0.00    +0.000 N 
ATOM      5  C   UNL     1       2.172   6.746  20.099  0.00  0.00    +0.000 A 
ATOM      6  N   UNL     1       1.690   7.237  21.214  0.00  0.00    +0.000 NA
ATOM      7  N   UNL     1       1.120   8.449  20.935  0.00  0.00    +0.000 NA
ATOM      8  C   UNL     1       1.204   8.682  19.638  0.00  0.00    +0.000 A 
ATOM      9  N   UNL     1       1.913   7.641  19.071  0.00  0.00    +0.000 N 
ATOM     10  C   UNL     1       4.120   5.321  19.704  0.00  0.00    +0.000 C 
ATOM     11  C   UNL     1       4.344   3.961  19.018  0.00  0.00    +0.000 C 
ATOM     12  O   UNL     1       3.789   2.870  19.774  0.00  0.00    +0.000 OA
ENDROOT
BRANCH   8  13
ATOM     13  C   UNL     1       0.619   9.944  19.052  0.00  0.00    +0.000 A 
ATOM     14  C   UNL     1      -0.638   9.892  18.473  0.00  0.00    +0.000 A 
ATOM     15  N   UNL     1      -1.006  11.151  18.104  0.00  0.00    +0.000 N 
ATOM     16  C   UNL     1      -2.233  11.489  17.417  0.00  0.00    +0.000 C 
ATOM     17  C   UNL     1      -0.023  12.047  18.454  0.00  0.00    +0.000 A 
ATOM     18  C   UNL     1      -0.004  13.449  18.348  0.00  0.00    +0.000 A 
ATOM     19  C   UNL     1       1.159  14.124  18.711  0.00  0.00    +0.000 A 
ATOM     20  C   UNL     1       2.288  13.419  19.097  0.00  0.00    +0.000 A 
ATOM     21  C   UNL     1       2.257  12.022  19.183  0.00  0.00    +0.000 A 
ATOM     22  C   UNL     1       1.065  11.304  18.940  0.00  0.00    +0.000 A 
ENDBRANCH   8  13
BRANCH   9  23
ATOM     23  C   UNL     1       2.403   7.509  17.717  0.00  0.00    +0.000 C 
BRANCH  23  24
ATOM     24  C   UNL     1       3.785   8.133  17.504  0.00  0.00    +0.000 C 
BRANCH  24  25
ATOM     25  C   UNL     1       4.894   7.221  17.020  0.00  0.00    +0.000 A 
ATOM     26  C   UNL     1       6.207   7.281  17.505  0.00  0.00    +0.000 A 
ATOM     27  C   UNL     1       7.166   6.356  17.082  0.00  0.00    +0.000 A 
ATOM     28  C   UNL     1       6.828   5.355  16.175  0.00  0.00    +0.000 A 
ATOM     29  C   UNL     1       5.529   5.280  15.684  0.00  0.00    +0.000 A 
ATOM     30  C   UNL     1       4.569   6.204  16.104  0.00  0.00    +0.000 A 
ENDBRANCH  24  25
ENDBRANCH  23  24
ENDBRANCH   9  23
TORSDOF 4
ENDMDL
