MODEL 1
REMARK VINA RESULT:      -9.1      0.000      0.000
REMARK  Name = 
REMARK  4 active torsions:
REMARK  status: ('A' for Active; 'I' for Inactive)
REMARK    1  A    between atoms: C_1  and  C_2
REMARK    2  A    between atoms: C_10  and  C_11
REMARK    3  A    between atoms: N_13  and  C_14
REMARK    4  A    between atoms: C_16  and  C_17
REMARK                            x       y       z     vdW  Elec       q    Type
REMARK                         _______ _______ _______ _____ _____    ______ ____
ROOT
ATOM      1  C   UNL     1       3.208   5.198  17.665  0.00  0.00    +0.000 C 
ATOM      2  O   UNL     1       2.021   4.904  17.686  0.00  0.00    +0.000 OA
ATOM      3  N   UNL     1       3.636   6.551  17.964  0.00  0.00    +0.000 N 
ATOM      4  H   UNL     1       4.617   6.785  17.860  0.00  0.00    +0.000 HD
ENDROOT
BRANCH   1  14
ATOM      5  C   UNL     1       4.050   3.130  19.685  0.00  0.00    +0.000 C 
ATOM      6  C   UNL     1       5.015   3.648  18.618  0.00  0.00    +0.000 C 
ATOM      7  C   UNL     1       5.983   4.704  19.209  0.00  0.00    +0.000 C 
ATOM      8  C   UNL     1       7.116   5.057  18.225  0.00  0.00    +0.000 C 
ATOM      9  C   UNL     1       6.585   5.225  16.843  0.00  0.00    +0.000 A 
ATOM     10  N   UNL     1       7.248   5.846  15.871  0.00  0.00    +0.000 NA
ATOM     11  N   UNL     1       6.469   5.681  14.785  0.00  0.00    +0.000 N 
ATOM     12  C   UNL     1       5.266   5.095  15.074  0.00  0.00    +0.000 A 
ATOM     13  C   UNL     1       5.315   4.779  16.412  0.00  0.00    +0.000 A 
ATOM     14  C   UNL     1       4.303   4.180  17.337  0.00  0.00    +0.000 C 
ATOM     15  H   UNL     1       6.807   6.025  13.889  0.00  0.00    +0.000 HD
ENDBRANCH   1  14
BRANCH   3  16
ATOM     16  C   UNL     1       2.764   7.570  18.312  0.00  0.00    +0.000 A 
ATOM     17  C   UNL     1       2.191   7.833  19.527  0.00  0.00    +0.000 A 
ATOM     18  C   UNL     1       1.384   8.989  19.342  0.00  0.00    +0.000 A 
ATOM     19  N   UNL     1       1.437   9.398  18.063  0.00  0.00    +0.000 NA
ATOM     20  N   UNL     1       2.308   8.558  17.481  0.00  0.00    +0.000 N 
ATOM     21  H   UNL     1       2.518   8.703  16.499  0.00  0.00    +0.000 HD
BRANCH  18  22
ATOM     22  C   UNL     1       0.586   9.678  20.349  0.00  0.00    +0.000 A 
ATOM     23  C   UNL     1      -0.241  10.754  19.991  0.00  0.00    +0.000 A 
ATOM     24  C   UNL     1      -1.016  11.407  20.956  0.00  0.00    +0.000 A 
ATOM     25  C   UNL     1      -0.967  10.994  22.287  0.00  0.00    +0.000 A 
ATOM     26  C   UNL     1      -0.145   9.930  22.643  0.00  0.00    +0.000 A 
ATOM     27  F   UNL     1      -0.097   9.538  23.924  0.00  0.00    +0.000 F 
ATOM     28  C   UNL     1       0.623   9.275  21.689  0.00  0.00    +0.000 A 
ATOM     29  F   UNL     1       1.410   8.259  22.078  0.00  0.00    +0.000 F 
ENDBRANCH  18  22
ENDBRANCH   3  16
TORSDOF 3
ENDMDL
MODEL 2
REMARK VINA RESULT:      -9.0      2.173      2.564
REMARK  Name = 
REMARK  4 active torsions:
REMARK  status: ('A' for Active; 'I' for Inactive)
REMARK    1  A    between atoms: C_1  and  C_2
REMARK    2  A    between atoms: C_10  and  C_11
REMARK    3  A    between atoms: N_13  and  C_14
REMARK    4  A    between atoms: C_16  and  C_17
REMARK                            x       y       z     vdW  Elec       q    Type
REMARK                         _______ _______ _______ _____ _____    ______ ____
ROOT
ATOM      1  C   UNL     1       3.050   5.257  17.796  0.00  0.00    +0.000 C 
ATOM      2  O   UNL     1       1.854   5.004  17.767  0.00  0.00    +0.000 OA
ATOM      3  N   UNL     1       3.515   6.558  18.238  0.00  0.00    +0.000 N 
ATOM      4  H   UNL     1       4.506   6.766  18.176  0.00  0.00    +0.000 HD
ENDROOT
BRANCH   1  14
ATOM      5  C   UNL     1       3.858   3.031  19.656  0.00  0.00    +0.000 C 
ATOM      6  C   UNL     1       4.827   3.602  18.619  0.00  0.00    +0.000 C 
ATOM      7  C   UNL     1       5.825   4.590  19.275  0.00  0.00    +0.000 C 
ATOM      8  C   UNL     1       6.958   4.986  18.307  0.00  0.00    +0.000 C 
ATOM      9  C   UNL     1       6.420   5.264  16.946  0.00  0.00    +0.000 A 
ATOM     10  N   UNL     1       7.089   5.938  16.014  0.00  0.00    +0.000 NA
ATOM     11  N   UNL     1       6.298   5.869  14.927  0.00  0.00    +0.000 N 
ATOM     12  C   UNL     1       5.084   5.292  15.185  0.00  0.00    +0.000 A 
ATOM     13  C   UNL     1       5.136   4.880  16.497  0.00  0.00    +0.000 A 
ATOM     14  C   UNL     1       4.117   4.240  17.386  0.00  0.00    +0.000 C 
ATOM     15  H   UNL     1       6.637   6.268  14.055  0.00  0.00    +0.000 HD
ENDBRANCH   1  14
BRANCH   3  16
ATOM     16  C   UNL     1       2.670   7.565  18.673  0.00  0.00    +0.000 A 
ATOM     17  C   UNL     1       2.317   8.725  18.036  0.00  0.00    +0.000 A 
ATOM     18  C   UNL     1       1.424   9.401  18.913  0.00  0.00    +0.000 A 
ATOM     19  N   UNL     1       1.261   8.701  20.048  0.00  0.00    +0.000 NA
ATOM     20  N   UNL     1       1.981   7.584  19.856  0.00  0.00    +0.000 N 
ATOM     21  H   UNL     1       1.980   6.890  20.595  0.00  0.00    +0.000 HD
BRANCH  18  22
ATOM     22  C   UNL     1       0.753  10.674  18.678  0.00  0.00    +0.000 A 
ATOM     23  C   UNL     1       1.466  11.881  18.748  0.00  0.00    +0.000 A 
ATOM     24  C   UNL     1       0.823  13.101  18.511  0.00  0.00    +0.000 A 
ATOM     25  C   UNL     1      -0.537  13.126  18.207  0.00  0.00    +0.000 A 
ATOM     26  C   UNL     1      -1.245  11.931  18.140  0.00  0.00    +0.000 A 
ATOM     27  F   UNL     1      -2.554  11.958  17.851  0.00  0.00    +0.000 F 
ATOM     28  C   UNL     1      -0.612  10.716  18.370  0.00  0.00    +0.000 A 
ATOM     29  F   UNL     1      -1.336   9.587  18.305  0.00  0.00    +0.000 F 
ENDBRANCH  18  22
ENDBRANCH   3  16
TORSDOF 3
ENDMDL
MODEL 3
REMARK VINA RESULT:      -8.9      2.084      2.441
REMARK  Name = 
REMARK  4 active torsions:
REMARK  status: ('A' for Active; 'I' for Inactive)
REMARK    1  A    between atoms: C_1  and  C_2
REMARK    2  A    between atoms: C_10  and  C_11
REMARK    3  A    between atoms: N_13  and  C_14
REMARK    4  A    between atoms: C_16  and  C_17
REMARK                            x       y       z     vdW  Elec       q    Type
REMARK                         _______ _______ _______ _____ _____    ______ ____
ROOT
ATOM      1  C   UNL     1       3.152   5.140  17.802  0.00  0.00    +0.000 C 
ATOM      2  O   UNL     1       1.967   4.857  17.693  0.00  0.00    +0.000 OA
ATOM      3  N   UNL     1       3.553   6.438  18.313  0.00  0.00    +0.000 N 
ATOM      4  H   UNL     1       4.539   6.675  18.317  0.00  0.00    +0.000 HD
ENDROOT
BRANCH   1  14
ATOM      5  C   UNL     1       4.071   3.021  19.732  0.00  0.00    +0.000 C 
ATOM      6  C   UNL     1       5.011   3.606  18.677  0.00  0.00    +0.000 C 
ATOM      7  C   UNL     1       5.956   4.665  19.299  0.00  0.00    +0.000 C 
ATOM      8  C   UNL     1       7.068   5.087  18.318  0.00  0.00    +0.000 C 
ATOM      9  C   UNL     1       6.517   5.293  16.949  0.00  0.00    +0.000 A 
ATOM     10  N   UNL     1       7.152   5.970  15.995  0.00  0.00    +0.000 NA
ATOM     11  N   UNL     1       6.366   5.825  14.912  0.00  0.00    +0.000 N 
ATOM     12  C   UNL     1       5.183   5.195  15.190  0.00  0.00    +0.000 A 
ATOM     13  C   UNL     1       5.255   4.829  16.514  0.00  0.00    +0.000 A 
ATOM     14  C   UNL     1       4.270   4.167  17.424  0.00  0.00    +0.000 C 
ATOM     15  H   UNL     1       6.685   6.212  14.027  0.00  0.00    +0.000 HD
ENDBRANCH   1  14
BRANCH   3  16
ATOM     16  C   UNL     1       2.654   7.407  18.728  0.00  0.00    +0.000 A 
ATOM     17  C   UNL     1       2.036   8.379  17.988  0.00  0.00    +0.000 A 
ATOM     18  C   UNL     1       1.214   9.103  18.894  0.00  0.00    +0.000 A 
ATOM     19  N   UNL     1       1.346   8.616  20.139  0.00  0.00    +0.000 NA
ATOM     20  N   UNL     1       2.178   7.570  20.001  0.00  0.00    +0.000 N 
ATOM     21  H   UNL     1       2.401   7.033  20.831  0.00  0.00    +0.000 HD
BRANCH  18  22
ATOM     22  C   UNL     1       0.335  10.225  18.585  0.00  0.00    +0.000 A 
ATOM     23  C   UNL     1      -0.900  10.012  17.953  0.00  0.00    +0.000 A 
ATOM     24  C   UNL     1      -1.747  11.088  17.668  0.00  0.00    +0.000 A 
ATOM     25  C   UNL     1      -1.366  12.386  18.007  0.00  0.00    +0.000 A 
ATOM     26  C   UNL     1      -0.141  12.599  18.630  0.00  0.00    +0.000 A 
ATOM     27  F   UNL     1       0.224  13.847  18.951  0.00  0.00    +0.000 F 
ATOM     28  C   UNL     1       0.702  11.534  18.920  0.00  0.00    +0.000 A 
ATOM     29  F   UNL     1       1.881  11.785  19.513  0.00  0.00    +0.000 F 
ENDBRANCH  18  22
ENDBRANCH   3  16
TORSDOF 3
ENDMDL
MODEL 4
REMARK VINA RESULT:      -8.9      1.218      1.232
REMARK  Name = 
REMARK  4 active torsions:
REMARK  status: ('A' for Active; 'I' for Inactive)
REMARK    1  A    between atoms: C_1  and  C_2
REMARK    2  A    between atoms: C_10  and  C_11
REMARK    3  A    between atoms: N_13  and  C_14
REMARK    4  A    between atoms: C_16  and  C_17
REMARK                            x       y       z     vdW  Elec       q    Type
REMARK                         _______ _______ _______ _____ _____    ______ ____
ROOT
ATOM      1  C   UNL     1       4.054   6.392  17.570  0.00  0.00    +0.000 C 
ATOM      2  O   UNL     1       4.702   7.399  17.320  0.00  0.00    +0.000 OA
ATOM      3  N   UNL     1       2.742   6.495  18.181  0.00  0.00    +0.000 N 
ATOM      4  H   UNL     1       2.264   5.642  18.450  0.00  0.00    +0.000 HD
ENDROOT
BRANCH   1  14
ATOM      5  C   UNL     1       4.301   4.318  19.737  0.00  0.00    +0.000 C 
ATOM      6  C   UNL     1       5.201   4.297  18.500  0.00  0.00    +0.000 C 
ATOM      7  C   UNL     1       6.600   4.881  18.820  0.00  0.00    +0.000 C 
ATOM      8  C   UNL     1       7.596   4.647  17.667  0.00  0.00    +0.000 C 
ATOM      9  C   UNL     1       6.957   4.923  16.350  0.00  0.00    +0.000 A 
ATOM     10  N   UNL     1       7.643   5.130  15.228  0.00  0.00    +0.000 NA
ATOM     11  N   UNL     1       6.695   5.233  14.278  0.00  0.00    +0.000 N 
ATOM     12  C   UNL     1       5.425   5.236  14.788  0.00  0.00    +0.000 A 
ATOM     13  C   UNL     1       5.563   5.028  16.141  0.00  0.00    +0.000 A 
ATOM     14  C   UNL     1       4.565   4.985  17.254  0.00  0.00    +0.000 C 
ATOM     15  H   UNL     1       6.989   5.333  13.309  0.00  0.00    +0.000 HD
ENDBRANCH   1  14
BRANCH   3  16
ATOM     16  C   UNL     1       2.135   7.701  18.491  0.00  0.00    +0.000 A 
ATOM     17  C   UNL     1       1.688   8.151  19.705  0.00  0.00    +0.000 A 
ATOM     18  C   UNL     1       1.153   9.448  19.472  0.00  0.00    +0.000 A 
ATOM     19  N   UNL     1       1.242   9.766  18.170  0.00  0.00    +0.000 NA
ATOM     20  N   UNL     1       1.878   8.721  17.615  0.00  0.00    +0.000 N 
ATOM     21  H   UNL     1       2.073   8.762  16.621  0.00  0.00    +0.000 HD
BRANCH  18  22
ATOM     22  C   UNL     1       0.573  10.353  20.457  0.00  0.00    +0.000 A 
ATOM     23  C   UNL     1       0.761  11.740  20.352  0.00  0.00    +0.000 A 
ATOM     24  C   UNL     1       0.194  12.608  21.292  0.00  0.00    +0.000 A 
ATOM     25  C   UNL     1      -0.562  12.097  22.346  0.00  0.00    +0.000 A 
ATOM     26  C   UNL     1      -0.748  10.723  22.453  0.00  0.00    +0.000 A 
ATOM     27  F   UNL     1      -1.472  10.235  23.469  0.00  0.00    +0.000 F 
ATOM     28  C   UNL     1      -0.190   9.857  21.521  0.00  0.00    +0.000 A 
ATOM     29  F   UNL     1      -0.385   8.536  21.668  0.00  0.00    +0.000 F 
ENDBRANCH  18  22
ENDBRANCH   3  16
TORSDOF 3
ENDMDL
MODEL 5
REMARK VINA RESULT:      -8.9      1.222      1.544
REMARK  Name = 
REMARK  4 active torsions:
REMARK  status: ('A' for Active; 'I' for Inactive)
REMARK    1  A    between atoms: C_1  and  C_2
REMARK    2  A    between atoms: C_10  and  C_11
REMARK    3  A    between atoms: N_13  and  C_14
REMARK    4  A    between atoms: C_16  and  C_17
REMARK                            x       y       z     vdW  Elec       q    Type
REMARK                         _______ _______ _______ _____ _____    ______ ____
ROOT
ATOM      1  C   UNL     1       3.176   5.143  17.710  0.00  0.00    +0.000 C 
ATOM      2  O   UNL     1       1.986   4.865  17.650  0.00  0.00    +0.000 OA
ATOM      3  N   UNL     1       3.603   6.454  18.160  0.00  0.00    +0.000 N 
ATOM      4  H   UNL     1       4.590   6.682  18.123  0.00  0.00    +0.000 HD
ENDROOT
BRANCH   1  14
ATOM      5  C   UNL     1       4.034   2.986  19.627  0.00  0.00    +0.000 C 
ATOM      6  C   UNL     1       4.993   3.559  18.582  0.00  0.00    +0.000 C 
ATOM      7  C   UNL     1       5.959   4.590  19.219  0.00  0.00    +0.000 C 
ATOM      8  C   UNL     1       7.086   4.994  18.249  0.00  0.00    +0.000 C 
ATOM      9  C   UNL     1       6.549   5.225  16.878  0.00  0.00    +0.000 A 
ATOM     10  N   UNL     1       7.205   5.894  15.934  0.00  0.00    +0.000 NA
ATOM     11  N   UNL     1       6.422   5.777  14.844  0.00  0.00    +0.000 N 
ATOM     12  C   UNL     1       5.223   5.172  15.110  0.00  0.00    +0.000 A 
ATOM     13  C   UNL     1       5.279   4.794  16.431  0.00  0.00    +0.000 A 
ATOM     14  C   UNL     1       4.273   4.147  17.330  0.00  0.00    +0.000 C 
ATOM     15  H   UNL     1       6.755   6.164  13.964  0.00  0.00    +0.000 HD
ENDBRANCH   1  14
BRANCH   3  16
ATOM     16  C   UNL     1       2.726   7.445  18.569  0.00  0.00    +0.000 A 
ATOM     17  C   UNL     1       2.181   7.653  19.809  0.00  0.00    +0.000 A 
ATOM     18  C   UNL     1       1.355   8.804  19.688  0.00  0.00    +0.000 A 
ATOM     19  N   UNL     1       1.368   9.262  18.426  0.00  0.00    +0.000 NA
ATOM     20  N   UNL     1       2.235   8.458  17.789  0.00  0.00    +0.000 N 
ATOM     21  H   UNL     1       2.417   8.642  16.809  0.00  0.00    +0.000 HD
BRANCH  18  22
ATOM     22  C   UNL     1       0.574   9.442  20.742  0.00  0.00    +0.000 A 
ATOM     23  C   UNL     1       0.682   9.011  22.073  0.00  0.00    +0.000 A 
ATOM     24  C   UNL     1      -0.059   9.632  23.084  0.00  0.00    +0.000 A 
ATOM     25  C   UNL     1      -0.917  10.686  22.774  0.00  0.00    +0.000 A 
ATOM     26  C   UNL     1      -1.027  11.113  21.455  0.00  0.00    +0.000 A 
ATOM     27  F   UNL     1      -1.856  12.124  21.159  0.00  0.00    +0.000 F 
ATOM     28  C   UNL     1      -0.291  10.503  20.447  0.00  0.00    +0.000 A 
ATOM     29  F   UNL     1      -0.436  10.939  19.185  0.00  0.00    +0.000 F 
ENDBRANCH  18  22
ENDBRANCH   3  16
TORSDOF 3
ENDMDL
MODEL 6
REMARK VINA RESULT:      -8.7      6.027      8.625
REMARK  Name = 
REMARK  4 active torsions:
REMARK  status: ('A' for Active; 'I' for Inactive)
REMARK    1  A    between atoms: C_1  and  C_2
REMARK    2  A    between atoms: C_10  and  C_11
REMARK    3  A    between atoms: N_13  and  C_14
REMARK    4  A    between atoms: C_16  and  C_17
REMARK                            x       y       z     vdW  Elec       q    Type
REMARK                         _______ _______ _______ _____ _____    ______ ____
ROOT
ATOM      1  C   UNL     1       9.261  10.689  18.733  0.00  0.00    +0.000 C 
ATOM      2  O   UNL     1       9.217  10.349  19.907  0.00  0.00    +0.000 OA
ATOM      3  N   UNL     1       8.795   9.795  17.690  0.00  0.00    +0.000 N 
ATOM      4  H   UNL     1       8.918  10.070  16.723  0.00  0.00    +0.000 HD
ENDROOT
BRANCH   1  14
ATOM      5  C   UNL     1      12.057  11.558  19.431  0.00  0.00    +0.000 C 
ATOM      6  C   UNL     1      10.932  12.572  19.220  0.00  0.00    +0.000 C 
ATOM      7  C   UNL     1      10.375  13.075  20.576  0.00  0.00    +0.000 C 
ATOM      8  C   UNL     1       9.418  14.270  20.393  0.00  0.00    +0.000 C 
ATOM      9  C   UNL     1       8.493  14.039  19.248  0.00  0.00    +0.000 A 
ATOM     10  N   UNL     1       7.365  14.720  19.064  0.00  0.00    +0.000 NA
ATOM     11  N   UNL     1       6.902  14.276  17.880  0.00  0.00    +0.000 N 
ATOM     12  C   UNL     1       7.632  13.232  17.379  0.00  0.00    +0.000 A 
ATOM     13  C   UNL     1       8.684  13.058  18.248  0.00  0.00    +0.000 A 
ATOM     14  C   UNL     1       9.792  12.054  18.290  0.00  0.00    +0.000 C 
ATOM     15  H   UNL     1       6.065  14.707  17.494  0.00  0.00    +0.000 HD
ENDBRANCH   1  14
BRANCH   3  16
ATOM     16  C   UNL     1       8.256   8.543  17.941  0.00  0.00    +0.000 A 
ATOM     17  C   UNL     1       7.253   7.890  17.276  0.00  0.00    +0.000 A 
ATOM     18  C   UNL     1       7.091   6.640  17.935  0.00  0.00    +0.000 A 
ATOM     19  N   UNL     1       7.936   6.544  18.975  0.00  0.00    +0.000 NA
ATOM     20  N   UNL     1       8.655   7.678  18.925  0.00  0.00    +0.000 N 
ATOM     21  H   UNL     1       9.382   7.806  19.620  0.00  0.00    +0.000 HD
BRANCH  18  22
ATOM     22  C   UNL     1       6.158   5.574  17.587  0.00  0.00    +0.000 A 
ATOM     23  C   UNL     1       6.183   4.992  16.311  0.00  0.00    +0.000 A 
ATOM     24  C   UNL     1       5.295   3.961  15.982  0.00  0.00    +0.000 A 
ATOM     25  C   UNL     1       4.373   3.508  16.924  0.00  0.00    +0.000 A 
ATOM     26  C   UNL     1       4.346   4.086  18.188  0.00  0.00    +0.000 A 
ATOM     27  F   UNL     1       3.456   3.650  19.091  0.00  0.00    +0.000 F 
ATOM     28  C   UNL     1       5.227   5.106  18.522  0.00  0.00    +0.000 A 
ATOM     29  F   UNL     1       5.160   5.644  19.751  0.00  0.00    +0.000 F 
ENDBRANCH  18  22
ENDBRANCH   3  16
TORSDOF 3
ENDMDL
MODEL 7
REMARK VINA RESULT:      -8.7      3.409      8.879
REMARK  Name = 
REMARK  4 active torsions:
REMARK  status: ('A' for Active; 'I' for Inactive)
REMARK    1  A    between atoms: C_1  and  C_2
REMARK    2  A    between atoms: C_10  and  C_11
REMARK    3  A    between atoms: N_13  and  C_14
REMARK    4  A    between atoms: C_16  and  C_17
REMARK                            x       y       z     vdW  Elec       q    Type
REMARK                         _______ _______ _______ _____ _____    ______ ____
ROOT
ATOM      1  C   UNL     1      -0.604  10.707  18.871  0.00  0.00    +0.000 C 
ATOM      2  O   UNL     1      -1.079   9.940  19.697  0.00  0.00    +0.000 OA
ATOM      3  N   UNL     1       0.658  10.401  18.224  0.00  0.00    +0.000 N 
ATOM      4  H   UNL     1       1.067  11.092  17.604  0.00  0.00    +0.000 HD
ENDROOT
BRANCH   1  14
ATOM      5  C   UNL     1       0.039  13.297  20.264  0.00  0.00    +0.000 C 
ATOM      6  C   UNL     1      -1.328  13.047  19.627  0.00  0.00    +0.000 C 
ATOM      7  C   UNL     1      -2.380  12.665  20.699  0.00  0.00    +0.000 C 
ATOM      8  C   UNL     1      -3.809  12.649  20.120  0.00  0.00    +0.000 C 
ATOM      9  C   UNL     1      -3.833  11.989  18.784  0.00  0.00    +0.000 A 
ATOM     10  N   UNL     1      -4.943  11.536  18.207  0.00  0.00    +0.000 NA
ATOM     11  N   UNL     1      -4.536  11.121  16.993  0.00  0.00    +0.000 N 
ATOM     12  C   UNL     1      -3.176  11.168  16.840  0.00  0.00    +0.000 A 
ATOM     13  C   UNL     1      -2.688  11.738  17.993  0.00  0.00    +0.000 A 
ATOM     14  C   UNL     1      -1.295  12.010  18.463  0.00  0.00    +0.000 C 
ATOM     15  H   UNL     1      -5.236  10.785  16.336  0.00  0.00    +0.000 HD
ENDBRANCH   1  14
BRANCH   3  16
ATOM     16  C   UNL     1       1.380   9.243  18.465  0.00  0.00    +0.000 A 
ATOM     17  C   UNL     1       2.052   8.448  17.575  0.00  0.00    +0.000 A 
ATOM     18  C   UNL     1       2.622   7.394  18.341  0.00  0.00    +0.000 A 
ATOM     19  N   UNL     1       2.291   7.521  19.636  0.00  0.00    +0.000 NA
ATOM     20  N   UNL     1       1.586   8.664  19.689  0.00  0.00    +0.000 N 
ATOM     21  H   UNL     1       1.249   8.968  20.595  0.00  0.00    +0.000 HD
BRANCH  18  22
ATOM     22  C   UNL     1       3.453   6.299  17.852  0.00  0.00    +0.000 A 
ATOM     23  C   UNL     1       4.771   6.536  17.432  0.00  0.00    +0.000 A 
ATOM     24  C   UNL     1       5.571   5.483  16.974  0.00  0.00    +0.000 A 
ATOM     25  C   UNL     1       5.059   4.186  16.929  0.00  0.00    +0.000 A 
ATOM     26  C   UNL     1       3.753   3.951  17.342  0.00  0.00    +0.000 A 
ATOM     27  F   UNL     1       3.262   2.705  17.294  0.00  0.00    +0.000 F 
ATOM     28  C   UNL     1       2.955   4.992  17.801  0.00  0.00    +0.000 A 
ATOM     29  F   UNL     1       1.695   4.723  18.181  0.00  0.00    +0.000 F 
ENDBRANCH  18  22
ENDBRANCH   3  16
TORSDOF 3
ENDMDL
MODEL 8
REMARK VINA RESULT:      -8.7      6.502      9.051
REMARK  Name = 
REMARK  4 active torsions:
REMARK  status: ('A' for Active; 'I' for Inactive)
REMARK    1  A    between atoms: C_1  and  C_2
REMARK    2  A    between atoms: C_10  and  C_11
REMARK    3  A    between atoms: N_13  and  C_14
REMARK    4  A    between atoms: C_16  and  C_17
REMARK                            x       y       z     vdW  Elec       q    Type
REMARK                         _______ _______ _______ _____ _____    ______ ____
ROOT
ATOM      1  C   UNL     1       9.311  10.815  18.855  0.00  0.00    +0.000 C 
ATOM      2  O   UNL     1       9.251  10.438  20.017  0.00  0.00    +0.000 OA
ATOM      3  N   UNL     1       8.863   9.951  17.778  0.00  0.00    +0.000 N 
ATOM      4  H   UNL     1       8.999  10.257  16.821  0.00  0.00    +0.000 HD
ENDROOT
BRANCH   1  14
ATOM      5  C   UNL     1      12.086  11.679  19.637  0.00  0.00    +0.000 C 
ATOM      6  C   UNL     1      10.959  12.692  19.430  0.00  0.00    +0.000 C 
ATOM      7  C   UNL     1      10.370  13.154  20.788  0.00  0.00    +0.000 C 
ATOM      8  C   UNL     1       9.410  14.348  20.619  0.00  0.00    +0.000 C 
ATOM      9  C   UNL     1       8.511  14.144  19.448  0.00  0.00    +0.000 A 
ATOM     10  N   UNL     1       7.383  14.824  19.259  0.00  0.00    +0.000 NA
ATOM     11  N   UNL     1       6.948  14.411  18.054  0.00  0.00    +0.000 N 
ATOM     12  C   UNL     1       7.695  13.386  17.539  0.00  0.00    +0.000 A 
ATOM     13  C   UNL     1       8.730  13.193  18.425  0.00  0.00    +0.000 A 
ATOM     14  C   UNL     1       9.843  12.195  18.462  0.00  0.00    +0.000 C 
ATOM     15  H   UNL     1       6.117  14.848  17.663  0.00  0.00    +0.000 HD
ENDBRANCH   1  14
BRANCH   3  16
ATOM     16  C   UNL     1       8.326   8.690  17.983  0.00  0.00    +0.000 A 
ATOM     17  C   UNL     1       7.337   8.054  17.282  0.00  0.00    +0.000 A 
ATOM     18  C   UNL     1       7.170   6.784  17.900  0.00  0.00    +0.000 A 
ATOM     19  N   UNL     1       7.998   6.660  18.949  0.00  0.00    +0.000 NA
ATOM     20  N   UNL     1       8.712   7.798  18.946  0.00  0.00    +0.000 N 
ATOM     21  H   UNL     1       9.427   7.907  19.657  0.00  0.00    +0.000 HD
BRANCH  18  22
ATOM     22  C   UNL     1       6.247   5.726  17.505  0.00  0.00    +0.000 A 
ATOM     23  C   UNL     1       5.120   5.432  18.287  0.00  0.00    +0.000 A 
ATOM     24  C   UNL     1       4.229   4.424  17.901  0.00  0.00    +0.000 A 
ATOM     25  C   UNL     1       4.460   3.699  16.733  0.00  0.00    +0.000 A 
ATOM     26  C   UNL     1       5.578   3.987  15.958  0.00  0.00    +0.000 A 
ATOM     27  F   UNL     1       5.799   3.286  14.838  0.00  0.00    +0.000 F 
ATOM     28  C   UNL     1       6.464   4.989  16.334  0.00  0.00    +0.000 A 
ATOM     29  F   UNL     1       7.536   5.227  15.562  0.00  0.00    +0.000 F 
ENDBRANCH  18  22
ENDBRANCH   3  16
TORSDOF 3
ENDMDL
MODEL 9
REMARK VINA RESULT:      -8.6      2.311      3.091
REMARK  Name = 
REMARK  4 active torsions:
REMARK  status: ('A' for Active; 'I' for Inactive)
REMARK    1  A    between atoms: C_1  and  C_2
REMARK    2  A    between atoms: C_10  and  C_11
REMARK    3  A    between atoms: N_13  and  C_14
REMARK    4  A    between atoms: C_16  and  C_17
REMARK                            x       y       z     vdW  Elec       q    Type
REMARK                         _______ _______ _______ _____ _____    ______ ____
ROOT
ATOM      1  C   UNL     1       2.172   5.905  19.846  0.00  0.00    +0.000 C 
ATOM      2  O   UNL     1       1.978   5.507  20.986  0.00  0.00    +0.000 OA
ATOM      3  N   UNL     1       1.952   7.298  19.506  0.00  0.00    +0.000 N 
ATOM      4  H   UNL     1       2.044   7.582  18.537  0.00  0.00    +0.000 HD
ENDROOT
BRANCH   1  14
ATOM      5  C   UNL     1       0.701   3.362  19.190  0.00  0.00    +0.000 C 
ATOM      6  C   UNL     1       2.201   3.509  18.935  0.00  0.00    +0.000 C 
ATOM      7  C   UNL     1       3.025   2.813  20.048  0.00  0.00    +0.000 C 
ATOM      8  C   UNL     1       4.522   2.734  19.688  0.00  0.00    +0.000 C 
ATOM      9  C   UNL     1       4.996   4.020  19.104  0.00  0.00    +0.000 A 
ATOM     10  N   UNL     1       6.280   4.359  19.014  0.00  0.00    +0.000 NA
ATOM     11  N   UNL     1       6.265   5.526  18.343  0.00  0.00    +0.000 N 
ATOM     12  C   UNL     1       5.001   6.005  18.130  0.00  0.00    +0.000 A 
ATOM     13  C   UNL     1       4.148   5.038  18.611  0.00  0.00    +0.000 A 
ATOM     14  C   UNL     1       2.657   4.985  18.724  0.00  0.00    +0.000 C 
ATOM     15  H   UNL     1       7.155   5.954  18.097  0.00  0.00    +0.000 HD
ENDBRANCH   1  14
BRANCH   3  16
ATOM     16  C   UNL     1       1.548   8.254  20.423  0.00  0.00    +0.000 A 
ATOM     17  C   UNL     1       0.778   9.369  20.221  0.00  0.00    +0.000 A 
ATOM     18  C   UNL     1       0.660  10.002  21.488  0.00  0.00    +0.000 A 
ATOM     19  N   UNL     1       1.350   9.324  22.419  0.00  0.00    +0.000 NA
ATOM     20  N   UNL     1       1.832   8.255  21.763  0.00  0.00    +0.000 N 
ATOM     21  H   UNL     1       2.377   7.584  22.292  0.00  0.00    +0.000 HD
BRANCH  18  22
ATOM     22  C   UNL     1      -0.083  11.218  21.800  0.00  0.00    +0.000 A 
ATOM     23  C   UNL     1       0.229  12.429  21.164  0.00  0.00    +0.000 A 
ATOM     24  C   UNL     1      -0.492  13.592  21.455  0.00  0.00    +0.000 A 
ATOM     25  C   UNL     1      -1.528  13.556  22.388  0.00  0.00    +0.000 A 
ATOM     26  C   UNL     1      -1.837  12.357  23.021  0.00  0.00    +0.000 A 
ATOM     27  F   UNL     1      -2.831  12.325  23.919  0.00  0.00    +0.000 F 
ATOM     28  C   UNL     1      -1.127  11.198  22.732  0.00  0.00    +0.000 A 
ATOM     29  F   UNL     1      -1.452  10.064  23.374  0.00  0.00    +0.000 F 
ENDBRANCH  18  22
ENDBRANCH   3  16
TORSDOF 3
ENDMDL
