MODEL 1
REMARK VINA RESULT:      -8.3      0.000      0.000
REMARK  Name = 
REMARK  4 active torsions:
REMARK  status: ('A' for Active; 'I' for Inactive)
REMARK    1  A    between atoms: C_2  and  C_3
REMARK    2  A    between atoms: C_3  and  C_4
REMARK    3  A    between atoms: C_4  and  C_5
REMARK    4  A    between atoms: C_5  and  C_6
REMARK                            x       y       z     vdW  Elec       q    Type
REMARK                         _______ _______ _______ _____ _____    ______ ____
ROOT
ATOM      1  C   UNL     1       1.338   3.743  20.502  0.00  0.00    +0.000 C 
ENDROOT
BRANCH   1   2
ATOM      2  C   UNL     1       2.242   2.690  19.873  0.00  0.00    +0.000 C 
BRANCH   2   4
ATOM      3  O   UNL     1       1.466   2.733  17.599  0.00  0.00    +0.000 OA
ATOM      4  C   UNL     1       2.408   2.891  18.375  0.00  0.00    +0.000 C 
ATOM      5  N   UNL     1       3.662   3.297  17.940  0.00  0.00    +0.000 N 
ATOM      6  C   UNL     1       3.815   3.647  16.523  0.00  0.00    +0.000 C 
ATOM      7  C   UNL     1       5.266   3.819  16.058  0.00  0.00    +0.000 C 
ATOM      8  C   UNL     1       6.015   4.695  17.028  0.00  0.00    +0.000 A 
ATOM      9  C   UNL     1       6.935   5.660  16.615  0.00  0.00    +0.000 A 
ATOM     10  C   UNL     1       7.583   6.449  17.567  0.00  0.00    +0.000 A 
ATOM     11  C   UNL     1       7.325   6.270  18.926  0.00  0.00    +0.000 A 
ATOM     12  C   UNL     1       6.427   5.290  19.344  0.00  0.00    +0.000 A 
ATOM     13  C   UNL     1       5.771   4.499  18.398  0.00  0.00    +0.000 A 
ATOM     14  C   UNL     1       4.837   3.393  18.808  0.00  0.00    +0.000 C 
ENDBRANCH   2   4
ENDBRANCH   1   2
BRANCH   1  15
ATOM     15  C   UNL     1       2.159   4.836  21.178  0.00  0.00    +0.000 C 
BRANCH  15  16
ATOM     16  C   UNL     1       2.103   6.121  20.389  0.00  0.00    +0.000 A 
ATOM     17  N   UNL     1       1.403   7.120  20.817  0.00  0.00    +0.000 NA
ATOM     18  C   UNL     1       1.386   8.288  20.038  0.00  0.00    +0.000 A 
ATOM     19  C   UNL     1       0.642   9.383  20.481  0.00  0.00    +0.000 A 
ATOM     20  C   UNL     1       0.598  10.563  19.731  0.00  0.00    +0.000 A 
ATOM     21  C   UNL     1       1.299  10.655  18.527  0.00  0.00    +0.000 A 
ATOM     22  C   UNL     1       2.047   9.571  18.072  0.00  0.00    +0.000 A 
ATOM     23  C   UNL     1       2.084   8.399  18.831  0.00  0.00    +0.000 A 
ATOM     24  C   UNL     1       2.863   7.230  18.388  0.00  0.00    +0.000 A 
ATOM     25  O   UNL     1       3.498   7.223  17.341  0.00  0.00    +0.000 OA
ATOM     26  N   UNL     1       2.828   6.149  19.229  0.00  0.00    +0.000 N 
ATOM     27  H   UNL     1       3.349   5.341  18.916  0.00  0.00    +0.000 HD
ENDBRANCH  15  16
ENDBRANCH   1  15
TORSDOF 4
ENDMDL
MODEL 2
REMARK VINA RESULT:      -8.0      1.587      2.211
REMARK  Name = 
REMARK  4 active torsions:
REMARK  status: ('A' for Active; 'I' for Inactive)
REMARK    1  A    between atoms: C_2  and  C_3
REMARK    2  A    between atoms: C_3  and  C_4
REMARK    3  A    between atoms: C_4  and  C_5
REMARK    4  A    between atoms: C_5  and  C_6
REMARK                            x       y       z     vdW  Elec       q    Type
REMARK                         _______ _______ _______ _____ _____    ______ ____
ROOT
ATOM      1  C   UNL     1       1.541   5.272  20.854  0.00  0.00    +0.000 C 
ENDROOT
BRANCH   1   2
ATOM      2  C   UNL     1       2.131   3.927  20.445  0.00  0.00    +0.000 C 
BRANCH   2   4
ATOM      3  O   UNL     1       1.180   3.573  18.265  0.00  0.00    +0.000 OA
ATOM      4  C   UNL     1       2.197   3.761  18.934  0.00  0.00    +0.000 C 
ATOM      5  N   UNL     1       3.452   3.870  18.354  0.00  0.00    +0.000 N 
ATOM      6  C   UNL     1       3.532   3.867  16.888  0.00  0.00    +0.000 C 
ATOM      7  C   UNL     1       4.950   3.715  16.323  0.00  0.00    +0.000 C 
ATOM      8  C   UNL     1       5.885   4.666  17.023  0.00  0.00    +0.000 A 
ATOM      9  C   UNL     1       6.886   5.369  16.350  0.00  0.00    +0.000 A 
ATOM     10  C   UNL     1       7.709   6.247  17.057  0.00  0.00    +0.000 A 
ATOM     11  C   UNL     1       7.544   6.417  18.432  0.00  0.00    +0.000 A 
ATOM     12  C   UNL     1       6.563   5.699  19.112  0.00  0.00    +0.000 A 
ATOM     13  C   UNL     1       5.732   4.820  18.411  0.00  0.00    +0.000 A 
ATOM     14  C   UNL     1       4.698   3.985  19.115  0.00  0.00    +0.000 C 
ENDBRANCH   2   4
ENDBRANCH   1   2
BRANCH   1  15
ATOM     15  C   UNL     1       2.258   6.420  20.151  0.00  0.00    +0.000 C 
BRANCH  15  16
ATOM     16  C   UNL     1       1.551   7.730  20.396  0.00  0.00    +0.000 A 
ATOM     17  N   UNL     1       0.977   7.959  21.532  0.00  0.00    +0.000 NA
ATOM     18  C   UNL     1       0.331   9.195  21.700  0.00  0.00    +0.000 A 
ATOM     19  C   UNL     1      -0.292   9.469  22.919  0.00  0.00    +0.000 A 
ATOM     20  C   UNL     1      -0.948  10.687  23.124  0.00  0.00    +0.000 A 
ATOM     21  C   UNL     1      -0.988  11.642  22.105  0.00  0.00    +0.000 A 
ATOM     22  C   UNL     1      -0.371  11.383  20.883  0.00  0.00    +0.000 A 
ATOM     23  C   UNL     1       0.283  10.163  20.692  0.00  0.00    +0.000 A 
ATOM     24  C   UNL     1       0.950   9.849  19.417  0.00  0.00    +0.000 A 
ATOM     25  O   UNL     1       0.953  10.625  18.470  0.00  0.00    +0.000 OA
ATOM     26  N   UNL     1       1.566   8.626  19.363  0.00  0.00    +0.000 N 
ATOM     27  H   UNL     1       2.009   8.405  18.482  0.00  0.00    +0.000 HD
ENDBRANCH  15  16
ENDBRANCH   1  15
TORSDOF 4
ENDMDL
MODEL 3
REMARK VINA RESULT:      -8.0      1.963      7.121
REMARK  Name = 
REMARK  4 active torsions:
REMARK  status: ('A' for Active; 'I' for Inactive)
REMARK    1  A    between atoms: C_2  and  C_3
REMARK    2  A    between atoms: C_3  and  C_4
REMARK    3  A    between atoms: C_4  and  C_5
REMARK    4  A    between atoms: C_5  and  C_6
REMARK                            x       y       z     vdW  Elec       q    Type
REMARK                         _______ _______ _______ _____ _____    ______ ____
ROOT
ATOM      1  C   UNL     1       2.093   4.666  19.602  0.00  0.00    +0.000 C 
ENDROOT
BRANCH   1   2
ATOM      2  C   UNL     1       2.183   6.021  20.294  0.00  0.00    +0.000 C 
BRANCH   2   4
ATOM      3  O   UNL     1       2.097   7.022  18.109  0.00  0.00    +0.000 OA
ATOM      4  C   UNL     1       1.985   7.178  19.326  0.00  0.00    +0.000 C 
ATOM      5  N   UNL     1       1.636   8.399  19.884  0.00  0.00    +0.000 N 
ATOM      6  C   UNL     1       1.289   9.496  18.972  0.00  0.00    +0.000 C 
ATOM      7  C   UNL     1       1.183  10.874  19.636  0.00  0.00    +0.000 C 
ATOM      8  C   UNL     1       0.346  10.778  20.884  0.00  0.00    +0.000 A 
ATOM      9  C   UNL     1      -0.577  11.760  21.249  0.00  0.00    +0.000 A 
ATOM     10  C   UNL     1      -1.332  11.601  22.412  0.00  0.00    +0.000 A 
ATOM     11  C   UNL     1      -1.161  10.474  23.216  0.00  0.00    +0.000 A 
ATOM     12  C   UNL     1      -0.222   9.505  22.870  0.00  0.00    +0.000 A 
ATOM     13  C   UNL     1       0.535   9.654  21.705  0.00  0.00    +0.000 A 
ATOM     14  C   UNL     1       1.597   8.659  21.325  0.00  0.00    +0.000 C 
ENDBRANCH   2   4
ENDBRANCH   1   2
BRANCH   1  15
ATOM     15  C   UNL     1       3.345   3.835  19.861  0.00  0.00    +0.000 C 
BRANCH  15  16
ATOM     16  C   UNL     1       4.398   4.102  18.813  0.00  0.00    +0.000 A 
ATOM     17  N   UNL     1       4.110   3.995  17.557  0.00  0.00    +0.000 NA
ATOM     18  C   UNL     1       5.132   4.252  16.629  0.00  0.00    +0.000 A 
ATOM     19  C   UNL     1       4.845   4.148  15.266  0.00  0.00    +0.000 A 
ATOM     20  C   UNL     1       5.837   4.394  14.311  0.00  0.00    +0.000 A 
ATOM     21  C   UNL     1       7.128   4.743  14.714  0.00  0.00    +0.000 A 
ATOM     22  C   UNL     1       7.429   4.851  16.070  0.00  0.00    +0.000 A 
ATOM     23  C   UNL     1       6.429   4.605  17.015  0.00  0.00    +0.000 A 
ATOM     24  C   UNL     1       6.703   4.708  18.457  0.00  0.00    +0.000 A 
ATOM     25  O   UNL     1       7.809   4.999  18.896  0.00  0.00    +0.000 OA
ATOM     26  N   UNL     1       5.634   4.457  19.277  0.00  0.00    +0.000 N 
ATOM     27  H   UNL     1       5.828   4.512  20.268  0.00  0.00    +0.000 HD
ENDBRANCH  15  16
ENDBRANCH   1  15
TORSDOF 4
ENDMDL
MODEL 4
REMARK VINA RESULT:      -7.9      1.318      1.868
REMARK  Name = 
REMARK  4 active torsions:
REMARK  status: ('A' for Active; 'I' for Inactive)
REMARK    1  A    between atoms: C_2  and  C_3
REMARK    2  A    between atoms: C_3  and  C_4
REMARK    3  A    between atoms: C_4  and  C_5
REMARK    4  A    between atoms: C_5  and  C_6
REMARK                            x       y       z     vdW  Elec       q    Type
REMARK                         _______ _______ _______ _____ _____    ______ ____
ROOT
ATOM      1  C   UNL     1       1.270   3.917  20.662  0.00  0.00    +0.000 C 
ENDROOT
BRANCH   1   2
ATOM      2  C   UNL     1       1.903   2.810  19.827  0.00  0.00    +0.000 C 
BRANCH   2   4
ATOM      3  O   UNL     1       1.060   3.250  17.619  0.00  0.00    +0.000 OA
ATOM      4  C   UNL     1       2.040   3.197  18.363  0.00  0.00    +0.000 C 
ATOM      5  N   UNL     1       3.317   3.521  17.926  0.00  0.00    +0.000 N 
ATOM      6  C   UNL     1       3.461   4.045  16.562  0.00  0.00    +0.000 C 
ATOM      7  C   UNL     1       4.906   4.121  16.053  0.00  0.00    +0.000 C 
ATOM      8  C   UNL     1       5.782   4.769  17.094  0.00  0.00    +0.000 A 
ATOM      9  C   UNL     1       6.790   5.677  16.769  0.00  0.00    +0.000 A 
ATOM     10  C   UNL     1       7.556   6.252  17.785  0.00  0.00    +0.000 A 
ATOM     11  C   UNL     1       7.325   5.917  19.119  0.00  0.00    +0.000 A 
ATOM     12  C   UNL     1       6.336   4.991  19.446  0.00  0.00    +0.000 A 
ATOM     13  C   UNL     1       5.563   4.413  18.436  0.00  0.00    +0.000 A 
ATOM     14  C   UNL     1       4.524   3.369  18.740  0.00  0.00    +0.000 C 
ENDBRANCH   2   4
ENDBRANCH   1   2
BRANCH   1  15
ATOM     15  C   UNL     1       2.320   4.925  21.121  0.00  0.00    +0.000 C 
BRANCH  15  16
ATOM     16  C   UNL     1       1.951   6.324  20.692  0.00  0.00    +0.000 A 
ATOM     17  N   UNL     1       2.347   6.781  19.549  0.00  0.00    +0.000 NA
ATOM     18  C   UNL     1       1.976   8.092  19.207  0.00  0.00    +0.000 A 
ATOM     19  C   UNL     1       2.385   8.608  17.976  0.00  0.00    +0.000 A 
ATOM     20  C   UNL     1       2.038   9.909  17.600  0.00  0.00    +0.000 A 
ATOM     21  C   UNL     1       1.278  10.708  18.458  0.00  0.00    +0.000 A 
ATOM     22  C   UNL     1       0.861  10.206  19.689  0.00  0.00    +0.000 A 
ATOM     23  C   UNL     1       1.213   8.904  20.052  0.00  0.00    +0.000 A 
ATOM     24  C   UNL     1       0.792   8.334  21.343  0.00  0.00    +0.000 A 
ATOM     25  O   UNL     1       0.133   8.969  22.157  0.00  0.00    +0.000 OA
ATOM     26  N   UNL     1       1.190   7.043  21.572  0.00  0.00    +0.000 N 
ATOM     27  H   UNL     1       0.915   6.658  22.465  0.00  0.00    +0.000 HD
ENDBRANCH  15  16
ENDBRANCH   1  15
TORSDOF 4
ENDMDL
MODEL 5
REMARK VINA RESULT:      -7.9      2.526      5.008
REMARK  Name = 
REMARK  4 active torsions:
REMARK  status: ('A' for Active; 'I' for Inactive)
REMARK    1  A    between atoms: C_2  and  C_3
REMARK    2  A    between atoms: C_3  and  C_4
REMARK    3  A    between atoms: C_4  and  C_5
REMARK    4  A    between atoms: C_5  and  C_6
REMARK                            x       y       z     vdW  Elec       q    Type
REMARK                         _______ _______ _______ _____ _____    ______ ____
ROOT
ATOM      1  C   UNL     1       2.466   8.298  18.217  0.00  0.00    +0.000 C 
ENDROOT
BRANCH   1   2
ATOM      2  C   UNL     1       3.149   7.586  17.056  0.00  0.00    +0.000 C 
BRANCH   2   4
ATOM      3  O   UNL     1       5.490   7.161  17.397  0.00  0.00    +0.000 OA
ATOM      4  C   UNL     1       4.335   6.749  17.510  0.00  0.00    +0.000 C 
ATOM      5  N   UNL     1       4.042   5.522  18.087  0.00  0.00    +0.000 N 
ATOM      6  C   UNL     1       5.151   4.759  18.672  0.00  0.00    +0.000 C 
ATOM      7  C   UNL     1       4.808   3.310  19.042  0.00  0.00    +0.000 C 
ATOM      8  C   UNL     1       3.514   3.270  19.811  0.00  0.00    +0.000 A 
ATOM      9  C   UNL     1       3.315   2.428  20.907  0.00  0.00    +0.000 A 
ATOM     10  C   UNL     1       2.096   2.452  21.585  0.00  0.00    +0.000 A 
ATOM     11  C   UNL     1       1.073   3.304  21.169  0.00  0.00    +0.000 A 
ATOM     12  C   UNL     1       1.258   4.128  20.060  0.00  0.00    +0.000 A 
ATOM     13  C   UNL     1       2.477   4.113  19.377  0.00  0.00    +0.000 A 
ATOM     14  C   UNL     1       2.698   4.944  18.144  0.00  0.00    +0.000 C 
ENDBRANCH   2   4
ENDBRANCH   1   2
BRANCH   1  15
ATOM     15  C   UNL     1       1.877   9.633  17.771  0.00  0.00    +0.000 C 
BRANCH  15  16
ATOM     16  C   UNL     1       0.998  10.224  18.846  0.00  0.00    +0.000 A 
ATOM     17  N   UNL     1       0.936   9.671  20.014  0.00  0.00    +0.000 NA
ATOM     18  C   UNL     1       0.098  10.263  20.973  0.00  0.00    +0.000 A 
ATOM     19  C   UNL     1       0.016   9.689  22.243  0.00  0.00    +0.000 A 
ATOM     20  C   UNL     1      -0.809  10.249  23.223  0.00  0.00    +0.000 A 
ATOM     21  C   UNL     1      -1.564  11.389  22.939  0.00  0.00    +0.000 A 
ATOM     22  C   UNL     1      -1.493  11.973  21.675  0.00  0.00    +0.000 A 
ATOM     23  C   UNL     1      -0.663  11.406  20.705  0.00  0.00    +0.000 A 
ATOM     24  C   UNL     1      -0.557  11.992  19.358  0.00  0.00    +0.000 A 
ATOM     25  O   UNL     1      -1.191  12.984  19.022  0.00  0.00    +0.000 OA
ATOM     26  N   UNL     1       0.302  11.350  18.505  0.00  0.00    +0.000 N 
ATOM     27  H   UNL     1       0.361  11.743  17.576  0.00  0.00    +0.000 HD
ENDBRANCH  15  16
ENDBRANCH   1  15
TORSDOF 4
ENDMDL
MODEL 6
REMARK VINA RESULT:      -7.9      1.280      5.344
REMARK  Name = 
REMARK  4 active torsions:
REMARK  status: ('A' for Active; 'I' for Inactive)
REMARK    1  A    between atoms: C_2  and  C_3
REMARK    2  A    between atoms: C_3  and  C_4
REMARK    3  A    between atoms: C_4  and  C_5
REMARK    4  A    between atoms: C_5  and  C_6
REMARK                            x       y       z     vdW  Elec       q    Type
REMARK                         _______ _______ _______ _____ _____    ______ ____
ROOT
ATOM      1  C   UNL     1       2.928   2.902  20.690  0.00  0.00    +0.000 C 
ENDROOT
BRANCH   1   2
ATOM      2  C   UNL     1       1.564   3.257  20.108  0.00  0.00    +0.000 C 
BRANCH   2   4
ATOM      3  O   UNL     1       1.520   3.493  17.716  0.00  0.00    +0.000 OA
ATOM      4  C   UNL     1       1.678   4.039  18.808  0.00  0.00    +0.000 C 
ATOM      5  N   UNL     1       1.929   5.398  18.924  0.00  0.00    +0.000 N 
ATOM      6  C   UNL     1       1.893   6.208  17.700  0.00  0.00    +0.000 C 
ATOM      7  C   UNL     1       2.442   7.631  17.856  0.00  0.00    +0.000 C 
ATOM      8  C   UNL     1       1.850   8.278  19.081  0.00  0.00    +0.000 A 
ATOM      9  C   UNL     1       1.456   9.616  19.109  0.00  0.00    +0.000 A 
ATOM     10  C   UNL     1       0.899  10.149  20.273  0.00  0.00    +0.000 A 
ATOM     11  C   UNL     1       0.746   9.355  21.409  0.00  0.00    +0.000 A 
ATOM     12  C   UNL     1       1.162   8.025  21.394  0.00  0.00    +0.000 A 
ATOM     13  C   UNL     1       1.717   7.483  20.232  0.00  0.00    +0.000 A 
ATOM     14  C   UNL     1       2.230   6.070  20.190  0.00  0.00    +0.000 C 
ENDBRANCH   2   4
ENDBRANCH   1   2
BRANCH   1  15
ATOM     15  C   UNL     1       3.796   2.192  19.656  0.00  0.00    +0.000 C 
BRANCH  15  16
ATOM     16  C   UNL     1       4.632   3.180  18.881  0.00  0.00    +0.000 A 
ATOM     17  N   UNL     1       5.443   3.975  19.499  0.00  0.00    +0.000 NA
ATOM     18  C   UNL     1       6.192   4.876  18.725  0.00  0.00    +0.000 A 
ATOM     19  C   UNL     1       7.079   5.742  19.367  0.00  0.00    +0.000 A 
ATOM     20  C   UNL     1       7.840   6.655  18.631  0.00  0.00    +0.000 A 
ATOM     21  C   UNL     1       7.716   6.712  17.240  0.00  0.00    +0.000 A 
ATOM     22  C   UNL     1       6.835   5.854  16.585  0.00  0.00    +0.000 A 
ATOM     23  C   UNL     1       6.082   4.944  17.332  0.00  0.00    +0.000 A 
ATOM     24  C   UNL     1       5.140   4.019  16.680  0.00  0.00    +0.000 A 
ATOM     25  O   UNL     1       4.963   4.009  15.468  0.00  0.00    +0.000 OA
ATOM     26  N   UNL     1       4.474   3.169  17.523  0.00  0.00    +0.000 N 
ATOM     27  H   UNL     1       3.816   2.546  17.076  0.00  0.00    +0.000 HD
ENDBRANCH  15  16
ENDBRANCH   1  15
TORSDOF 4
ENDMDL
MODEL 7
REMARK VINA RESULT:      -7.9      5.302      7.672
REMARK  Name = 
REMARK  4 active torsions:
REMARK  status: ('A' for Active; 'I' for Inactive)
REMARK    1  A    between atoms: C_2  and  C_3
REMARK    2  A    between atoms: C_3  and  C_4
REMARK    3  A    between atoms: C_4  and  C_5
REMARK    4  A    between atoms: C_5  and  C_6
REMARK                            x       y       z     vdW  Elec       q    Type
REMARK                         _______ _______ _______ _____ _____    ______ ____
ROOT
ATOM      1  C   UNL     1       8.009   8.827  17.544  0.00  0.00    +0.000 C 
ENDROOT
BRANCH   1   2
ATOM      2  C   UNL     1       6.646   8.169  17.721  0.00  0.00    +0.000 C 
BRANCH   2   4
ATOM      3  O   UNL     1       7.569   6.290  16.539  0.00  0.00    +0.000 OA
ATOM      4  C   UNL     1       6.588   6.783  17.098  0.00  0.00    +0.000 C 
ATOM      5  N   UNL     1       5.390   6.096  17.226  0.00  0.00    +0.000 N 
ATOM      6  C   UNL     1       5.348   4.701  16.772  0.00  0.00    +0.000 C 
ATOM      7  C   UNL     1       3.941   4.095  16.688  0.00  0.00    +0.000 C 
ATOM      8  C   UNL     1       3.181   4.389  17.955  0.00  0.00    +0.000 A 
ATOM      9  C   UNL     1       2.344   3.453  18.565  0.00  0.00    +0.000 A 
ATOM     10  C   UNL     1       1.681   3.785  19.747  0.00  0.00    +0.000 A 
ATOM     11  C   UNL     1       1.840   5.049  20.315  0.00  0.00    +0.000 A 
ATOM     12  C   UNL     1       2.654   5.996  19.695  0.00  0.00    +0.000 A 
ATOM     13  C   UNL     1       3.325   5.670  18.514  0.00  0.00    +0.000 A 
ATOM     14  C   UNL     1       4.168   6.679  17.784  0.00  0.00    +0.000 C 
ENDBRANCH   2   4
ENDBRANCH   1   2
BRANCH   1  15
ATOM     15  C   UNL     1       8.743   8.934  18.877  0.00  0.00    +0.000 C 
BRANCH  15  16
ATOM     16  C   UNL     1       9.346  10.306  19.054  0.00  0.00    +0.000 A 
ATOM     17  N   UNL     1       9.865  10.926  18.044  0.00  0.00    +0.000 NA
ATOM     18  C   UNL     1      10.413  12.199  18.271  0.00  0.00    +0.000 A 
ATOM     19  C   UNL     1      10.975  12.891  17.197  0.00  0.00    +0.000 A 
ATOM     20  C   UNL     1      11.533  14.159  17.384  0.00  0.00    +0.000 A 
ATOM     21  C   UNL     1      11.537  14.745  18.652  0.00  0.00    +0.000 A 
ATOM     22  C   UNL     1      10.979  14.066  19.733  0.00  0.00    +0.000 A 
ATOM     23  C   UNL     1      10.423  12.801  19.534  0.00  0.00    +0.000 A 
ATOM     24  C   UNL     1       9.822  12.049  20.648  0.00  0.00    +0.000 A 
ATOM     25  O   UNL     1       9.793  12.484  21.793  0.00  0.00    +0.000 OA
ATOM     26  N   UNL     1       9.298  10.827  20.317  0.00  0.00    +0.000 N 
ATOM     27  H   UNL     1       8.902  10.305  21.086  0.00  0.00    +0.000 HD
ENDBRANCH  15  16
ENDBRANCH   1  15
TORSDOF 4
ENDMDL
MODEL 8
REMARK VINA RESULT:      -7.9      1.696      2.343
REMARK  Name = 
REMARK  4 active torsions:
REMARK  status: ('A' for Active; 'I' for Inactive)
REMARK    1  A    between atoms: C_2  and  C_3
REMARK    2  A    between atoms: C_3  and  C_4
REMARK    3  A    between atoms: C_4  and  C_5
REMARK    4  A    between atoms: C_5  and  C_6
REMARK                            x       y       z     vdW  Elec       q    Type
REMARK                         _______ _______ _______ _____ _____    ______ ____
ROOT
ATOM      1  C   UNL     1       1.226   5.227  20.562  0.00  0.00    +0.000 C 
ENDROOT
BRANCH   1   2
ATOM      2  C   UNL     1       1.745   3.850  20.165  0.00  0.00    +0.000 C 
BRANCH   2   4
ATOM      3  O   UNL     1       0.991   3.595  17.897  0.00  0.00    +0.000 OA
ATOM      4  C   UNL     1       1.947   3.720  18.663  0.00  0.00    +0.000 C 
ATOM      5  N   UNL     1       3.255   3.787  18.206  0.00  0.00    +0.000 N 
ATOM      6  C   UNL     1       3.473   3.818  16.754  0.00  0.00    +0.000 C 
ATOM      7  C   UNL     1       4.930   3.617  16.320  0.00  0.00    +0.000 C 
ATOM      8  C   UNL     1       5.834   4.507  17.132  0.00  0.00    +0.000 A 
ATOM      9  C   UNL     1       6.923   5.181  16.577  0.00  0.00    +0.000 A 
ATOM     10  C   UNL     1       7.712   6.003  17.383  0.00  0.00    +0.000 A 
ATOM     11  C   UNL     1       7.425   6.145  18.740  0.00  0.00    +0.000 A 
ATOM     12  C   UNL     1       6.354   5.454  19.305  0.00  0.00    +0.000 A 
ATOM     13  C   UNL     1       5.557   4.632  18.504  0.00  0.00    +0.000 A 
ATOM     14  C   UNL     1       4.427   3.826  19.083  0.00  0.00    +0.000 C 
ENDBRANCH   2   4
ENDBRANCH   1   2
BRANCH   1  15
ATOM     15  C   UNL     1       2.287   6.299  20.330  0.00  0.00    +0.000 C 
BRANCH  15  16
ATOM     16  C   UNL     1       1.708   7.681  20.513  0.00  0.00    +0.000 A 
ATOM     17  N   UNL     1       1.386   8.395  19.483  0.00  0.00    +0.000 NA
ATOM     18  C   UNL     1       0.855   9.674  19.716  0.00  0.00    +0.000 A 
ATOM     19  C   UNL     1       0.495  10.463  18.621  0.00  0.00    +0.000 A 
ATOM     20  C   UNL     1      -0.034  11.743  18.812  0.00  0.00    +0.000 A 
ATOM     21  C   UNL     1      -0.205  12.247  20.103  0.00  0.00    +0.000 A 
ATOM     22  C   UNL     1       0.150  11.471  21.205  0.00  0.00    +0.000 A 
ATOM     23  C   UNL     1       0.676  10.193  21.002  0.00  0.00    +0.000 A 
ATOM     24  C   UNL     1       1.063   9.339  22.138  0.00  0.00    +0.000 A 
ATOM     25  O   UNL     1       0.956   9.707  23.301  0.00  0.00    +0.000 OA
ATOM     26  N   UNL     1       1.551   8.104  21.804  0.00  0.00    +0.000 N 
ATOM     27  H   UNL     1       1.832   7.525  22.584  0.00  0.00    +0.000 HD
ENDBRANCH  15  16
ENDBRANCH   1  15
TORSDOF 4
ENDMDL
MODEL 9
REMARK VINA RESULT:      -7.9      5.903      9.111
REMARK  Name = 
REMARK  4 active torsions:
REMARK  status: ('A' for Active; 'I' for Inactive)
REMARK    1  A    between atoms: C_2  and  C_3
REMARK    2  A    between atoms: C_3  and  C_4
REMARK    3  A    between atoms: C_4  and  C_5
REMARK    4  A    between atoms: C_5  and  C_6
REMARK                            x       y       z     vdW  Elec       q    Type
REMARK                         _______ _______ _______ _____ _____    ______ ____
ROOT
ATOM      1  C   UNL     1       9.136   9.874  19.263  0.00  0.00    +0.000 C 
ENDROOT
BRANCH   1   2
ATOM      2  C   UNL     1      10.099  11.052  19.177  0.00  0.00    +0.000 C 
BRANCH   2   4
ATOM      3  O   UNL     1       9.099  12.963  18.113  0.00  0.00    +0.000 OA
ATOM      4  C   UNL     1       9.374  12.390  19.168  0.00  0.00    +0.000 C 
ATOM      5  N   UNL     1       9.012  12.905  20.404  0.00  0.00    +0.000 N 
ATOM      6  C   UNL     1       8.180  14.115  20.424  0.00  0.00    +0.000 C 
ATOM      7  C   UNL     1       8.047  14.779  21.800  0.00  0.00    +0.000 C 
ATOM      8  C   UNL     1       7.712  13.742  22.840  0.00  0.00    +0.000 A 
ATOM      9  C   UNL     1       6.798  13.976  23.869  0.00  0.00    +0.000 A 
ATOM     10  C   UNL     1       6.521  12.965  24.791  0.00  0.00    +0.000 A 
ATOM     11  C   UNL     1       7.159  11.728  24.696  0.00  0.00    +0.000 A 
ATOM     12  C   UNL     1       8.091  11.499  23.685  0.00  0.00    +0.000 A 
ATOM     13  C   UNL     1       8.372  12.504  22.756  0.00  0.00    +0.000 A 
ATOM     14  C   UNL     1       9.411  12.318  21.684  0.00  0.00    +0.000 C 
ENDBRANCH   2   4
ENDBRANCH   1   2
BRANCH   1  15
ATOM     15  C   UNL     1       8.540   9.553  17.896  0.00  0.00    +0.000 C 
BRANCH  15  16
ATOM     16  C   UNL     1       7.884   8.194  17.897  0.00  0.00    +0.000 A 
ATOM     17  N   UNL     1       6.948   7.921  17.048  0.00  0.00    +0.000 NA
ATOM     18  C   UNL     1       6.372   6.641  17.099  0.00  0.00    +0.000 A 
ATOM     19  C   UNL     1       5.363   6.319  16.190  0.00  0.00    +0.000 A 
ATOM     20  C   UNL     1       4.764   5.055  16.212  0.00  0.00    +0.000 A 
ATOM     21  C   UNL     1       5.170   4.102  17.149  0.00  0.00    +0.000 A 
ATOM     22  C   UNL     1       6.177   4.409  18.062  0.00  0.00    +0.000 A 
ATOM     23  C   UNL     1       6.769   5.673  18.029  0.00  0.00    +0.000 A 
ATOM     24  C   UNL     1       7.837   6.039  18.975  0.00  0.00    +0.000 A 
ATOM     25  O   UNL     1       8.245   5.267  19.834  0.00  0.00    +0.000 OA
ATOM     26  N   UNL     1       8.343   7.304  18.828  0.00  0.00    +0.000 N 
ATOM     27  H   UNL     1       9.064   7.559  19.488  0.00  0.00    +0.000 HD
ENDBRANCH  15  16
ENDBRANCH   1  15
TORSDOF 4
ENDMDL
