MODEL 1
REMARK VINA RESULT:      -8.6      0.000      0.000
REMARK  Name = 
REMARK  6 active torsions:
REMARK  status: ('A' for Active; 'I' for Inactive)
REMARK    1  A    between atoms: C_1  and  N_2
REMARK    2  A    between atoms: C_6  and  C_7
REMARK    3  A    between atoms: C_7  and  C_8
REMARK    4  A    between atoms: C_8  and  C_9
REMARK    5  A    between atoms: C_13  and  N_14
REMARK    6  A    between atoms: C_17  and  C_18
REMARK                            x       y       z     vdW  Elec       q    Type
REMARK                         _______ _______ _______ _____ _____    ______ ____
ROOT
ATOM      1  C   UNL     1       1.745   8.282  19.695  0.00  0.00    +0.000 A 
ATOM      2  C   UNL     1       2.198   8.788  18.460  0.00  0.00    +0.000 A 
ATOM      3  C   UNL     1       2.674   7.952  17.456  0.00  0.00    +0.000 A 
ATOM      4  C   UNL     1       2.818   6.594  17.702  0.00  0.00    +0.000 A 
ATOM      5  C   UNL     1       2.641   6.113  19.009  0.00  0.00    +0.000 A 
ATOM      6  C   UNL     1       1.972   6.916  19.937  0.00  0.00    +0.000 A 
ENDROOT
BRANCH   5   7
ATOM      7  N   UNL     1       3.530   5.080  19.529  0.00  0.00    +0.000 N 
ATOM      8  C   UNL     1       4.922   5.590  19.537  0.00  0.00    +0.000 C 
ATOM      9  C   UNL     1       5.379   5.257  18.148  0.00  0.00    +0.000 A 
ATOM     10  C   UNL     1       6.016   6.034  17.183  0.00  0.00    +0.000 A 
ATOM     11  C   UNL     1       5.978   5.546  15.861  0.00  0.00    +0.000 A 
ATOM     12  C   UNL     1       5.322   4.349  15.532  0.00  0.00    +0.000 A 
ATOM     13  F   UNL     1       5.221   3.999  14.243  0.00  0.00    +0.000 F 
ATOM     14  C   UNL     1       4.664   3.595  16.488  0.00  0.00    +0.000 A 
ATOM     15  C   UNL     1       4.693   4.084  17.780  0.00  0.00    +0.000 A 
ATOM     16  C   UNL     1       3.595   3.889  18.760  0.00  0.00    +0.000 C 
ATOM     17  O   UNL     1       2.794   2.974  18.720  0.00  0.00    +0.000 OA
BRANCH  10  18
ATOM     18  C   UNL     1       6.494   7.411  17.368  0.00  0.00    +0.000 C 
ATOM     19  C   UNL     1       7.741   7.811  17.617  0.00  0.00    +0.000 C 
ATOM     20  F   UNL     1       8.017   9.119  17.784  0.00  0.00    +0.000 F 
ENDBRANCH  10  18
ENDBRANCH   5   7
BRANCH   1  21
ATOM     21  C   UNL     1       1.022   9.230  20.759  0.00  0.00    +0.000 C 
ATOM     22  C   UNL     1      -0.322   8.736  21.364  0.00  0.00    +0.000 C 
ATOM     23  O   UNL     1       0.170   8.850  22.712  0.00  0.00    +0.000 OA
ATOM     24  C   UNL     1       1.501   9.154  22.235  0.00  0.00    +0.000 C 
BRANCH  21  25
ATOM     25  C   UNL     1       0.869  10.641  20.152  0.00  0.00    +0.000 C 
BRANCH  25  31
ATOM     26  C   UNL     1      -1.473  12.345  21.427  0.00  0.00    +0.000 C 
ATOM     27  N   UNL     1      -1.466  11.691  20.144  0.00  0.00    +0.000 N 
ATOM     28  C   UNL     1      -2.479  11.741  19.234  0.00  0.00    +0.000 A 
ATOM     29  N   UNL     1      -2.183  10.996  18.206  0.00  0.00    +0.000 NA
ATOM     30  N   UNL     1      -0.926  10.473  18.416  0.00  0.00    +0.000 NA
ATOM     31  C   UNL     1      -0.484  10.916  19.578  0.00  0.00    +0.000 A 
ENDBRANCH  25  31
ENDBRANCH  21  25
ENDBRANCH   1  21
TORSDOF 5
ENDMDL
MODEL 2
REMARK VINA RESULT:      -8.6      3.263      8.195
REMARK  Name = 
REMARK  6 active torsions:
REMARK  status: ('A' for Active; 'I' for Inactive)
REMARK    1  A    between atoms: C_1  and  N_2
REMARK    2  A    between atoms: C_6  and  C_7
REMARK    3  A    between atoms: C_7  and  C_8
REMARK    4  A    between atoms: C_8  and  C_9
REMARK    5  A    between atoms: C_13  and  N_14
REMARK    6  A    between atoms: C_17  and  C_18
REMARK                            x       y       z     vdW  Elec       q    Type
REMARK                         _______ _______ _______ _____ _____    ______ ____
ROOT
ATOM      1  C   UNL     1       2.478   7.257  18.729  0.00  0.00    +0.000 A 
ATOM      2  C   UNL     1       2.400   8.129  17.623  0.00  0.00    +0.000 A 
ATOM      3  C   UNL     1       1.995   9.451  17.760  0.00  0.00    +0.000 A 
ATOM      4  C   UNL     1       1.544   9.909  18.990  0.00  0.00    +0.000 A 
ATOM      5  C   UNL     1       1.346   8.990  20.032  0.00  0.00    +0.000 A 
ATOM      6  C   UNL     1       1.946   7.731  19.942  0.00  0.00    +0.000 A 
ENDROOT
BRANCH   5   7
ATOM      7  N   UNL     1       0.186   9.122  20.906  0.00  0.00    +0.000 N 
ATOM      8  C   UNL     1      -1.052   8.949  20.108  0.00  0.00    +0.000 C 
ATOM      9  C   UNL     1      -1.293  10.342  19.609  0.00  0.00    +0.000 A 
ATOM     10  C   UNL     1      -1.566  10.823  18.330  0.00  0.00    +0.000 A 
ATOM     11  C   UNL     1      -1.375  12.205  18.127  0.00  0.00    +0.000 A 
ATOM     12  C   UNL     1      -0.921  13.049  19.153  0.00  0.00    +0.000 A 
ATOM     13  F   UNL     1      -0.648  14.329  18.865  0.00  0.00    +0.000 F 
ATOM     14  C   UNL     1      -0.621  12.564  20.414  0.00  0.00    +0.000 A 
ATOM     15  C   UNL     1      -0.798  11.207  20.605  0.00  0.00    +0.000 A 
ATOM     16  C   UNL     1       0.032  10.390  21.526  0.00  0.00    +0.000 C 
ATOM     17  O   UNL     1       0.627  10.833  22.490  0.00  0.00    +0.000 OA
BRANCH  10  18
ATOM     18  C   UNL     1      -1.785  10.000  17.133  0.00  0.00    +0.000 C 
ATOM     19  C   UNL     1      -2.545  10.289  16.077  0.00  0.00    +0.000 C 
ATOM     20  F   UNL     1      -2.661   9.414  15.060  0.00  0.00    +0.000 F 
ENDBRANCH  10  18
ENDBRANCH   5   7
BRANCH   1  21
ATOM     21  C   UNL     1       3.129   5.805  18.591  0.00  0.00    +0.000 C 
ATOM     22  C   UNL     1       3.996   5.525  17.331  0.00  0.00    +0.000 C 
ATOM     23  O   UNL     1       5.136   5.144  18.123  0.00  0.00    +0.000 OA
ATOM     24  C   UNL     1       4.464   5.539  19.341  0.00  0.00    +0.000 C 
BRANCH  21  25
ATOM     25  C   UNL     1       2.022   4.741  18.748  0.00  0.00    +0.000 C 
BRANCH  25  31
ATOM     26  C   UNL     1       3.472   1.939  18.995  0.00  0.00    +0.000 C 
ATOM     27  N   UNL     1       2.832   2.688  20.046  0.00  0.00    +0.000 N 
ATOM     28  C   UNL     1       2.788   2.318  21.356  0.00  0.00    +0.000 A 
ATOM     29  N   UNL     1       2.084   3.182  22.033  0.00  0.00    +0.000 NA
ATOM     30  N   UNL     1       1.689   4.173  21.162  0.00  0.00    +0.000 NA
ATOM     31  C   UNL     1       2.165   3.885  19.966  0.00  0.00    +0.000 A 
ENDBRANCH  25  31
ENDBRANCH  21  25
ENDBRANCH   1  21
TORSDOF 5
ENDMDL
MODEL 3
REMARK VINA RESULT:      -8.6      2.994      7.881
REMARK  Name = 
REMARK  6 active torsions:
REMARK  status: ('A' for Active; 'I' for Inactive)
REMARK    1  A    between atoms: C_1  and  N_2
REMARK    2  A    between atoms: C_6  and  C_7
REMARK    3  A    between atoms: C_7  and  C_8
REMARK    4  A    between atoms: C_8  and  C_9
REMARK    5  A    between atoms: C_13  and  N_14
REMARK    6  A    between atoms: C_17  and  C_18
REMARK                            x       y       z     vdW  Elec       q    Type
REMARK                         _______ _______ _______ _____ _____    ______ ____
ROOT
ATOM      1  C   UNL     1       2.314   5.827  18.892  0.00  0.00    +0.000 A 
ATOM      2  C   UNL     1       2.262   6.674  17.766  0.00  0.00    +0.000 A 
ATOM      3  C   UNL     1       2.187   8.056  17.891  0.00  0.00    +0.000 A 
ATOM      4  C   UNL     1       2.047   8.625  19.149  0.00  0.00    +0.000 A 
ATOM      5  C   UNL     1       1.814   7.794  20.255  0.00  0.00    +0.000 A 
ATOM      6  C   UNL     1       2.097   6.429  20.143  0.00  0.00    +0.000 A 
ENDROOT
BRANCH   5   7
ATOM      7  N   UNL     1       0.864   8.201  21.284  0.00  0.00    +0.000 N 
ATOM      8  C   UNL     1      -0.448   8.486  20.653  0.00  0.00    +0.000 C 
ATOM      9  C   UNL     1      -0.292   9.923  20.255  0.00  0.00    +0.000 A 
ATOM     10  C   UNL     1      -0.543  10.572  19.048  0.00  0.00    +0.000 A 
ATOM     11  C   UNL     1       0.051  11.840  18.882  0.00  0.00    +0.000 A 
ATOM     12  C   UNL     1       0.863  12.413  19.875  0.00  0.00    +0.000 A 
ATOM     13  F   UNL     1       1.491  13.566  19.610  0.00  0.00    +0.000 F 
ATOM     14  C   UNL     1       1.135  11.753  21.061  0.00  0.00    +0.000 A 
ATOM     15  C   UNL     1       0.561  10.505  21.212  0.00  0.00    +0.000 A 
ATOM     16  C   UNL     1       1.190   9.397  21.975  0.00  0.00    +0.000 C 
ATOM     17  O   UNL     1       2.001   9.552  22.869  0.00  0.00    +0.000 OA
BRANCH  10  18
ATOM     18  C   UNL     1      -1.147   9.961  17.855  0.00  0.00    +0.000 C 
ATOM     19  C   UNL     1      -2.428   9.989  17.489  0.00  0.00    +0.000 C 
ATOM     20  F   UNL     1      -2.830   9.358  16.369  0.00  0.00    +0.000 F 
ENDBRANCH  10  18
ENDBRANCH   5   7
BRANCH   1  21
ATOM     21  C   UNL     1       2.597   4.262  18.734  0.00  0.00    +0.000 C 
ATOM     22  C   UNL     1       2.752   3.426  20.035  0.00  0.00    +0.000 C 
ATOM     23  O   UNL     1       1.703   2.517  19.651  0.00  0.00    +0.000 OA
ATOM     24  C   UNL     1       1.376   3.329  18.500  0.00  0.00    +0.000 C 
BRANCH  21  25
ATOM     25  C   UNL     1       3.810   4.062  17.801  0.00  0.00    +0.000 C 
BRANCH  25  31
ATOM     26  C   UNL     1       5.581   6.305  16.440  0.00  0.00    +0.000 C 
ATOM     27  N   UNL     1       5.806   5.664  17.710  0.00  0.00    +0.000 N 
ATOM     28  C   UNL     1       6.821   5.962  18.569  0.00  0.00    +0.000 A 
ATOM     29  N   UNL     1       6.775   5.162  19.597  0.00  0.00    +0.000 NA
ATOM     30  N   UNL     1       5.679   4.342  19.441  0.00  0.00    +0.000 NA
ATOM     31  C   UNL     1       5.080   4.666  18.311  0.00  0.00    +0.000 A 
ENDBRANCH  25  31
ENDBRANCH  21  25
ENDBRANCH   1  21
TORSDOF 5
ENDMDL
MODEL 4
REMARK VINA RESULT:      -8.6      1.363      1.855
REMARK  Name = 
REMARK  6 active torsions:
REMARK  status: ('A' for Active; 'I' for Inactive)
REMARK    1  A    between atoms: C_1  and  N_2
REMARK    2  A    between atoms: C_6  and  C_7
REMARK    3  A    between atoms: C_7  and  C_8
REMARK    4  A    between atoms: C_8  and  C_9
REMARK    5  A    between atoms: C_13  and  N_14
REMARK    6  A    between atoms: C_17  and  C_18
REMARK                            x       y       z     vdW  Elec       q    Type
REMARK                         _______ _______ _______ _____ _____    ______ ____
ROOT
ATOM      1  C   UNL     1       1.646   8.277  19.676  0.00  0.00    +0.000 A 
ATOM      2  C   UNL     1       2.133   8.806  18.463  0.00  0.00    +0.000 A 
ATOM      3  C   UNL     1       2.652   7.992  17.464  0.00  0.00    +0.000 A 
ATOM      4  C   UNL     1       2.807   6.632  17.696  0.00  0.00    +0.000 A 
ATOM      5  C   UNL     1       2.594   6.130  18.989  0.00  0.00    +0.000 A 
ATOM      6  C   UNL     1       1.884   6.910  19.906  0.00  0.00    +0.000 A 
ENDROOT
BRANCH   5   7
ATOM      7  N   UNL     1       3.479   5.101  19.524  0.00  0.00    +0.000 N 
ATOM      8  C   UNL     1       4.870   5.615  19.546  0.00  0.00    +0.000 C 
ATOM      9  C   UNL     1       5.344   5.278  18.164  0.00  0.00    +0.000 A 
ATOM     10  C   UNL     1       5.990   6.052  17.202  0.00  0.00    +0.000 A 
ATOM     11  C   UNL     1       5.968   5.558  15.882  0.00  0.00    +0.000 A 
ATOM     12  C   UNL     1       5.319   4.357  15.551  0.00  0.00    +0.000 A 
ATOM     13  F   UNL     1       5.233   4.002  14.262  0.00  0.00    +0.000 F 
ATOM     14  C   UNL     1       4.652   3.606  16.503  0.00  0.00    +0.000 A 
ATOM     15  C   UNL     1       4.665   4.101  17.793  0.00  0.00    +0.000 A 
ATOM     16  C   UNL     1       3.556   3.907  18.761  0.00  0.00    +0.000 C 
ATOM     17  O   UNL     1       2.758   2.990  18.716  0.00  0.00    +0.000 OA
BRANCH  10  18
ATOM     18  C   UNL     1       6.463   7.431  17.387  0.00  0.00    +0.000 C 
ATOM     19  C   UNL     1       7.716   7.841  17.582  0.00  0.00    +0.000 C 
ATOM     20  F   UNL     1       7.986   9.148  17.757  0.00  0.00    +0.000 F 
ENDBRANCH  10  18
ENDBRANCH   5   7
BRANCH   1  21
ATOM     21  C   UNL     1       0.875   9.199  20.728  0.00  0.00    +0.000 C 
ATOM     22  C   UNL     1      -0.199   8.522  21.625  0.00  0.00    +0.000 C 
ATOM     23  O   UNL     1       0.443   8.963  22.836  0.00  0.00    +0.000 OA
ATOM     24  C   UNL     1       1.571   9.475  22.090  0.00  0.00    +0.000 C 
BRANCH  21  25
ATOM     25  C   UNL     1       0.288  10.421  19.989  0.00  0.00    +0.000 C 
BRANCH  25  31
ATOM     26  C   UNL     1       2.271  12.359  18.465  0.00  0.00    +0.000 C 
ATOM     27  N   UNL     1       1.660  12.569  19.752  0.00  0.00    +0.000 N 
ATOM     28  C   UNL     1       1.811  13.686  20.517  0.00  0.00    +0.000 A 
ATOM     29  N   UNL     1       1.177  13.533  21.647  0.00  0.00    +0.000 NA
ATOM     30  N   UNL     1       0.554  12.305  21.614  0.00  0.00    +0.000 NA
ATOM     31  C   UNL     1       0.827  11.735  20.456  0.00  0.00    +0.000 A 
ENDBRANCH  25  31
ENDBRANCH  21  25
ENDBRANCH   1  21
TORSDOF 5
ENDMDL
MODEL 5
REMARK VINA RESULT:      -8.5      5.247      8.298
REMARK  Name = 
REMARK  6 active torsions:
REMARK  status: ('A' for Active; 'I' for Inactive)
REMARK    1  A    between atoms: C_1  and  N_2
REMARK    2  A    between atoms: C_6  and  C_7
REMARK    3  A    between atoms: C_7  and  C_8
REMARK    4  A    between atoms: C_8  and  C_9
REMARK    5  A    between atoms: C_13  and  N_14
REMARK    6  A    between atoms: C_17  and  C_18
REMARK                            x       y       z     vdW  Elec       q    Type
REMARK                         _______ _______ _______ _____ _____    ______ ____
ROOT
ATOM      1  C   UNL     1      -3.970  11.374  18.071  0.00  0.00    +0.000 A 
ATOM      2  C   UNL     1      -3.916  10.733  16.817  0.00  0.00    +0.000 A 
ATOM      3  C   UNL     1      -2.781  10.054  16.389  0.00  0.00    +0.000 A 
ATOM      4  C   UNL     1      -1.626  10.095  17.155  0.00  0.00    +0.000 A 
ATOM      5  C   UNL     1      -1.568  10.956  18.262  0.00  0.00    +0.000 A 
ATOM      6  C   UNL     1      -2.762  11.458  18.787  0.00  0.00    +0.000 A 
ENDROOT
BRANCH   5   7
ATOM      7  N   UNL     1      -0.345  11.699  18.542  0.00  0.00    +0.000 N 
ATOM      8  C   UNL     1       0.631  10.803  19.210  0.00  0.00    +0.000 C 
ATOM      9  C   UNL     1       0.239  10.943  20.650  0.00  0.00    +0.000 A 
ATOM     10  C   UNL     1      -0.006   9.983  21.630  0.00  0.00    +0.000 A 
ATOM     11  C   UNL     1      -0.709  10.418  22.772  0.00  0.00    +0.000 A 
ATOM     12  C   UNL     1      -1.151  11.744  22.909  0.00  0.00    +0.000 A 
ATOM     13  F   UNL     1      -1.914  12.067  23.961  0.00  0.00    +0.000 F 
ATOM     14  C   UNL     1      -0.933  12.688  21.920  0.00  0.00    +0.000 A 
ATOM     15  C   UNL     1      -0.255  12.253  20.798  0.00  0.00    +0.000 A 
ATOM     16  C   UNL     1      -0.487  12.793  19.434  0.00  0.00    +0.000 C 
ATOM     17  O   UNL     1      -0.933  13.901  19.201  0.00  0.00    +0.000 OA
BRANCH  10  18
ATOM     18  C   UNL     1       0.173   8.533  21.475  0.00  0.00    +0.000 C 
ATOM     19  C   UNL     1       1.282   7.885  21.116  0.00  0.00    +0.000 C 
ATOM     20  F   UNL     1       1.279   6.544  20.997  0.00  0.00    +0.000 F 
ENDBRANCH  10  18
ENDBRANCH   5   7
BRANCH   1  21
ATOM     21  C   UNL     1      -5.339  11.979  18.630  0.00  0.00    +0.000 C 
ATOM     22  C   UNL     1      -6.427  12.370  17.592  0.00  0.00    +0.000 C 
ATOM     23  O   UNL     1      -7.414  11.525  18.214  0.00  0.00    +0.000 OA
ATOM     24  C   UNL     1      -6.424  10.978  19.116  0.00  0.00    +0.000 C 
BRANCH  21  25
ATOM     25  C   UNL     1      -5.018  13.163  19.567  0.00  0.00    +0.000 C 
BRANCH  25  31
ATOM     26  C   UNL     1      -7.775  14.025  20.861  0.00  0.00    +0.000 C 
ATOM     27  N   UNL     1      -6.692  13.322  21.499  0.00  0.00    +0.000 N 
ATOM     28  C   UNL     1      -6.702  12.868  22.783  0.00  0.00    +0.000 A 
ATOM     29  N   UNL     1      -5.549  12.330  23.067  0.00  0.00    +0.000 NA
ATOM     30  N   UNL     1      -4.769  12.389  21.933  0.00  0.00    +0.000 NA
ATOM     31  C   UNL     1      -5.472  12.966  20.978  0.00  0.00    +0.000 A 
ENDBRANCH  25  31
ENDBRANCH  21  25
ENDBRANCH   1  21
TORSDOF 5
ENDMDL
MODEL 6
REMARK VINA RESULT:      -8.5      0.541      1.084
REMARK  Name = 
REMARK  6 active torsions:
REMARK  status: ('A' for Active; 'I' for Inactive)
REMARK    1  A    between atoms: C_1  and  N_2
REMARK    2  A    between atoms: C_6  and  C_7
REMARK    3  A    between atoms: C_7  and  C_8
REMARK    4  A    between atoms: C_8  and  C_9
REMARK    5  A    between atoms: C_13  and  N_14
REMARK    6  A    between atoms: C_17  and  C_18
REMARK                            x       y       z     vdW  Elec       q    Type
REMARK                         _______ _______ _______ _____ _____    ______ ____
ROOT
ATOM      1  C   UNL     1       1.698   8.366  19.735  0.00  0.00    +0.000 A 
ATOM      2  C   UNL     1       2.159   8.870  18.501  0.00  0.00    +0.000 A 
ATOM      3  C   UNL     1       2.601   8.030  17.486  0.00  0.00    +0.000 A 
ATOM      4  C   UNL     1       2.703   6.666  17.718  0.00  0.00    +0.000 A 
ATOM      5  C   UNL     1       2.520   6.177  19.021  0.00  0.00    +0.000 A 
ATOM      6  C   UNL     1       1.884   6.991  19.962  0.00  0.00    +0.000 A 
ENDROOT
BRANCH   5   7
ATOM      7  N   UNL     1       3.379   5.111  19.524  0.00  0.00    +0.000 N 
ATOM      8  C   UNL     1       4.783   5.588  19.556  0.00  0.00    +0.000 C 
ATOM      9  C   UNL     1       5.245   5.276  18.164  0.00  0.00    +0.000 A 
ATOM     10  C   UNL     1       5.909   6.060  17.222  0.00  0.00    +0.000 A 
ATOM     11  C   UNL     1       5.871   5.603  15.889  0.00  0.00    +0.000 A 
ATOM     12  C   UNL     1       5.190   4.430  15.526  0.00  0.00    +0.000 A 
ATOM     13  F   UNL     1       5.092   4.114  14.228  0.00  0.00    +0.000 F 
ATOM     14  C   UNL     1       4.505   3.670  16.459  0.00  0.00    +0.000 A 
ATOM     15  C   UNL     1       4.534   4.129  17.762  0.00  0.00    +0.000 A 
ATOM     16  C   UNL     1       3.423   3.937  18.727  0.00  0.00    +0.000 C 
ATOM     17  O   UNL     1       2.600   3.043  18.659  0.00  0.00    +0.000 OA
BRANCH  10  18
ATOM     18  C   UNL     1       6.418   7.420  17.444  0.00  0.00    +0.000 C 
ATOM     19  C   UNL     1       7.691   7.811  17.506  0.00  0.00    +0.000 C 
ATOM     20  F   UNL     1       7.997   9.101  17.739  0.00  0.00    +0.000 F 
ENDBRANCH  10  18
ENDBRANCH   5   7
BRANCH   1  21
ATOM     21  C   UNL     1       1.012   9.325  20.813  0.00  0.00    +0.000 C 
ATOM     22  C   UNL     1      -0.384   8.912  21.356  0.00  0.00    +0.000 C 
ATOM     23  O   UNL     1       0.069   8.938  22.723  0.00  0.00    +0.000 OA
ATOM     24  C   UNL     1       1.435   9.157  22.300  0.00  0.00    +0.000 C 
BRANCH  21  25
ATOM     25  C   UNL     1       0.986  10.766  20.259  0.00  0.00    +0.000 C 
BRANCH  25  31
ATOM     26  C   UNL     1      -1.130  10.405  17.934  0.00  0.00    +0.000 C 
ATOM     27  N   UNL     1      -1.290  11.154  19.154  0.00  0.00    +0.000 N 
ATOM     28  C   UNL     1      -2.426  11.806  19.528  0.00  0.00    +0.000 A 
ATOM     29  N   UNL     1      -2.222  12.432  20.653  0.00  0.00    +0.000 NA
ATOM     30  N   UNL     1      -0.935  12.154  21.059  0.00  0.00    +0.000 NA
ATOM     31  C   UNL     1      -0.383  11.359  20.163  0.00  0.00    +0.000 A 
ENDBRANCH  25  31
ENDBRANCH  21  25
ENDBRANCH   1  21
TORSDOF 5
ENDMDL
MODEL 7
REMARK VINA RESULT:      -8.4      1.150      1.521
REMARK  Name = 
REMARK  6 active torsions:
REMARK  status: ('A' for Active; 'I' for Inactive)
REMARK    1  A    between atoms: C_1  and  N_2
REMARK    2  A    between atoms: C_6  and  C_7
REMARK    3  A    between atoms: C_7  and  C_8
REMARK    4  A    between atoms: C_8  and  C_9
REMARK    5  A    between atoms: C_13  and  N_14
REMARK    6  A    between atoms: C_17  and  C_18
REMARK                            x       y       z     vdW  Elec       q    Type
REMARK                         _______ _______ _______ _____ _____    ______ ____
ROOT
ATOM      1  C   UNL     1       1.606   8.336  19.700  0.00  0.00    +0.000 A 
ATOM      2  C   UNL     1       2.126   8.880  18.508  0.00  0.00    +0.000 A 
ATOM      3  C   UNL     1       2.672   8.077  17.513  0.00  0.00    +0.000 A 
ATOM      4  C   UNL     1       2.818   6.715  17.732  0.00  0.00    +0.000 A 
ATOM      5  C   UNL     1       2.570   6.196  19.012  0.00  0.00    +0.000 A 
ATOM      6  C   UNL     1       1.836   6.966  19.919  0.00  0.00    +0.000 A 
ENDROOT
BRANCH   5   7
ATOM      7  N   UNL     1       3.439   5.160  19.557  0.00  0.00    +0.000 N 
ATOM      8  C   UNL     1       4.837   5.654  19.578  0.00  0.00    +0.000 C 
ATOM      9  C   UNL     1       5.309   5.298  18.200  0.00  0.00    +0.000 A 
ATOM     10  C   UNL     1       5.968   6.054  17.234  0.00  0.00    +0.000 A 
ATOM     11  C   UNL     1       5.943   5.550  15.918  0.00  0.00    +0.000 A 
ATOM     12  C   UNL     1       5.277   4.356  15.595  0.00  0.00    +0.000 A 
ATOM     13  F   UNL     1       5.189   3.991  14.309  0.00  0.00    +0.000 F 
ATOM     14  C   UNL     1       4.597   3.622  16.552  0.00  0.00    +0.000 A 
ATOM     15  C   UNL     1       4.615   4.128  17.837  0.00  0.00    +0.000 A 
ATOM     16  C   UNL     1       3.500   3.958  18.804  0.00  0.00    +0.000 C 
ATOM     17  O   UNL     1       2.689   3.053  18.765  0.00  0.00    +0.000 OA
BRANCH  10  18
ATOM     18  C   UNL     1       6.460   7.428  17.408  0.00  0.00    +0.000 C 
ATOM     19  C   UNL     1       7.723   7.825  17.565  0.00  0.00    +0.000 C 
ATOM     20  F   UNL     1       8.011   9.129  17.735  0.00  0.00    +0.000 F 
ENDBRANCH  10  18
ENDBRANCH   5   7
BRANCH   1  21
ATOM     21  C   UNL     1       0.808   9.246  20.742  0.00  0.00    +0.000 C 
ATOM     22  C   UNL     1      -0.292   8.559  21.600  0.00  0.00    +0.000 C 
ATOM     23  O   UNL     1       0.316   8.983  22.834  0.00  0.00    +0.000 OA
ATOM     24  C   UNL     1       1.466   9.503  22.127  0.00  0.00    +0.000 C 
BRANCH  21  25
ATOM     25  C   UNL     1       0.244  10.478  20.004  0.00  0.00    +0.000 C 
BRANCH  25  31
ATOM     26  C   UNL     1      -1.886  12.111  21.681  0.00  0.00    +0.000 C 
ATOM     27  N   UNL     1      -0.498  12.435  21.479  0.00  0.00    +0.000 N 
ATOM     28  C   UNL     1       0.145  13.503  22.030  0.00  0.00    +0.000 A 
ATOM     29  N   UNL     1       1.376  13.543  21.601  0.00  0.00    +0.000 NA
ATOM     30  N   UNL     1       1.569  12.453  20.781  0.00  0.00    +0.000 NA
ATOM     31  C   UNL     1       0.441  11.770  20.730  0.00  0.00    +0.000 A 
ENDBRANCH  25  31
ENDBRANCH  21  25
ENDBRANCH   1  21
TORSDOF 5
ENDMDL
MODEL 8
REMARK VINA RESULT:      -8.4      1.989      2.963
REMARK  Name = 
REMARK  6 active torsions:
REMARK  status: ('A' for Active; 'I' for Inactive)
REMARK    1  A    between atoms: C_1  and  N_2
REMARK    2  A    between atoms: C_6  and  C_7
REMARK    3  A    between atoms: C_7  and  C_8
REMARK    4  A    between atoms: C_8  and  C_9
REMARK    5  A    between atoms: C_13  and  N_14
REMARK    6  A    between atoms: C_17  and  C_18
REMARK                            x       y       z     vdW  Elec       q    Type
REMARK                         _______ _______ _______ _____ _____    ______ ____
ROOT
ATOM      1  C   UNL     1       1.529   8.956  19.205  0.00  0.00    +0.000 A 
ATOM      2  C   UNL     1       2.201   9.239  17.998  0.00  0.00    +0.000 A 
ATOM      3  C   UNL     1       2.901   8.260  17.302  0.00  0.00    +0.000 A 
ATOM      4  C   UNL     1       3.046   6.995  17.854  0.00  0.00    +0.000 A 
ATOM      5  C   UNL     1       2.630   6.773  19.176  0.00  0.00    +0.000 A 
ATOM      6  C   UNL     1       1.757   7.689  19.770  0.00  0.00    +0.000 A 
ENDROOT
BRANCH   5   7
ATOM      7  N   UNL     1       3.436   5.940  20.061  0.00  0.00    +0.000 N 
ATOM      8  C   UNL     1       4.463   5.228  19.262  0.00  0.00    +0.000 C 
ATOM      9  C   UNL     1       3.716   4.005  18.821  0.00  0.00    +0.000 A 
ATOM     10  C   UNL     1       3.576   3.420  17.565  0.00  0.00    +0.000 A 
ATOM     11  C   UNL     1       2.519   2.500  17.416  0.00  0.00    +0.000 A 
ATOM     12  C   UNL     1       1.645   2.198  18.473  0.00  0.00    +0.000 A 
ATOM     13  F   UNL     1       0.591   1.406  18.236  0.00  0.00    +0.000 F 
ATOM     14  C   UNL     1       1.768   2.804  19.712  0.00  0.00    +0.000 A 
ATOM     15  C   UNL     1       2.798   3.714  19.849  0.00  0.00    +0.000 A 
ATOM     16  C   UNL     1       2.732   4.906  20.732  0.00  0.00    +0.000 C 
ATOM     17  O   UNL     1       2.015   4.997  21.711  0.00  0.00    +0.000 OA
BRANCH  10  18
ATOM     18  C   UNL     1       4.255   3.854  16.336  0.00  0.00    +0.000 C 
ATOM     19  C   UNL     1       5.561   3.813  16.072  0.00  0.00    +0.000 C 
ATOM     20  F   UNL     1       6.033   4.272  14.897  0.00  0.00    +0.000 F 
ENDBRANCH  10  18
ENDBRANCH   5   7
BRANCH   1  21
ATOM     21  C   UNL     1       0.571  10.037  19.888  0.00  0.00    +0.000 C 
ATOM     22  C   UNL     1      -0.613   9.507  20.744  0.00  0.00    +0.000 C 
ATOM     23  O   UNL     1      -0.189  10.248  21.904  0.00  0.00    +0.000 OA
ATOM     24  C   UNL     1       1.029  10.655  21.239  0.00  0.00    +0.000 C 
BRANCH  21  25
ATOM     25  C   UNL     1       0.074  11.021  18.808  0.00  0.00    +0.000 C 
BRANCH  25  31
ATOM     26  C   UNL     1      -2.706  12.303  19.609  0.00  0.00    +0.000 C 
ATOM     27  N   UNL     1      -2.463  11.298  18.606  0.00  0.00    +0.000 N 
ATOM     28  C   UNL     1      -3.413  10.759  17.792  0.00  0.00    +0.000 A 
ATOM     29  N   UNL     1      -2.876   9.837  17.042  0.00  0.00    +0.000 NA
ATOM     30  N   UNL     1      -1.530   9.794  17.332  0.00  0.00    +0.000 NA
ATOM     31  C   UNL     1      -1.278  10.697  18.260  0.00  0.00    +0.000 A 
ENDBRANCH  25  31
ENDBRANCH  21  25
ENDBRANCH   1  21
TORSDOF 5
ENDMDL
MODEL 9
REMARK VINA RESULT:      -8.3      3.033      7.893
REMARK  Name = 
REMARK  6 active torsions:
REMARK  status: ('A' for Active; 'I' for Inactive)
REMARK    1  A    between atoms: C_1  and  N_2
REMARK    2  A    between atoms: C_6  and  C_7
REMARK    3  A    between atoms: C_7  and  C_8
REMARK    4  A    between atoms: C_8  and  C_9
REMARK    5  A    between atoms: C_13  and  N_14
REMARK    6  A    between atoms: C_17  and  C_18
REMARK                            x       y       z     vdW  Elec       q    Type
REMARK                         _______ _______ _______ _____ _____    ______ ____
ROOT
ATOM      1  C   UNL     1       2.180   5.584  19.202  0.00  0.00    +0.000 A 
ATOM      2  C   UNL     1       2.238   6.369  18.032  0.00  0.00    +0.000 A 
ATOM      3  C   UNL     1       2.246   7.758  18.081  0.00  0.00    +0.000 A 
ATOM      4  C   UNL     1       2.081   8.404  19.297  0.00  0.00    +0.000 A 
ATOM      5  C   UNL     1       1.740   7.652  20.432  0.00  0.00    +0.000 A 
ATOM      6  C   UNL     1       1.940   6.268  20.407  0.00  0.00    +0.000 A 
ENDROOT
BRANCH   5   7
ATOM      7  N   UNL     1       0.768   8.174  21.385  0.00  0.00    +0.000 N 
ATOM      8  C   UNL     1      -0.496   8.487  20.674  0.00  0.00    +0.000 C 
ATOM      9  C   UNL     1      -0.241   9.886  20.197  0.00  0.00    +0.000 A 
ATOM     10  C   UNL     1      -0.400  10.468  18.942  0.00  0.00    +0.000 A 
ATOM     11  C   UNL     1       0.271  11.690  18.729  0.00  0.00    +0.000 A 
ATOM     12  C   UNL     1       1.067  12.281  19.723  0.00  0.00    +0.000 A 
ATOM     13  F   UNL     1       1.771  13.380  19.420  0.00  0.00    +0.000 F 
ATOM     14  C   UNL     1       1.248  11.685  20.959  0.00  0.00    +0.000 A 
ATOM     15  C   UNL     1       0.599  10.481  21.158  0.00  0.00    +0.000 A 
ATOM     16  C   UNL     1       1.129   9.392  22.017  0.00  0.00    +0.000 C 
ATOM     17  O   UNL     1       1.905   9.560  22.939  0.00  0.00    +0.000 OA
BRANCH  10  18
ATOM     18  C   UNL     1      -0.981   9.816  17.761  0.00  0.00    +0.000 C 
ATOM     19  C   UNL     1      -2.110  10.138  17.129  0.00  0.00    +0.000 C 
ATOM     20  F   UNL     1      -2.522   9.423  16.064  0.00  0.00    +0.000 F 
ENDBRANCH  10  18
ENDBRANCH   5   7
BRANCH   1  21
ATOM     21  C   UNL     1       2.369   3.999  19.142  0.00  0.00    +0.000 C 
ATOM     22  C   UNL     1       1.456   3.133  20.054  0.00  0.00    +0.000 C 
ATOM     23  O   UNL     1       0.961   2.367  18.940  0.00  0.00    +0.000 OA
ATOM     24  C   UNL     1       1.646   3.229  18.002  0.00  0.00    +0.000 C 
BRANCH  21  25
ATOM     25  C   UNL     1       3.858   3.662  19.370  0.00  0.00    +0.000 C 
BRANCH  25  31
ATOM     26  C   UNL     1       6.476   5.438  19.297  0.00  0.00    +0.000 C 
ATOM     27  N   UNL     1       5.888   4.702  18.208  0.00  0.00    +0.000 N 
ATOM     28  C   UNL     1       6.407   4.617  16.951  0.00  0.00    +0.000 A 
ATOM     29  N   UNL     1       5.603   3.926  16.191  0.00  0.00    +0.000 NA
ATOM     30  N   UNL     1       4.549   3.504  16.971  0.00  0.00    +0.000 NA
ATOM     31  C   UNL     1       4.738   3.953  18.197  0.00  0.00    +0.000 A 
ENDBRANCH  25  31
ENDBRANCH  21  25
ENDBRANCH   1  21
TORSDOF 5
ENDMDL
