MODEL 1
REMARK VINA RESULT:      -8.5      0.000      0.000
REMARK  Name = 
REMARK  4 active torsions:
REMARK  status: ('A' for Active; 'I' for Inactive)
REMARK    1  A    between atoms: C_1  and  N_2
REMARK    2  A    between atoms: C_5  and  C_6
REMARK    3  A    between atoms: C_10  and  N_11
REMARK    4  A    between atoms: C_19  and  C_20
REMARK                            x       y       z     vdW  Elec       q    Type
REMARK                         _______ _______ _______ _____ _____    ______ ____
ROOT
ATOM      1  N   UNL     1       3.945   4.684  19.252  0.00  0.00    +0.000 N 
ATOM      2  C   UNL     1       5.312   5.271  19.331  0.00  0.00    +0.000 C 
ATOM      3  C   UNL     1       5.818   5.067  17.934  0.00  0.00    +0.000 A 
ATOM      4  C   UNL     1       5.132   3.975  17.393  0.00  0.00    +0.000 A 
ATOM      5  C   UNL     1       5.251   3.585  16.073  0.00  0.00    +0.000 A 
ATOM      6  C   UNL     1       6.089   4.352  15.279  0.00  0.00    +0.000 A 
ATOM      7  F   UNL     1       6.187   4.072  13.973  0.00  0.00    +0.000 F 
ATOM      8  C   UNL     1       6.774   5.467  15.788  0.00  0.00    +0.000 A 
ATOM      9  C   UNL     1       6.653   5.850  17.142  0.00  0.00    +0.000 A 
ATOM     10  C   UNL     1       4.022   3.634  18.310  0.00  0.00    +0.000 C 
ATOM     11  O   UNL     1       3.237   2.726  18.114  0.00  0.00    +0.000 OA
ENDROOT
BRANCH   1  16
ATOM     12  C   UNL     1       1.872   7.561  20.114  0.00  0.00    +0.000 A 
ATOM     13  C   UNL     1       2.219   8.391  19.034  0.00  0.00    +0.000 A 
ATOM     14  C   UNL     1       2.775   7.858  17.871  0.00  0.00    +0.000 A 
ATOM     15  C   UNL     1       3.099   6.505  17.809  0.00  0.00    +0.000 A 
ATOM     16  C   UNL     1       2.966   5.722  18.967  0.00  0.00    +0.000 A 
ATOM     17  C   UNL     1       2.216   6.206  20.044  0.00  0.00    +0.000 A 
BRANCH  12  22
ATOM     18  C   UNL     1       0.308  11.706  21.189  0.00  0.00    +0.000 C 
ATOM     19  N   UNL     1       0.552  10.328  20.808  0.00  0.00    +0.000 NA
ATOM     20  C   UNL     1      -0.613   9.469  20.985  0.00  0.00    +0.000 C 
ATOM     21  O   UNL     1      -0.167   8.128  21.228  0.00  0.00    +0.000 OA
ATOM     22  C   UNL     1       1.270   8.188  21.356  0.00  0.00    +0.000 C 
ATOM     23  C   UNL     1       1.557   9.666  21.639  0.00  0.00    +0.000 C 
ENDBRANCH  12  22
ENDBRANCH   1  16
BRANCH   9  24
ATOM     24  C   UNL     1       7.314   7.119  17.609  0.00  0.00    +0.000 C 
ATOM     25  F   UNL     1       8.038   6.986  18.751  0.00  0.00    +0.000 F 
ATOM     26  F   UNL     1       8.178   7.611  16.681  0.00  0.00    +0.000 F 
ATOM     27  F   UNL     1       6.418   8.120  17.849  0.00  0.00    +0.000 F 
ENDBRANCH   9  24
TORSDOF 3
ENDMDL
MODEL 2
REMARK VINA RESULT:      -8.2      3.592      4.829
REMARK  Name = 
REMARK  4 active torsions:
REMARK  status: ('A' for Active; 'I' for Inactive)
REMARK    1  A    between atoms: C_1  and  N_2
REMARK    2  A    between atoms: C_5  and  C_6
REMARK    3  A    between atoms: C_10  and  N_11
REMARK    4  A    between atoms: C_19  and  C_20
REMARK                            x       y       z     vdW  Elec       q    Type
REMARK                         _______ _______ _______ _____ _____    ______ ____
ROOT
ATOM      1  N   UNL     1       2.773   6.199  17.571  0.00  0.00    +0.000 N 
ATOM      2  C   UNL     1       1.775   5.116  17.793  0.00  0.00    +0.000 C 
ATOM      3  C   UNL     1       2.578   4.107  18.557  0.00  0.00    +0.000 A 
ATOM      4  C   UNL     1       3.922   4.296  18.222  0.00  0.00    +0.000 A 
ATOM      5  C   UNL     1       4.959   3.625  18.841  0.00  0.00    +0.000 A 
ATOM      6  C   UNL     1       4.604   2.743  19.850  0.00  0.00    +0.000 A 
ATOM      7  F   UNL     1       5.567   2.119  20.541  0.00  0.00    +0.000 F 
ATOM      8  C   UNL     1       3.264   2.548  20.224  0.00  0.00    +0.000 A 
ATOM      9  C   UNL     1       2.213   3.232  19.576  0.00  0.00    +0.000 A 
ATOM     10  C   UNL     1       4.029   5.561  17.462  0.00  0.00    +0.000 C 
ATOM     11  O   UNL     1       5.076   6.005  17.030  0.00  0.00    +0.000 OA
ENDROOT
BRANCH   1  16
ATOM     12  C   UNL     1       1.485   9.292  19.019  0.00  0.00    +0.000 A 
ATOM     13  C   UNL     1       1.087   8.781  20.266  0.00  0.00    +0.000 A 
ATOM     14  C   UNL     1       1.608   7.580  20.747  0.00  0.00    +0.000 A 
ATOM     15  C   UNL     1       2.448   6.813  19.944  0.00  0.00    +0.000 A 
ATOM     16  C   UNL     1       2.664   7.208  18.615  0.00  0.00    +0.000 A 
ATOM     17  C   UNL     1       2.318   8.504  18.216  0.00  0.00    +0.000 A 
BRANCH  12  22
ATOM     18  C   UNL     1       0.432  13.261  20.998  0.00  0.00    +0.000 C 
ATOM     19  N   UNL     1       0.987  12.122  20.292  0.00  0.00    +0.000 NA
ATOM     20  C   UNL     1       1.975  12.496  19.287  0.00  0.00    +0.000 C 
ATOM     21  O   UNL     1       1.981  11.503  18.252  0.00  0.00    +0.000 OA
ATOM     22  C   UNL     1       0.890  10.602  18.539  0.00  0.00    +0.000 C 
ATOM     23  C   UNL     1      -0.003  11.392  19.501  0.00  0.00    +0.000 C 
ENDBRANCH  12  22
ENDBRANCH   1  16
BRANCH   9  24
ATOM     24  C   UNL     1       0.807   3.076  20.092  0.00  0.00    +0.000 C 
ATOM     25  F   UNL     1      -0.031   2.420  19.248  0.00  0.00    +0.000 F 
ATOM     26  F   UNL     1       0.771   2.380  21.260  0.00  0.00    +0.000 F 
ATOM     27  F   UNL     1       0.209   4.274  20.355  0.00  0.00    +0.000 F 
ENDBRANCH   9  24
TORSDOF 3
ENDMDL
MODEL 3
REMARK VINA RESULT:      -8.0      6.937      9.294
REMARK  Name = 
REMARK  4 active torsions:
REMARK  status: ('A' for Active; 'I' for Inactive)
REMARK    1  A    between atoms: C_1  and  N_2
REMARK    2  A    between atoms: C_5  and  C_6
REMARK    3  A    between atoms: C_10  and  N_11
REMARK    4  A    between atoms: C_19  and  C_20
REMARK                            x       y       z     vdW  Elec       q    Type
REMARK                         _______ _______ _______ _____ _____    ______ ____
ROOT
ATOM      1  N   UNL     1      -0.433  11.350  18.452  0.00  0.00    +0.000 N 
ATOM      2  C   UNL     1       0.312  10.519  19.439  0.00  0.00    +0.000 C 
ATOM      3  C   UNL     1      -0.092  11.146  20.739  0.00  0.00    +0.000 A 
ATOM      4  C   UNL     1      -0.437  12.476  20.476  0.00  0.00    +0.000 A 
ATOM      5  C   UNL     1      -0.983  13.319  21.424  0.00  0.00    +0.000 A 
ATOM      6  C   UNL     1      -1.199  12.773  22.680  0.00  0.00    +0.000 A 
ATOM      7  F   UNL     1      -1.796  13.515  23.621  0.00  0.00    +0.000 F 
ATOM      8  C   UNL     1      -0.883  11.435  22.969  0.00  0.00    +0.000 A 
ATOM      9  C   UNL     1      -0.315  10.587  21.994  0.00  0.00    +0.000 A 
ATOM     10  C   UNL     1      -0.510  12.646  19.008  0.00  0.00    +0.000 C 
ATOM     11  O   UNL     1      -0.792  13.695  18.461  0.00  0.00    +0.000 OA
ENDROOT
BRANCH   1  16
ATOM     12  C   UNL     1      -4.032  11.360  17.848  0.00  0.00    +0.000 A 
ATOM     13  C   UNL     1      -4.032  10.683  16.616  0.00  0.00    +0.000 A 
ATOM     14  C   UNL     1      -2.945   9.900  16.229  0.00  0.00    +0.000 A 
ATOM     15  C   UNL     1      -1.793   9.870  17.011  0.00  0.00    +0.000 A 
ATOM     16  C   UNL     1      -1.705  10.724  18.122  0.00  0.00    +0.000 A 
ATOM     17  C   UNL     1      -2.863  11.333  18.617  0.00  0.00    +0.000 A 
BRANCH  12  22
ATOM     18  C   UNL     1      -7.676  10.736  20.516  0.00  0.00    +0.000 C 
ATOM     19  N   UNL     1      -6.417  11.065  19.873  0.00  0.00    +0.000 NA
ATOM     20  C   UNL     1      -5.750  12.213  20.474  0.00  0.00    +0.000 C 
ATOM     21  O   UNL     1      -4.945  12.856  19.476  0.00  0.00    +0.000 OA
ATOM     22  C   UNL     1      -5.239  12.198  18.224  0.00  0.00    +0.000 C 
ATOM     23  C   UNL     1      -6.569  11.486  18.481  0.00  0.00    +0.000 C 
ENDBRANCH  12  22
ENDBRANCH   1  16
BRANCH   9  24
ATOM     24  C   UNL     1      -0.105   9.132  22.318  0.00  0.00    +0.000 C 
ATOM     25  F   UNL     1      -0.894   8.280  21.612  0.00  0.00    +0.000 F 
ATOM     26  F   UNL     1       1.173   8.737  22.072  0.00  0.00    +0.000 F 
ATOM     27  F   UNL     1      -0.333   8.849  23.633  0.00  0.00    +0.000 F 
ENDBRANCH   9  24
TORSDOF 3
ENDMDL
MODEL 4
REMARK VINA RESULT:      -8.0      2.177      3.042
REMARK  Name = 
REMARK  4 active torsions:
REMARK  status: ('A' for Active; 'I' for Inactive)
REMARK    1  A    between atoms: C_1  and  N_2
REMARK    2  A    between atoms: C_5  and  C_6
REMARK    3  A    between atoms: C_10  and  N_11
REMARK    4  A    between atoms: C_19  and  C_20
REMARK                            x       y       z     vdW  Elec       q    Type
REMARK                         _______ _______ _______ _____ _____    ______ ____
ROOT
ATOM      1  N   UNL     1       3.146   6.330  20.108  0.00  0.00    +0.000 N 
ATOM      2  C   UNL     1       4.353   6.112  19.263  0.00  0.00    +0.000 C 
ATOM      3  C   UNL     1       3.996   4.853  18.532  0.00  0.00    +0.000 A 
ATOM      4  C   UNL     1       3.080   4.152  19.323  0.00  0.00    +0.000 A 
ATOM      5  C   UNL     1       2.436   3.006  18.899  0.00  0.00    +0.000 A 
ATOM      6  C   UNL     1       2.728   2.576  17.614  0.00  0.00    +0.000 A 
ATOM      7  F   UNL     1       2.079   1.515  17.116  0.00  0.00    +0.000 F 
ATOM      8  C   UNL     1       3.627   3.271  16.788  0.00  0.00    +0.000 A 
ATOM      9  C   UNL     1       4.288   4.435  17.237  0.00  0.00    +0.000 A 
ATOM     10  C   UNL     1       2.647   5.046  20.419  0.00  0.00    +0.000 C 
ATOM     11  O   UNL     1       1.846   4.725  21.277  0.00  0.00    +0.000 OA
ENDROOT
BRANCH   1  16
ATOM     12  C   UNL     1       1.249   9.429  19.771  0.00  0.00    +0.000 A 
ATOM     13  C   UNL     1       1.612   9.746  18.451  0.00  0.00    +0.000 A 
ATOM     14  C   UNL     1       2.111   8.769  17.591  0.00  0.00    +0.000 A 
ATOM     15  C   UNL     1       2.362   7.484  18.067  0.00  0.00    +0.000 A 
ATOM     16  C   UNL     1       2.216   7.227  19.439  0.00  0.00    +0.000 A 
ATOM     17  C   UNL     1       1.519   8.138  20.240  0.00  0.00    +0.000 A 
BRANCH  12  22
ATOM     18  C   UNL     1      -0.504  13.580  19.073  0.00  0.00    +0.000 C 
ATOM     19  N   UNL     1      -0.198  12.182  19.314  0.00  0.00    +0.000 NA
ATOM     20  C   UNL     1      -1.281  11.463  19.972  0.00  0.00    +0.000 C 
ATOM     21  O   UNL     1      -0.725  10.380  20.732  0.00  0.00    +0.000 OA
ATOM     22  C   UNL     1       0.710  10.528  20.668  0.00  0.00    +0.000 C 
ATOM     23  C   UNL     1       0.917  11.984  20.240  0.00  0.00    +0.000 C 
ENDBRANCH  12  22
ENDBRANCH   1  16
BRANCH   9  24
ATOM     24  C   UNL     1       5.149   5.208  16.274  0.00  0.00    +0.000 C 
ATOM     25  F   UNL     1       4.711   6.468  16.016  0.00  0.00    +0.000 F 
ATOM     26  F   UNL     1       6.421   5.349  16.734  0.00  0.00    +0.000 F 
ATOM     27  F   UNL     1       5.260   4.595  15.060  0.00  0.00    +0.000 F 
ENDBRANCH   9  24
TORSDOF 3
ENDMDL
MODEL 5
REMARK VINA RESULT:      -8.0      3.652      4.858
REMARK  Name = 
REMARK  4 active torsions:
REMARK  status: ('A' for Active; 'I' for Inactive)
REMARK    1  A    between atoms: C_1  and  N_2
REMARK    2  A    between atoms: C_5  and  C_6
REMARK    3  A    between atoms: C_10  and  N_11
REMARK    4  A    between atoms: C_19  and  C_20
REMARK                            x       y       z     vdW  Elec       q    Type
REMARK                         _______ _______ _______ _____ _____    ______ ____
ROOT
ATOM      1  N   UNL     1       2.684   6.278  17.595  0.00  0.00    +0.000 N 
ATOM      2  C   UNL     1       1.701   5.183  17.826  0.00  0.00    +0.000 C 
ATOM      3  C   UNL     1       2.529   4.174  18.562  0.00  0.00    +0.000 A 
ATOM      4  C   UNL     1       3.864   4.380  18.200  0.00  0.00    +0.000 A 
ATOM      5  C   UNL     1       4.920   3.712  18.790  0.00  0.00    +0.000 A 
ATOM      6  C   UNL     1       4.595   2.816  19.797  0.00  0.00    +0.000 A 
ATOM      7  F   UNL     1       5.579   2.194  20.461  0.00  0.00    +0.000 F 
ATOM      8  C   UNL     1       3.266   2.604  20.197  0.00  0.00    +0.000 A 
ATOM      9  C   UNL     1       2.194   3.285  19.579  0.00  0.00    +0.000 A 
ATOM     10  C   UNL     1       3.943   5.653  17.452  0.00  0.00    +0.000 C 
ATOM     11  O   UNL     1       4.976   6.111  17.002  0.00  0.00    +0.000 OA
ENDROOT
BRANCH   1  16
ATOM     12  C   UNL     1       1.357   9.313  19.126  0.00  0.00    +0.000 A 
ATOM     13  C   UNL     1       1.034   8.780  20.386  0.00  0.00    +0.000 A 
ATOM     14  C   UNL     1       1.618   7.595  20.832  0.00  0.00    +0.000 A 
ATOM     15  C   UNL     1       2.447   6.863  19.985  0.00  0.00    +0.000 A 
ATOM     16  C   UNL     1       2.587   7.275  18.651  0.00  0.00    +0.000 A 
ATOM     17  C   UNL     1       2.180   8.561  18.280  0.00  0.00    +0.000 A 
BRANCH  12  22
ATOM     18  C   UNL     1      -2.890  10.532  18.004  0.00  0.00    +0.000 C 
ATOM     19  N   UNL     1      -1.597  10.247  18.597  0.00  0.00    +0.000 NA
ATOM     20  C   UNL     1      -1.295  11.090  19.747  0.00  0.00    +0.000 C 
ATOM     21  O   UNL     1       0.129  11.231  19.857  0.00  0.00    +0.000 OA
ATOM     22  C   UNL     1       0.696  10.605  18.686  0.00  0.00    +0.000 C 
ATOM     23  C   UNL     1      -0.475  10.526  17.701  0.00  0.00    +0.000 C 
ENDBRANCH  12  22
ENDBRANCH   1  16
BRANCH   9  24
ATOM     24  C   UNL     1       0.802   3.110  20.124  0.00  0.00    +0.000 C 
ATOM     25  F   UNL     1      -0.044   2.441  19.297  0.00  0.00    +0.000 F 
ATOM     26  F   UNL     1       0.798   2.416  21.293  0.00  0.00    +0.000 F 
ATOM     27  F   UNL     1       0.192   4.300  20.396  0.00  0.00    +0.000 F 
ENDBRANCH   9  24
TORSDOF 3
ENDMDL
MODEL 6
REMARK VINA RESULT:      -7.9      4.286      8.171
REMARK  Name = 
REMARK  4 active torsions:
REMARK  status: ('A' for Active; 'I' for Inactive)
REMARK    1  A    between atoms: C_1  and  N_2
REMARK    2  A    between atoms: C_5  and  C_6
REMARK    3  A    between atoms: C_10  and  N_11
REMARK    4  A    between atoms: C_19  and  C_20
REMARK                            x       y       z     vdW  Elec       q    Type
REMARK                         _______ _______ _______ _____ _____    ______ ____
ROOT
ATOM      1  N   UNL     1       0.106   9.199  20.703  0.00  0.00    +0.000 N 
ATOM      2  C   UNL     1      -1.084   9.139  19.808  0.00  0.00    +0.000 C 
ATOM      3  C   UNL     1      -1.178  10.554  19.323  0.00  0.00    +0.000 A 
ATOM      4  C   UNL     1      -0.584  11.371  20.290  0.00  0.00    +0.000 A 
ATOM      5  C   UNL     1      -0.376  12.726  20.112  0.00  0.00    +0.000 A 
ATOM      6  C   UNL     1      -0.775  13.254  18.894  0.00  0.00    +0.000 A 
ATOM      7  F   UNL     1      -0.531  14.544  18.630  0.00  0.00    +0.000 F 
ATOM      8  C   UNL     1      -1.356  12.454  17.895  0.00  0.00    +0.000 A 
ATOM      9  C   UNL     1      -1.573  11.073  18.094  0.00  0.00    +0.000 A 
ATOM     10  C   UNL     1       0.114  10.498  21.258  0.00  0.00    +0.000 C 
ATOM     11  O   UNL     1       0.733  10.914  22.220  0.00  0.00    +0.000 OA
ENDROOT
BRANCH   1  16
ATOM     12  C   UNL     1       2.517   6.788  19.405  0.00  0.00    +0.000 A 
ATOM     13  C   UNL     1       2.539   7.223  18.069  0.00  0.00    +0.000 A 
ATOM     14  C   UNL     1       2.105   8.502  17.725  0.00  0.00    +0.000 A 
ATOM     15  C   UNL     1       1.537   9.329  18.691  0.00  0.00    +0.000 A 
ATOM     16  C   UNL     1       1.305   8.813  19.976  0.00  0.00    +0.000 A 
ATOM     17  C   UNL     1       1.931   7.623  20.363  0.00  0.00    +0.000 A 
BRANCH  12  22
ATOM     18  C   UNL     1       0.727   2.609  19.062  0.00  0.00    +0.000 C 
ATOM     19  N   UNL     1       1.417   3.880  18.945  0.00  0.00    +0.000 NA
ATOM     20  C   UNL     1       2.595   3.815  18.089  0.00  0.00    +0.000 C 
ATOM     21  O   UNL     1       3.533   4.814  18.515  0.00  0.00    +0.000 OA
ATOM     22  C   UNL     1       3.001   5.387  19.728  0.00  0.00    +0.000 C 
ATOM     23  C   UNL     1       1.976   4.356  20.210  0.00  0.00    +0.000 C 
ENDBRANCH  12  22
ENDBRANCH   1  16
BRANCH   9  24
ATOM     24  C   UNL     1      -2.088  10.240  16.951  0.00  0.00    +0.000 C 
ATOM     25  F   UNL     1      -2.354  10.943  15.819  0.00  0.00    +0.000 F 
ATOM     26  F   UNL     1      -1.199   9.278  16.585  0.00  0.00    +0.000 F 
ATOM     27  F   UNL     1      -3.242   9.581  17.261  0.00  0.00    +0.000 F 
ENDBRANCH   9  24
TORSDOF 3
ENDMDL
MODEL 7
REMARK VINA RESULT:      -7.8      4.248      7.735
REMARK  Name = 
REMARK  4 active torsions:
REMARK  status: ('A' for Active; 'I' for Inactive)
REMARK    1  A    between atoms: C_1  and  N_2
REMARK    2  A    between atoms: C_5  and  C_6
REMARK    3  A    between atoms: C_10  and  N_11
REMARK    4  A    between atoms: C_19  and  C_20
REMARK                            x       y       z     vdW  Elec       q    Type
REMARK                         _______ _______ _______ _____ _____    ______ ____
ROOT
ATOM      1  N   UNL     1       0.697   8.263  21.318  0.00  0.00    +0.000 N 
ATOM      2  C   UNL     1      -0.525   8.635  20.551  0.00  0.00    +0.000 C 
ATOM      3  C   UNL     1      -0.221  10.046  20.149  0.00  0.00    +0.000 A 
ATOM      4  C   UNL     1       0.677  10.567  21.086  0.00  0.00    +0.000 A 
ATOM      5  C   UNL     1       1.276  11.805  20.954  0.00  0.00    +0.000 A 
ATOM      6  C   UNL     1       0.956  12.524  19.812  0.00  0.00    +0.000 A 
ATOM      7  F   UNL     1       1.561  13.697  19.588  0.00  0.00    +0.000 F 
ATOM      8  C   UNL     1       0.074  12.018  18.843  0.00  0.00    +0.000 A 
ATOM      9  C   UNL     1      -0.540  10.756  18.995  0.00  0.00    +0.000 A 
ATOM     10  C   UNL     1       1.153   9.451  21.932  0.00  0.00    +0.000 C 
ATOM     11  O   UNL     1       1.949   9.583  22.842  0.00  0.00    +0.000 OA
ENDROOT
BRANCH   1  16
ATOM     12  C   UNL     1       1.924   5.439  19.359  0.00  0.00    +0.000 A 
ATOM     13  C   UNL     1       2.183   6.123  18.159  0.00  0.00    +0.000 A 
ATOM     14  C   UNL     1       2.342   7.508  18.143  0.00  0.00    +0.000 A 
ATOM     15  C   UNL     1       2.134   8.247  19.305  0.00  0.00    +0.000 A 
ATOM     16  C   UNL     1       1.652   7.591  20.450  0.00  0.00    +0.000 A 
ATOM     17  C   UNL     1       1.704   6.194  20.516  0.00  0.00    +0.000 A 
BRANCH  12  22
ATOM     18  C   UNL     1       4.629   1.886  20.278  0.00  0.00    +0.000 C 
ATOM     19  N   UNL     1       3.674   2.976  20.228  0.00  0.00    +0.000 NA
ATOM     20  C   UNL     1       2.575   2.820  21.174  0.00  0.00    +0.000 C 
ATOM     21  O   UNL     1       1.419   3.494  20.657  0.00  0.00    +0.000 OA
ATOM     22  C   UNL     1       1.760   3.931  19.324  0.00  0.00    +0.000 C 
ATOM     23  C   UNL     1       2.972   3.075  18.948  0.00  0.00    +0.000 C 
ENDBRANCH  12  22
ENDBRANCH   1  16
BRANCH   9  24
ATOM     24  C   UNL     1      -1.382  10.209  17.873  0.00  0.00    +0.000 C 
ATOM     25  F   UNL     1      -0.771   9.250  17.129  0.00  0.00    +0.000 F 
ATOM     26  F   UNL     1      -2.530   9.642  18.332  0.00  0.00    +0.000 F 
ATOM     27  F   UNL     1      -1.772  11.174  16.991  0.00  0.00    +0.000 F 
ENDBRANCH   9  24
TORSDOF 3
ENDMDL
MODEL 8
REMARK VINA RESULT:      -7.8      4.264      7.821
REMARK  Name = 
REMARK  4 active torsions:
REMARK  status: ('A' for Active; 'I' for Inactive)
REMARK    1  A    between atoms: C_1  and  N_2
REMARK    2  A    between atoms: C_5  and  C_6
REMARK    3  A    between atoms: C_10  and  N_11
REMARK    4  A    between atoms: C_19  and  C_20
REMARK                            x       y       z     vdW  Elec       q    Type
REMARK                         _______ _______ _______ _____ _____    ______ ____
ROOT
ATOM      1  N   UNL     1       0.704   8.414  21.066  0.00  0.00    +0.000 N 
ATOM      2  C   UNL     1      -0.560   8.718  20.340  0.00  0.00    +0.000 C 
ATOM      3  C   UNL     1      -0.458  10.201  20.148  0.00  0.00    +0.000 A 
ATOM      4  C   UNL     1       0.361  10.702  21.165  0.00  0.00    +0.000 A 
ATOM      5  C   UNL     1       0.780  12.018  21.220  0.00  0.00    +0.000 A 
ATOM      6  C   UNL     1       0.358  12.841  20.187  0.00  0.00    +0.000 A 
ATOM      7  F   UNL     1       0.793  14.107  20.142  0.00  0.00    +0.000 F 
ATOM      8  C   UNL     1      -0.447  12.361  19.141  0.00  0.00    +0.000 A 
ATOM      9  C   UNL     1      -0.877  11.017  19.101  0.00  0.00    +0.000 A 
ATOM     10  C   UNL     1       0.991   9.553  21.851  0.00  0.00    +0.000 C 
ATOM     11  O   UNL     1       1.764   9.663  22.783  0.00  0.00    +0.000 OA
ENDROOT
BRANCH   1  16
ATOM     12  C   UNL     1       2.509   5.999  19.010  0.00  0.00    +0.000 A 
ATOM     13  C   UNL     1       2.485   6.708  17.797  0.00  0.00    +0.000 A 
ATOM     14  C   UNL     1       2.260   8.084  17.776  0.00  0.00    +0.000 A 
ATOM     15  C   UNL     1       1.943   8.757  18.954  0.00  0.00    +0.000 A 
ATOM     16  C   UNL     1       1.742   8.013  20.127  0.00  0.00    +0.000 A 
ATOM     17  C   UNL     1       2.175   6.684  20.184  0.00  0.00    +0.000 A 
BRANCH  12  22
ATOM     18  C   UNL     1       1.464   2.508  21.751  0.00  0.00    +0.000 C 
ATOM     19  N   UNL     1       1.587   3.542  20.740  0.00  0.00    +0.000 NA
ATOM     20  C   UNL     1       0.923   3.200  19.488  0.00  0.00    +0.000 C 
ATOM     21  O   UNL     1       1.590   3.873  18.411  0.00  0.00    +0.000 OA
ATOM     22  C   UNL     1       2.758   4.502  18.980  0.00  0.00    +0.000 C 
ATOM     23  C   UNL     1       2.966   3.772  20.310  0.00  0.00    +0.000 C 
ENDBRANCH  12  22
ENDBRANCH   1  16
BRANCH   9  24
ATOM     24  C   UNL     1      -1.639  10.525  17.899  0.00  0.00    +0.000 C 
ATOM     25  F   UNL     1      -2.007  11.502  17.031  0.00  0.00    +0.000 F 
ATOM     26  F   UNL     1      -0.912   9.639  17.168  0.00  0.00    +0.000 F 
ATOM     27  F   UNL     1      -2.789   9.873  18.238  0.00  0.00    +0.000 F 
ENDBRANCH   9  24
TORSDOF 3
ENDMDL
MODEL 9
REMARK VINA RESULT:      -7.8      5.771      8.919
REMARK  Name = 
REMARK  4 active torsions:
REMARK  status: ('A' for Active; 'I' for Inactive)
REMARK    1  A    between atoms: C_1  and  N_2
REMARK    2  A    between atoms: C_5  and  C_6
REMARK    3  A    between atoms: C_10  and  N_11
REMARK    4  A    between atoms: C_19  and  C_20
REMARK                            x       y       z     vdW  Elec       q    Type
REMARK                         _______ _______ _______ _____ _____    ______ ____
ROOT
ATOM      1  N   UNL     1      -1.753  12.506  19.030  0.00  0.00    +0.000 N 
ATOM      2  C   UNL     1      -0.372  12.116  18.628  0.00  0.00    +0.000 C 
ATOM      3  C   UNL     1       0.031  11.205  19.748  0.00  0.00    +0.000 A 
ATOM      4  C   UNL     1      -0.713  11.569  20.875  0.00  0.00    +0.000 A 
ATOM      5  C   UNL     1      -0.693  10.854  22.058  0.00  0.00    +0.000 A 
ATOM      6  C   UNL     1       0.102   9.719  22.077  0.00  0.00    +0.000 A 
ATOM      7  F   UNL     1       0.105   8.941  23.168  0.00  0.00    +0.000 F 
ATOM      8  C   UNL     1       0.844   9.317  20.954  0.00  0.00    +0.000 A 
ATOM      9  C   UNL     1       0.824  10.062  19.755  0.00  0.00    +0.000 A 
ATOM     10  C   UNL     1      -1.763  12.517  20.443  0.00  0.00    +0.000 C 
ATOM     11  O   UNL     1      -2.577  13.015  21.197  0.00  0.00    +0.000 OA
ENDROOT
BRANCH   1  16
ATOM     12  C   UNL     1      -5.066  11.683  17.742  0.00  0.00    +0.000 A 
ATOM     13  C   UNL     1      -4.681  11.226  16.470  0.00  0.00    +0.000 A 
ATOM     14  C   UNL     1      -3.371  10.818  16.222  0.00  0.00    +0.000 A 
ATOM     15  C   UNL     1      -2.396  10.965  17.206  0.00  0.00    +0.000 A 
ATOM     16  C   UNL     1      -2.729  11.632  18.396  0.00  0.00    +0.000 A 
ATOM     17  C   UNL     1      -4.075  11.839  18.717  0.00  0.00    +0.000 A 
BRANCH  12  22
ATOM     18  C   UNL     1      -7.086  15.448  19.331  0.00  0.00    +0.000 C 
ATOM     19  N   UNL     1      -6.496  14.351  18.588  0.00  0.00    +0.000 NA
ATOM     20  C   UNL     1      -7.003  14.244  17.225  0.00  0.00    +0.000 C 
ATOM     21  O   UNL     1      -6.916  12.875  16.805  0.00  0.00    +0.000 OA
ATOM     22  C   UNL     1      -6.504  12.115  17.961  0.00  0.00    +0.000 C 
ATOM     23  C   UNL     1      -6.815  13.036  19.144  0.00  0.00    +0.000 C 
ENDBRANCH  12  22
ENDBRANCH   1  16
BRANCH   9  24
ATOM     24  C   UNL     1       1.542   9.525  18.545  0.00  0.00    +0.000 C 
ATOM     25  F   UNL     1       2.412  10.399  17.975  0.00  0.00    +0.000 F 
ATOM     26  F   UNL     1       2.274   8.418  18.840  0.00  0.00    +0.000 F 
ATOM     27  F   UNL     1       0.685   9.149  17.551  0.00  0.00    +0.000 F 
ENDBRANCH   9  24
TORSDOF 3
ENDMDL
