MODEL 1
REMARK VINA RESULT:      -9.0      0.000      0.000
REMARK  Name = 
REMARK  5 active torsions:
REMARK  status: ('A' for Active; 'I' for Inactive)
REMARK    1  A    between atoms: C_2  and  C_17
REMARK    2  A    between atoms: N_3  and  C_4
REMARK    3  A    between atoms: C_4  and  C_5
REMARK    4  A    between atoms: C_9  and  N_10
REMARK    5  A    between atoms: C_11  and  C_13
REMARK                            x       y       z     vdW  Elec       q    Type
REMARK                         _______ _______ _______ _____ _____    ______ ____
ROOT
ATOM      1  O   UNL     1       2.040   5.445  17.808  0.00  0.00    +0.000 OA
ATOM      2  C   UNL     1       2.497   5.932  18.836  0.00  0.00    +0.000 C 
ATOM      3  N   UNL     1       3.463   5.325  19.611  0.00  0.00    +0.000 N 
ATOM      4  H   UNL     1       3.880   5.836  20.377  0.00  0.00    +0.000 HD
ENDROOT
BRANCH   2   5
ATOM      5  C   UNL     1       2.146   7.315  19.294  0.00  0.00    +0.000 A 
ATOM      6  C   UNL     1       1.770   7.468  20.574  0.00  0.00    +0.000 A 
ATOM      7  C   UNL     1       1.106   8.711  20.970  0.00  0.00    +0.000 A 
ATOM      8  C   UNL     1       0.452   8.801  22.202  0.00  0.00    +0.000 A 
ATOM      9  C   UNL     1      -0.390   9.884  22.465  0.00  0.00    +0.000 A 
ATOM     10  C   UNL     1      -0.550  10.900  21.519  0.00  0.00    +0.000 A 
ATOM     11  C   UNL     1       0.157  10.854  20.318  0.00  0.00    +0.000 A 
ATOM     12  C   UNL     1       0.976   9.756  20.043  0.00  0.00    +0.000 A 
ATOM     13  C   UNL     1       1.629   9.619  18.717  0.00  0.00    +0.000 A 
ATOM     14  O   UNL     1       1.699  10.551  17.924  0.00  0.00    +0.000 OA
ATOM     15  N   UNL     1       2.110   8.365  18.407  0.00  0.00    +0.000 N 
ATOM     16  H   UNL     1       2.520   8.267  17.487  0.00  0.00    +0.000 HD
ENDBRANCH   2   5
BRANCH   3  17
ATOM     17  C   UNL     1       4.069   4.071  19.224  0.00  0.00    +0.000 C 
BRANCH  17  18
ATOM     18  C   UNL     1       5.219   4.274  18.268  0.00  0.00    +0.000 A 
ATOM     19  C   UNL     1       6.434   4.781  18.752  0.00  0.00    +0.000 A 
ATOM     20  C   UNL     1       7.515   4.934  17.900  0.00  0.00    +0.000 A 
ATOM     21  C   UNL     1       7.411   4.581  16.550  0.00  0.00    +0.000 A 
ATOM     22  C   UNL     1       6.216   4.073  16.029  0.00  0.00    +0.000 A 
ATOM     23  C   UNL     1       5.115   3.946  16.896  0.00  0.00    +0.000 A 
BRANCH  22  24
ATOM     24  N   UNL     1       6.073   3.657  14.678  0.00  0.00    +0.000 N 
ATOM     25  C   UNL     1       6.622   4.280  13.564  0.00  0.00    +0.000 C 
ATOM     26  O   UNL     1       7.274   5.314  13.561  0.00  0.00    +0.000 OA
ATOM     27  H   UNL     1       5.539   2.817  14.519  0.00  0.00    +0.000 HD
BRANCH  25  28
ATOM     28  C   UNL     1       6.406   3.638  12.235  0.00  0.00    +0.000 C 
ATOM     29  C   UNL     1       4.998   3.323  11.786  0.00  0.00    +0.000 C 
ATOM     30  C   UNL     1       6.003   2.217  11.947  0.00  0.00    +0.000 C 
ENDBRANCH  25  28
ENDBRANCH  22  24
ENDBRANCH  17  18
ENDBRANCH   3  17
TORSDOF 5
ENDMDL
MODEL 2
REMARK VINA RESULT:      -8.6      1.808      8.855
REMARK  Name = 
REMARK  5 active torsions:
REMARK  status: ('A' for Active; 'I' for Inactive)
REMARK    1  A    between atoms: C_2  and  C_17
REMARK    2  A    between atoms: N_3  and  C_4
REMARK    3  A    between atoms: C_4  and  C_5
REMARK    4  A    between atoms: C_9  and  N_10
REMARK    5  A    between atoms: C_11  and  C_13
REMARK                            x       y       z     vdW  Elec       q    Type
REMARK                         _______ _______ _______ _____ _____    ______ ____
ROOT
ATOM      1  O   UNL     1       6.068   6.072  18.029  0.00  0.00    +0.000 OA
ATOM      2  C   UNL     1       6.064   5.037  17.371  0.00  0.00    +0.000 C 
ATOM      3  N   UNL     1       5.751   3.798  17.888  0.00  0.00    +0.000 N 
ATOM      4  H   UNL     1       5.650   3.010  17.264  0.00  0.00    +0.000 HD
ENDROOT
BRANCH   2   5
ATOM      5  C   UNL     1       6.274   5.030  15.887  0.00  0.00    +0.000 A 
ATOM      6  C   UNL     1       5.322   4.464  15.128  0.00  0.00    +0.000 A 
ATOM      7  C   UNL     1       5.632   4.136  13.736  0.00  0.00    +0.000 A 
ATOM      8  C   UNL     1       4.786   3.302  13.001  0.00  0.00    +0.000 A 
ATOM      9  C   UNL     1       5.209   2.787  11.774  0.00  0.00    +0.000 A 
ATOM     10  C   UNL     1       6.459   3.136  11.256  0.00  0.00    +0.000 A 
ATOM     11  C   UNL     1       7.279   4.027  11.949  0.00  0.00    +0.000 A 
ATOM     12  C   UNL     1       6.867   4.518  13.190  0.00  0.00    +0.000 A 
ATOM     13  C   UNL     1       7.779   5.357  14.007  0.00  0.00    +0.000 A 
ATOM     14  O   UNL     1       8.793   5.863  13.541  0.00  0.00    +0.000 OA
ATOM     15  N   UNL     1       7.447   5.493  15.337  0.00  0.00    +0.000 N 
ATOM     16  H   UNL     1       8.091   6.034  15.899  0.00  0.00    +0.000 HD
ENDBRANCH   2   5
BRANCH   3  17
ATOM     17  C   UNL     1       5.331   3.633  19.261  0.00  0.00    +0.000 C 
BRANCH  17  18
ATOM     18  C   UNL     1       3.858   3.915  19.436  0.00  0.00    +0.000 A 
ATOM     19  C   UNL     1       2.919   2.987  18.963  0.00  0.00    +0.000 A 
ATOM     20  C   UNL     1       1.565   3.207  19.152  0.00  0.00    +0.000 A 
ATOM     21  C   UNL     1       1.118   4.351  19.820  0.00  0.00    +0.000 A 
ATOM     22  C   UNL     1       2.022   5.301  20.306  0.00  0.00    +0.000 A 
ATOM     23  C   UNL     1       3.395   5.083  20.086  0.00  0.00    +0.000 A 
BRANCH  22  24
ATOM     24  N   UNL     1       1.622   6.456  21.030  0.00  0.00    +0.000 N 
ATOM     25  C   UNL     1       1.586   7.758  20.546  0.00  0.00    +0.000 C 
ATOM     26  O   UNL     1       1.940   8.127  19.436  0.00  0.00    +0.000 OA
ATOM     27  H   UNL     1       1.316   6.310  21.979  0.00  0.00    +0.000 HD
BRANCH  25  28
ATOM     28  C   UNL     1       1.065   8.820  21.454  0.00  0.00    +0.000 C 
ATOM     29  C   UNL     1      -0.333   9.355  21.241  0.00  0.00    +0.000 C 
ATOM     30  C   UNL     1       0.850  10.278  21.147  0.00  0.00    +0.000 C 
ENDBRANCH  25  28
ENDBRANCH  22  24
ENDBRANCH  17  18
ENDBRANCH   3  17
TORSDOF 5
ENDMDL
MODEL 3
REMARK VINA RESULT:      -8.5      2.895      8.549
REMARK  Name = 
REMARK  5 active torsions:
REMARK  status: ('A' for Active; 'I' for Inactive)
REMARK    1  A    between atoms: C_2  and  C_17
REMARK    2  A    between atoms: N_3  and  C_4
REMARK    3  A    between atoms: C_4  and  C_5
REMARK    4  A    between atoms: C_9  and  N_10
REMARK    5  A    between atoms: C_11  and  C_13
REMARK                            x       y       z     vdW  Elec       q    Type
REMARK                         _______ _______ _______ _____ _____    ______ ____
ROOT
ATOM      1  O   UNL     1       1.019   5.647  20.883  0.00  0.00    +0.000 OA
ATOM      2  C   UNL     1       1.896   6.303  20.332  0.00  0.00    +0.000 C 
ATOM      3  N   UNL     1       2.111   7.646  20.560  0.00  0.00    +0.000 N 
ATOM      4  H   UNL     1       2.925   8.094  20.165  0.00  0.00    +0.000 HD
ENDROOT
BRANCH   2   5
ATOM      5  C   UNL     1       2.925   5.677  19.439  0.00  0.00    +0.000 A 
ATOM      6  C   UNL     1       3.620   6.490  18.629  0.00  0.00    +0.000 A 
ATOM      7  C   UNL     1       4.377   5.904  17.522  0.00  0.00    +0.000 A 
ATOM      8  C   UNL     1       4.877   6.715  16.499  0.00  0.00    +0.000 A 
ATOM      9  C   UNL     1       5.368   6.134  15.327  0.00  0.00    +0.000 A 
ATOM     10  C   UNL     1       5.401   4.745  15.188  0.00  0.00    +0.000 A 
ATOM     11  C   UNL     1       4.973   3.927  16.234  0.00  0.00    +0.000 A 
ATOM     12  C   UNL     1       4.455   4.509  17.394  0.00  0.00    +0.000 A 
ATOM     13  C   UNL     1       3.868   3.661  18.463  0.00  0.00    +0.000 A 
ATOM     14  O   UNL     1       4.042   2.449  18.503  0.00  0.00    +0.000 OA
ATOM     15  N   UNL     1       3.072   4.311  19.380  0.00  0.00    +0.000 N 
ATOM     16  H   UNL     1       2.643   3.724  20.085  0.00  0.00    +0.000 HD
ENDBRANCH   2   5
BRANCH   3  17
ATOM     17  C   UNL     1       1.341   8.381  21.538  0.00  0.00    +0.000 C 
BRANCH  17  18
ATOM     18  C   UNL     1       0.574   9.519  20.910  0.00  0.00    +0.000 A 
ATOM     19  C   UNL     1       0.371  10.698  21.643  0.00  0.00    +0.000 A 
ATOM     20  C   UNL     1      -0.294  11.770  21.070  0.00  0.00    +0.000 A 
ATOM     21  C   UNL     1      -0.764  11.692  19.755  0.00  0.00    +0.000 A 
ATOM     22  C   UNL     1      -0.583  10.534  18.992  0.00  0.00    +0.000 A 
ATOM     23  C   UNL     1       0.070   9.440  19.591  0.00  0.00    +0.000 A 
BRANCH  22  24
ATOM     24  N   UNL     1      -1.002  10.421  17.639  0.00  0.00    +0.000 N 
ATOM     25  C   UNL     1      -2.214   9.909  17.195  0.00  0.00    +0.000 C 
ATOM     26  O   UNL     1      -3.096   9.428  17.891  0.00  0.00    +0.000 OA
ATOM     27  H   UNL     1      -0.364  10.765  16.939  0.00  0.00    +0.000 HD
BRANCH  25  28
ATOM     28  C   UNL     1      -2.485   9.946  15.728  0.00  0.00    +0.000 C 
ATOM     29  C   UNL     1      -3.157  11.161  15.131  0.00  0.00    +0.000 C 
ATOM     30  C   UNL     1      -3.810   9.811  15.027  0.00  0.00    +0.000 C 
ENDBRANCH  25  28
ENDBRANCH  22  24
ENDBRANCH  17  18
ENDBRANCH   3  17
TORSDOF 5
ENDMDL
MODEL 4
REMARK VINA RESULT:      -8.3      1.128      1.211
REMARK  Name = 
REMARK  5 active torsions:
REMARK  status: ('A' for Active; 'I' for Inactive)
REMARK    1  A    between atoms: C_2  and  C_17
REMARK    2  A    between atoms: N_3  and  C_4
REMARK    3  A    between atoms: C_4  and  C_5
REMARK    4  A    between atoms: C_9  and  N_10
REMARK    5  A    between atoms: C_11  and  C_13
REMARK                            x       y       z     vdW  Elec       q    Type
REMARK                         _______ _______ _______ _____ _____    ______ ____
ROOT
ATOM      1  O   UNL     1       1.978   6.135  18.165  0.00  0.00    +0.000 OA
ATOM      2  C   UNL     1       2.367   6.609  19.226  0.00  0.00    +0.000 C 
ATOM      3  N   UNL     1       3.370   6.056  19.994  0.00  0.00    +0.000 N 
ATOM      4  H   UNL     1       3.722   6.563  20.793  0.00  0.00    +0.000 HD
ENDROOT
BRANCH   2   5
ATOM      5  C   UNL     1       1.877   7.928  19.743  0.00  0.00    +0.000 A 
ATOM      6  C   UNL     1       1.587   8.013  21.051  0.00  0.00    +0.000 A 
ATOM      7  C   UNL     1       0.801   9.153  21.527  0.00  0.00    +0.000 A 
ATOM      8  C   UNL     1       0.241   9.140  22.807  0.00  0.00    +0.000 A 
ATOM      9  C   UNL     1      -0.710  10.099  23.160  0.00  0.00    +0.000 A 
ATOM     10  C   UNL     1      -1.075  11.098  22.254  0.00  0.00    +0.000 A 
ATOM     11  C   UNL     1      -0.465  11.162  21.001  0.00  0.00    +0.000 A 
ATOM     12  C   UNL     1       0.465  10.185  20.638  0.00  0.00    +0.000 A 
ATOM     13  C   UNL     1       1.023  10.152  19.263  0.00  0.00    +0.000 A 
ATOM     14  O   UNL     1       0.909  11.096  18.490  0.00  0.00    +0.000 OA
ATOM     15  N   UNL     1       1.635   8.977  18.886  0.00  0.00    +0.000 N 
ATOM     16  H   UNL     1       1.981   8.945  17.936  0.00  0.00    +0.000 HD
ENDBRANCH   2   5
BRANCH   3  17
ATOM     17  C   UNL     1       4.099   4.886  19.560  0.00  0.00    +0.000 C 
BRANCH  17  18
ATOM     18  C   UNL     1       5.331   5.252  18.768  0.00  0.00    +0.000 A 
ATOM     19  C   UNL     1       6.509   5.593  19.447  0.00  0.00    +0.000 A 
ATOM     20  C   UNL     1       7.662   5.891  18.739  0.00  0.00    +0.000 A 
ATOM     21  C   UNL     1       7.666   5.850  17.341  0.00  0.00    +0.000 A 
ATOM     22  C   UNL     1       6.511   5.516  16.626  0.00  0.00    +0.000 A 
ATOM     23  C   UNL     1       5.338   5.241  17.353  0.00  0.00    +0.000 A 
BRANCH  22  24
ATOM     24  N   UNL     1       6.475   5.416  15.210  0.00  0.00    +0.000 N 
ATOM     25  C   UNL     1       6.232   4.263  14.474  0.00  0.00    +0.000 C 
ATOM     26  O   UNL     1       6.059   3.140  14.924  0.00  0.00    +0.000 OA
ATOM     27  H   UNL     1       6.620   6.269  14.693  0.00  0.00    +0.000 HD
BRANCH  25  28
ATOM     28  C   UNL     1       6.169   4.390  12.989  0.00  0.00    +0.000 C 
ATOM     29  C   UNL     1       5.612   3.246  12.172  0.00  0.00    +0.000 C 
ATOM     30  C   UNL     1       7.029   3.703  11.963  0.00  0.00    +0.000 C 
ENDBRANCH  25  28
ENDBRANCH  22  24
ENDBRANCH  17  18
ENDBRANCH   3  17
TORSDOF 5
ENDMDL
MODEL 5
REMARK VINA RESULT:      -8.3      1.444      2.116
REMARK  Name = 
REMARK  5 active torsions:
REMARK  status: ('A' for Active; 'I' for Inactive)
REMARK    1  A    between atoms: C_2  and  C_17
REMARK    2  A    between atoms: N_3  and  C_4
REMARK    3  A    between atoms: C_4  and  C_5
REMARK    4  A    between atoms: C_9  and  N_10
REMARK    5  A    between atoms: C_11  and  C_13
REMARK                            x       y       z     vdW  Elec       q    Type
REMARK                         _______ _______ _______ _____ _____    ______ ____
ROOT
ATOM      1  O   UNL     1       1.607   4.770  20.564  0.00  0.00    +0.000 OA
ATOM      2  C   UNL     1       2.263   5.738  20.196  0.00  0.00    +0.000 C 
ATOM      3  N   UNL     1       3.520   5.649  19.639  0.00  0.00    +0.000 N 
ATOM      4  H   UNL     1       3.952   6.475  19.248  0.00  0.00    +0.000 HD
ENDROOT
BRANCH   2   5
ATOM      5  C   UNL     1       1.706   7.130  20.194  0.00  0.00    +0.000 A 
ATOM      6  C   UNL     1       1.769   7.822  19.046  0.00  0.00    +0.000 A 
ATOM      7  C   UNL     1       1.554   9.269  19.082  0.00  0.00    +0.000 A 
ATOM      8  C   UNL     1       1.884  10.060  17.978  0.00  0.00    +0.000 A 
ATOM      9  C   UNL     1       1.921  11.451  18.104  0.00  0.00    +0.000 A 
ATOM     10  C   UNL     1       1.589  12.058  19.317  0.00  0.00    +0.000 A 
ATOM     11  C   UNL     1       1.187  11.279  20.402  0.00  0.00    +0.000 A 
ATOM     12  C   UNL     1       1.178   9.887  20.284  0.00  0.00    +0.000 A 
ATOM     13  C   UNL     1       0.887   9.034  21.463  0.00  0.00    +0.000 A 
ATOM     14  O   UNL     1       0.397   9.487  22.491  0.00  0.00    +0.000 OA
ATOM     15  N   UNL     1       1.247   7.709  21.355  0.00  0.00    +0.000 N 
ATOM     16  H   UNL     1       1.081   7.139  22.174  0.00  0.00    +0.000 HD
ENDBRANCH   2   5
BRANCH   3  17
ATOM     17  C   UNL     1       4.146   4.372  19.379  0.00  0.00    +0.000 C 
BRANCH  17  18
ATOM     18  C   UNL     1       5.296   4.495  18.410  0.00  0.00    +0.000 A 
ATOM     19  C   UNL     1       6.535   4.966  18.870  0.00  0.00    +0.000 A 
ATOM     20  C   UNL     1       7.615   5.047  18.007  0.00  0.00    +0.000 A 
ATOM     21  C   UNL     1       7.486   4.655  16.670  0.00  0.00    +0.000 A 
ATOM     22  C   UNL     1       6.268   4.182  16.172  0.00  0.00    +0.000 A 
ATOM     23  C   UNL     1       5.169   4.129  17.049  0.00  0.00    +0.000 A 
BRANCH  22  24
ATOM     24  N   UNL     1       6.097   3.731  14.836  0.00  0.00    +0.000 N 
ATOM     25  C   UNL     1       6.615   4.329  13.694  0.00  0.00    +0.000 C 
ATOM     26  O   UNL     1       7.258   5.367  13.649  0.00  0.00    +0.000 OA
ATOM     27  H   UNL     1       5.566   2.883  14.710  0.00  0.00    +0.000 HD
BRANCH  25  28
ATOM     28  C   UNL     1       6.375   3.651  12.387  0.00  0.00    +0.000 C 
ATOM     29  C   UNL     1       4.958   3.500  11.882  0.00  0.00    +0.000 C 
ATOM     30  C   UNL     1       5.797   2.282  12.146  0.00  0.00    +0.000 C 
ENDBRANCH  25  28
ENDBRANCH  22  24
ENDBRANCH  17  18
ENDBRANCH   3  17
TORSDOF 5
ENDMDL
MODEL 6
REMARK VINA RESULT:      -8.2      3.075     10.760
REMARK  Name = 
REMARK  5 active torsions:
REMARK  status: ('A' for Active; 'I' for Inactive)
REMARK    1  A    between atoms: C_2  and  C_17
REMARK    2  A    between atoms: N_3  and  C_4
REMARK    3  A    between atoms: C_4  and  C_5
REMARK    4  A    between atoms: C_9  and  N_10
REMARK    5  A    between atoms: C_11  and  C_13
REMARK                            x       y       z     vdW  Elec       q    Type
REMARK                         _______ _______ _______ _____ _____    ______ ____
ROOT
ATOM      1  O   UNL     1       2.341   9.568  17.143  0.00  0.00    +0.000 OA
ATOM      2  C   UNL     1       2.225   8.706  18.007  0.00  0.00    +0.000 C 
ATOM      3  N   UNL     1       1.337   8.785  19.059  0.00  0.00    +0.000 N 
ATOM      4  H   UNL     1       1.209   7.987  19.664  0.00  0.00    +0.000 HD
ENDROOT
BRANCH   2   5
ATOM      5  C   UNL     1       2.953   7.397  17.937  0.00  0.00    +0.000 A 
ATOM      6  C   UNL     1       4.173   7.394  17.378  0.00  0.00    +0.000 A 
ATOM      7  C   UNL     1       4.767   6.115  16.988  0.00  0.00    +0.000 A 
ATOM      8  C   UNL     1       5.891   6.082  16.158  0.00  0.00    +0.000 A 
ATOM      9  C   UNL     1       6.297   4.875  15.584  0.00  0.00    +0.000 A 
ATOM     10  C   UNL     1       5.610   3.692  15.868  0.00  0.00    +0.000 A 
ATOM     11  C   UNL     1       4.532   3.705  16.754  0.00  0.00    +0.000 A 
ATOM     12  C   UNL     1       4.109   4.917  17.305  0.00  0.00    +0.000 A 
ATOM     13  C   UNL     1       2.883   4.976  18.140  0.00  0.00    +0.000 A 
ATOM     14  O   UNL     1       2.353   3.968  18.592  0.00  0.00    +0.000 OA
ATOM     15  N   UNL     1       2.346   6.229  18.337  0.00  0.00    +0.000 N 
ATOM     16  H   UNL     1       1.489   6.261  18.875  0.00  0.00    +0.000 HD
ENDBRANCH   2   5
BRANCH   3  17
ATOM     17  C   UNL     1       0.409   9.887  19.186  0.00  0.00    +0.000 C 
BRANCH  17  18
ATOM     18  C   UNL     1      -0.080  10.048  20.605  0.00  0.00    +0.000 A 
ATOM     19  C   UNL     1       0.055   8.981  21.505  0.00  0.00    +0.000 A 
ATOM     20  C   UNL     1      -0.349   9.123  22.822  0.00  0.00    +0.000 A 
ATOM     21  C   UNL     1      -0.890  10.333  23.271  0.00  0.00    +0.000 A 
ATOM     22  C   UNL     1      -1.042  11.420  22.405  0.00  0.00    +0.000 A 
ATOM     23  C   UNL     1      -0.654  11.258  21.062  0.00  0.00    +0.000 A 
BRANCH  22  24
ATOM     24  N   UNL     1      -1.543  12.682  22.823  0.00  0.00    +0.000 N 
ATOM     25  C   UNL     1      -2.881  13.033  22.953  0.00  0.00    +0.000 C 
ATOM     26  O   UNL     1      -3.843  12.330  22.681  0.00  0.00    +0.000 OA
ATOM     27  H   UNL     1      -0.859  13.380  23.068  0.00  0.00    +0.000 HD
BRANCH  25  28
ATOM     28  C   UNL     1      -3.192  14.395  23.476  0.00  0.00    +0.000 C 
ATOM     29  C   UNL     1      -3.212  14.625  24.970  0.00  0.00    +0.000 C 
ATOM     30  C   UNL     1      -4.452  14.861  24.154  0.00  0.00    +0.000 C 
ENDBRANCH  25  28
ENDBRANCH  22  24
ENDBRANCH  17  18
ENDBRANCH   3  17
TORSDOF 5
ENDMDL
MODEL 7
REMARK VINA RESULT:      -8.2      3.156      5.041
REMARK  Name = 
REMARK  5 active torsions:
REMARK  status: ('A' for Active; 'I' for Inactive)
REMARK    1  A    between atoms: C_2  and  C_17
REMARK    2  A    between atoms: N_3  and  C_4
REMARK    3  A    between atoms: C_4  and  C_5
REMARK    4  A    between atoms: C_9  and  N_10
REMARK    5  A    between atoms: C_11  and  C_13
REMARK                            x       y       z     vdW  Elec       q    Type
REMARK                         _______ _______ _______ _____ _____    ______ ____
ROOT
ATOM      1  O   UNL     1       1.095  11.174  20.256  0.00  0.00    +0.000 OA
ATOM      2  C   UNL     1       0.354  10.381  19.685  0.00  0.00    +0.000 C 
ATOM      3  N   UNL     1       0.454   9.011  19.805  0.00  0.00    +0.000 N 
ATOM      4  H   UNL     1      -0.262   8.423  19.404  0.00  0.00    +0.000 HD
ENDROOT
BRANCH   2   5
ATOM      5  C   UNL     1      -0.835  10.826  18.889  0.00  0.00    +0.000 A 
ATOM      6  C   UNL     1      -1.721  11.632  19.494  0.00  0.00    +0.000 A 
ATOM      7  C   UNL     1      -3.040  11.814  18.886  0.00  0.00    +0.000 A 
ATOM      8  C   UNL     1      -4.077  12.407  19.611  0.00  0.00    +0.000 A 
ATOM      9  C   UNL     1      -5.386  12.346  19.130  0.00  0.00    +0.000 A 
ATOM     10  C   UNL     1      -5.660  11.732  17.905  0.00  0.00    +0.000 A 
ATOM     11  C   UNL     1      -4.620  11.204  17.140  0.00  0.00    +0.000 A 
ATOM     12  C   UNL     1      -3.315  11.239  17.636  0.00  0.00    +0.000 A 
ATOM     13  C   UNL     1      -2.214  10.563  16.905  0.00  0.00    +0.000 A 
ATOM     14  O   UNL     1      -2.336  10.186  15.745  0.00  0.00    +0.000 OA
ATOM     15  N   UNL     1      -1.060  10.337  17.623  0.00  0.00    +0.000 N 
ATOM     16  H   UNL     1      -0.326   9.843  17.132  0.00  0.00    +0.000 HD
ENDBRANCH   2   5
BRANCH   3  17
ATOM     17  C   UNL     1       1.421   8.396  20.687  0.00  0.00    +0.000 C 
BRANCH  17  18
ATOM     18  C   UNL     1       1.927   7.084  20.138  0.00  0.00    +0.000 A 
ATOM     19  C   UNL     1       1.575   5.888  20.782  0.00  0.00    +0.000 A 
ATOM     20  C   UNL     1       1.994   4.671  20.270  0.00  0.00    +0.000 A 
ATOM     21  C   UNL     1       2.766   4.619  19.105  0.00  0.00    +0.000 A 
ATOM     22  C   UNL     1       3.140   5.788  18.435  0.00  0.00    +0.000 A 
ATOM     23  C   UNL     1       2.732   7.022  18.977  0.00  0.00    +0.000 A 
BRANCH  22  24
ATOM     24  N   UNL     1       3.884   5.787  17.226  0.00  0.00    +0.000 N 
ATOM     25  C   UNL     1       5.254   5.590  17.104  0.00  0.00    +0.000 C 
ATOM     26  O   UNL     1       6.047   5.437  18.021  0.00  0.00    +0.000 OA
ATOM     27  H   UNL     1       3.362   5.921  16.374  0.00  0.00    +0.000 HD
BRANCH  25  28
ATOM     28  C   UNL     1       5.829   5.557  15.728  0.00  0.00    +0.000 C 
ATOM     29  C   UNL     1       5.544   4.371  14.836  0.00  0.00    +0.000 C 
ATOM     30  C   UNL     1       6.959   4.705  15.216  0.00  0.00    +0.000 C 
ENDBRANCH  25  28
ENDBRANCH  22  24
ENDBRANCH  17  18
ENDBRANCH   3  17
TORSDOF 5
ENDMDL
MODEL 8
REMARK VINA RESULT:      -8.1      3.667      9.002
REMARK  Name = 
REMARK  5 active torsions:
REMARK  status: ('A' for Active; 'I' for Inactive)
REMARK    1  A    between atoms: C_2  and  C_17
REMARK    2  A    between atoms: N_3  and  C_4
REMARK    3  A    between atoms: C_4  and  C_5
REMARK    4  A    between atoms: C_9  and  N_10
REMARK    5  A    between atoms: C_11  and  C_13
REMARK                            x       y       z     vdW  Elec       q    Type
REMARK                         _______ _______ _______ _____ _____    ______ ____
ROOT
ATOM      1  O   UNL     1       3.841   7.936  16.844  0.00  0.00    +0.000 OA
ATOM      2  C   UNL     1       3.152   7.561  17.786  0.00  0.00    +0.000 C 
ATOM      3  N   UNL     1       2.158   8.322  18.363  0.00  0.00    +0.000 N 
ATOM      4  H   UNL     1       1.550   7.907  19.054  0.00  0.00    +0.000 HD
ENDROOT
BRANCH   2   5
ATOM      5  C   UNL     1       3.231   6.168  18.334  0.00  0.00    +0.000 A 
ATOM      6  C   UNL     1       2.086   5.590  18.728  0.00  0.00    +0.000 A 
ATOM      7  C   UNL     1       2.152   4.391  19.565  0.00  0.00    +0.000 A 
ATOM      8  C   UNL     1       1.011   3.926  20.225  0.00  0.00    +0.000 A 
ATOM      9  C   UNL     1       1.130   2.948  21.215  0.00  0.00    +0.000 A 
ATOM     10  C   UNL     1       2.379   2.401  21.520  0.00  0.00    +0.000 A 
ATOM     11  C   UNL     1       3.512   2.806  20.814  0.00  0.00    +0.000 A 
ATOM     12  C   UNL     1       3.396   3.806  19.844  0.00  0.00    +0.000 A 
ATOM     13  C   UNL     1       4.606   4.350  19.178  0.00  0.00    +0.000 A 
ATOM     14  O   UNL     1       5.694   3.791  19.243  0.00  0.00    +0.000 OA
ATOM     15  N   UNL     1       4.446   5.551  18.521  0.00  0.00    +0.000 N 
ATOM     16  H   UNL     1       5.281   5.937  18.101  0.00  0.00    +0.000 HD
ENDBRANCH   2   5
BRANCH   3  17
ATOM     17  C   UNL     1       1.801   9.623  17.843  0.00  0.00    +0.000 C 
BRANCH  17  18
ATOM     18  C   UNL     1       0.742  10.294  18.684  0.00  0.00    +0.000 A 
ATOM     19  C   UNL     1       1.114  10.938  19.873  0.00  0.00    +0.000 A 
ATOM     20  C   UNL     1       0.165  11.596  20.637  0.00  0.00    +0.000 A 
ATOM     21  C   UNL     1      -1.173  11.631  20.230  0.00  0.00    +0.000 A 
ATOM     22  C   UNL     1      -1.585  11.001  19.052  0.00  0.00    +0.000 A 
ATOM     23  C   UNL     1      -0.618  10.312  18.295  0.00  0.00    +0.000 A 
BRANCH  22  24
ATOM     24  N   UNL     1      -2.921  11.046  18.572  0.00  0.00    +0.000 N 
ATOM     25  C   UNL     1      -3.314  11.225  17.252  0.00  0.00    +0.000 C 
ATOM     26  O   UNL     1      -2.576  11.423  16.298  0.00  0.00    +0.000 OA
ATOM     27  H   UNL     1      -3.651  10.913  19.254  0.00  0.00    +0.000 HD
BRANCH  25  28
ATOM     28  C   UNL     1      -4.774  11.171  16.950  0.00  0.00    +0.000 C 
ATOM     29  C   UNL     1      -5.613  12.415  17.135  0.00  0.00    +0.000 C 
ATOM     30  C   UNL     1      -5.922  11.173  17.923  0.00  0.00    +0.000 C 
ENDBRANCH  25  28
ENDBRANCH  22  24
ENDBRANCH  17  18
ENDBRANCH   3  17
TORSDOF 5
ENDMDL
MODEL 9
REMARK VINA RESULT:      -8.1      3.493     11.028
REMARK  Name = 
REMARK  5 active torsions:
REMARK  status: ('A' for Active; 'I' for Inactive)
REMARK    1  A    between atoms: C_2  and  C_17
REMARK    2  A    between atoms: N_3  and  C_4
REMARK    3  A    between atoms: C_4  and  C_5
REMARK    4  A    between atoms: C_9  and  N_10
REMARK    5  A    between atoms: C_11  and  C_13
REMARK                            x       y       z     vdW  Elec       q    Type
REMARK                         _______ _______ _______ _____ _____    ______ ____
ROOT
ATOM      1  O   UNL     1       1.762   9.412  17.402  0.00  0.00    +0.000 OA
ATOM      2  C   UNL     1       1.788   8.894  18.512  0.00  0.00    +0.000 C 
ATOM      3  N   UNL     1       1.123   9.394  19.611  0.00  0.00    +0.000 N 
ATOM      4  H   UNL     1       1.090   8.852  20.463  0.00  0.00    +0.000 HD
ENDROOT
BRANCH   2   5
ATOM      5  C   UNL     1       2.448   7.572  18.765  0.00  0.00    +0.000 A 
ATOM      6  C   UNL     1       3.345   7.143  17.863  0.00  0.00    +0.000 A 
ATOM      7  C   UNL     1       3.755   5.738  17.888  0.00  0.00    +0.000 A 
ATOM      8  C   UNL     1       4.456   5.187  16.812  0.00  0.00    +0.000 A 
ATOM      9  C   UNL     1       4.618   3.803  16.722  0.00  0.00    +0.000 A 
ATOM     10  C   UNL     1       4.119   2.968  17.725  0.00  0.00    +0.000 A 
ATOM     11  C   UNL     1       3.483   3.516  18.839  0.00  0.00    +0.000 A 
ATOM     12  C   UNL     1       3.296   4.898  18.913  0.00  0.00    +0.000 A 
ATOM     13  C   UNL     1       2.502   5.491  20.019  0.00  0.00    +0.000 A 
ATOM     14  O   UNL     1       2.211   4.856  21.026  0.00  0.00    +0.000 OA
ATOM     15  N   UNL     1       2.068   6.784  19.826  0.00  0.00    +0.000 N 
ATOM     16  H   UNL     1       1.496   7.171  20.566  0.00  0.00    +0.000 HD
ENDBRANCH   2   5
BRANCH   3  17
ATOM     17  C   UNL     1       0.272  10.559  19.517  0.00  0.00    +0.000 C 
BRANCH  17  18
ATOM     18  C   UNL     1      -0.455  10.831  20.811  0.00  0.00    +0.000 A 
ATOM     19  C   UNL     1      -0.227   9.997  21.916  0.00  0.00    +0.000 A 
ATOM     20  C   UNL     1      -0.851  10.255  23.125  0.00  0.00    +0.000 A 
ATOM     21  C   UNL     1      -1.710  11.351  23.261  0.00  0.00    +0.000 A 
ATOM     22  C   UNL     1      -1.964  12.205  22.183  0.00  0.00    +0.000 A 
ATOM     23  C   UNL     1      -1.347  11.920  20.951  0.00  0.00    +0.000 A 
BRANCH  22  24
ATOM     24  N   UNL     1      -2.791  13.356  22.282  0.00  0.00    +0.000 N 
ATOM     25  C   UNL     1      -4.169  13.365  22.458  0.00  0.00    +0.000 C 
ATOM     26  O   UNL     1      -4.899  12.385  22.505  0.00  0.00    +0.000 OA
ATOM     27  H   UNL     1      -2.328  14.250  22.242  0.00  0.00    +0.000 HD
BRANCH  25  28
ATOM     28  C   UNL     1      -4.840  14.689  22.607  0.00  0.00    +0.000 C 
ATOM     29  C   UNL     1      -4.816  15.381  23.951  0.00  0.00    +0.000 C 
ATOM     30  C   UNL     1      -6.127  15.000  23.323  0.00  0.00    +0.000 C 
ENDBRANCH  25  28
ENDBRANCH  22  24
ENDBRANCH  17  18
ENDBRANCH   3  17
TORSDOF 5
ENDMDL
