MODEL 1
REMARK VINA RESULT:      -8.5      0.000      0.000
REMARK  Name = 
REMARK  5 active torsions:
REMARK  status: ('A' for Active; 'I' for Inactive)
REMARK    1  A    between atoms: C_6  and  N_7
REMARK    2  A    between atoms: C_11  and  S_12
REMARK    3  A    between atoms: S_12  and  C_13
REMARK    4  A    between atoms: C_13  and  C_14
REMARK    5  A    between atoms: C_17  and  C_18
REMARK                            x       y       z     vdW  Elec       q    Type
REMARK                         _______ _______ _______ _____ _____    ______ ____
ROOT
ATOM      1  S   UNL     1       2.788   5.982  19.451  0.00  0.00    +0.000 S 
ENDROOT
BRANCH   1   6
ATOM      2  N   UNL     1       3.301   3.851  17.721  0.00  0.00    +0.000 N 
ATOM      3  N   UNL     1       2.595   2.792  17.230  0.00  0.00    +0.000 NA
ATOM      4  N   UNL     1       1.436   2.774  17.866  0.00  0.00    +0.000 NA
ATOM      5  N   UNL     1       1.337   3.821  18.740  0.00  0.00    +0.000 NA
ATOM      6  C   UNL     1       2.462   4.490  18.640  0.00  0.00    +0.000 A 
BRANCH   2  12
ATOM      7  F   UNL     1       7.959   4.919  18.462  0.00  0.00    +0.000 F 
ATOM      8  C   UNL     1       6.966   4.631  17.611  0.00  0.00    +0.000 A 
ATOM      9  C   UNL     1       7.229   4.563  16.252  0.00  0.00    +0.000 A 
ATOM     10  C   UNL     1       6.193   4.249  15.378  0.00  0.00    +0.000 A 
ATOM     11  C   UNL     1       4.903   4.015  15.873  0.00  0.00    +0.000 A 
ATOM     12  C   UNL     1       4.631   4.096  17.255  0.00  0.00    +0.000 A 
ATOM     13  C   UNL     1       5.690   4.396  18.119  0.00  0.00    +0.000 A 
ENDBRANCH   2  12
ENDBRANCH   1   6
BRANCH   1  14
ATOM     14  C   UNL     1       3.005   7.185  18.106  0.00  0.00    +0.000 C 
BRANCH  14  15
ATOM     15  C   UNL     1       2.138   8.366  18.377  0.00  0.00    +0.000 A 
ATOM     16  N   UNL     1       1.601   9.226  17.539  0.00  0.00    +0.000 NA
ATOM     17  N   UNL     1       0.801  10.061  18.295  0.00  0.00    +0.000 NA
ATOM     18  C   UNL     1       0.919   9.673  19.551  0.00  0.00    +0.000 A 
ATOM     19  O   UNL     1       1.749   8.586  19.677  0.00  0.00    +0.000 OA
BRANCH  18  20
ATOM     20  C   UNL     1       0.209  10.138  20.740  0.00  0.00    +0.000 A 
ATOM     21  C   UNL     1      -0.047   9.203  21.765  0.00  0.00    +0.000 A 
ATOM     22  C   UNL     1      -0.676   9.577  22.957  0.00  0.00    +0.000 A 
ATOM     23  C   UNL     1      -1.071  10.896  23.147  0.00  0.00    +0.000 A 
ATOM     24  C   UNL     1      -0.860  11.832  22.134  0.00  0.00    +0.000 A 
ATOM     25  C   UNL     1      -0.233  11.458  20.936  0.00  0.00    +0.000 A 
ATOM     26 CL   UNL     1      -0.099  12.690  19.727  0.00  0.00    +0.000 Cl
ENDBRANCH  18  20
ENDBRANCH  14  15
ENDBRANCH   1  14
TORSDOF 5
ENDMDL
MODEL 2
REMARK VINA RESULT:      -8.5      1.541      1.850
REMARK  Name = 
REMARK  5 active torsions:
REMARK  status: ('A' for Active; 'I' for Inactive)
REMARK    1  A    between atoms: C_6  and  N_7
REMARK    2  A    between atoms: C_11  and  S_12
REMARK    3  A    between atoms: S_12  and  C_13
REMARK    4  A    between atoms: C_13  and  C_14
REMARK    5  A    between atoms: C_17  and  C_18
REMARK                            x       y       z     vdW  Elec       q    Type
REMARK                         _______ _______ _______ _____ _____    ______ ____
ROOT
ATOM      1  S   UNL     1       2.095   5.220  18.473  0.00  0.00    +0.000 S 
ENDROOT
BRANCH   1   6
ATOM      2  N   UNL     1       4.361   3.641  18.885  0.00  0.00    +0.000 N 
ATOM      3  N   UNL     1       4.727   2.654  19.752  0.00  0.00    +0.000 NA
ATOM      4  N   UNL     1       3.770   2.565  20.660  0.00  0.00    +0.000 NA
ATOM      5  N   UNL     1       2.754   3.441  20.392  0.00  0.00    +0.000 NA
ATOM      6  C   UNL     1       3.102   4.083  19.301  0.00  0.00    +0.000 A 
BRANCH   2  12
ATOM      7  F   UNL     1       5.465   3.948  14.186  0.00  0.00    +0.000 F 
ATOM      8  C   UNL     1       5.803   4.164  15.464  0.00  0.00    +0.000 A 
ATOM      9  C   UNL     1       7.020   4.757  15.758  0.00  0.00    +0.000 A 
ATOM     10  C   UNL     1       7.355   4.990  17.087  0.00  0.00    +0.000 A 
ATOM     11  C   UNL     1       6.471   4.619  18.110  0.00  0.00    +0.000 A 
ATOM     12  C   UNL     1       5.236   4.005  17.813  0.00  0.00    +0.000 A 
ATOM     13  C   UNL     1       4.911   3.795  16.469  0.00  0.00    +0.000 A 
ENDBRANCH   2  12
ENDBRANCH   1   6
BRANCH   1  14
ATOM     14  C   UNL     1       3.178   6.652  18.187  0.00  0.00    +0.000 C 
BRANCH  14  15
ATOM     15  C   UNL     1       2.399   7.897  18.440  0.00  0.00    +0.000 A 
ATOM     16  N   UNL     1       2.019   8.836  17.602  0.00  0.00    +0.000 NA
ATOM     17  N   UNL     1       1.232   9.711  18.327  0.00  0.00    +0.000 NA
ATOM     18  C   UNL     1       1.203   9.263  19.568  0.00  0.00    +0.000 A 
ATOM     19  O   UNL     1       1.917   8.099  19.711  0.00  0.00    +0.000 OA
BRANCH  18  20
ATOM     20  C   UNL     1       0.433   9.745  20.713  0.00  0.00    +0.000 A 
ATOM     21  C   UNL     1       0.564   9.051  21.934  0.00  0.00    +0.000 A 
ATOM     22  C   UNL     1      -0.099   9.477  23.091  0.00  0.00    +0.000 A 
ATOM     23  C   UNL     1      -0.912  10.602  23.050  0.00  0.00    +0.000 A 
ATOM     24  C   UNL     1      -1.083  11.285  21.845  0.00  0.00    +0.000 A 
ATOM     25  C   UNL     1      -0.425  10.858  20.682  0.00  0.00    +0.000 A 
ATOM     26 CL   UNL     1      -0.779  11.740  19.235  0.00  0.00    +0.000 Cl
ENDBRANCH  18  20
ENDBRANCH  14  15
ENDBRANCH   1  14
TORSDOF 5
ENDMDL
MODEL 3
REMARK VINA RESULT:      -8.5      0.899      1.300
REMARK  Name = 
REMARK  5 active torsions:
REMARK  status: ('A' for Active; 'I' for Inactive)
REMARK    1  A    between atoms: C_6  and  N_7
REMARK    2  A    between atoms: C_11  and  S_12
REMARK    3  A    between atoms: S_12  and  C_13
REMARK    4  A    between atoms: C_13  and  C_14
REMARK    5  A    between atoms: C_17  and  C_18
REMARK                            x       y       z     vdW  Elec       q    Type
REMARK                         _______ _______ _______ _____ _____    ______ ____
ROOT
ATOM      1  S   UNL     1       2.579   5.808  19.498  0.00  0.00    +0.000 S 
ENDROOT
BRANCH   1   6
ATOM      2  N   UNL     1       3.374   3.675  17.880  0.00  0.00    +0.000 N 
ATOM      3  N   UNL     1       2.790   2.548  17.383  0.00  0.00    +0.000 NA
ATOM      4  N   UNL     1       1.597   2.453  17.946  0.00  0.00    +0.000 NA
ATOM      5  N   UNL     1       1.356   3.514  18.774  0.00  0.00    +0.000 NA
ATOM      6  C   UNL     1       2.428   4.271  18.721  0.00  0.00    +0.000 A 
BRANCH   2  12
ATOM      7  F   UNL     1       6.814   4.329  14.545  0.00  0.00    +0.000 F 
ATOM      8  C   UNL     1       6.440   4.345  15.831  0.00  0.00    +0.000 A 
ATOM      9  C   UNL     1       7.358   4.704  16.804  0.00  0.00    +0.000 A 
ATOM     10  C   UNL     1       6.956   4.731  18.135  0.00  0.00    +0.000 A 
ATOM     11  C   UNL     1       5.641   4.392  18.478  0.00  0.00    +0.000 A 
ATOM     12  C   UNL     1       4.708   4.016  17.490  0.00  0.00    +0.000 A 
ATOM     13  C   UNL     1       5.127   4.010  16.156  0.00  0.00    +0.000 A 
ENDBRANCH   2  12
ENDBRANCH   1   6
BRANCH   1  14
ATOM     14  C   UNL     1       2.882   6.971  18.134  0.00  0.00    +0.000 C 
BRANCH  14  15
ATOM     15  C   UNL     1       2.137   8.232  18.407  0.00  0.00    +0.000 A 
ATOM     16  N   UNL     1       1.787   9.197  17.585  0.00  0.00    +0.000 NA
ATOM     17  N   UNL     1       1.021  10.080  18.322  0.00  0.00    +0.000 NA
ATOM     18  C   UNL     1       0.973   9.610  19.555  0.00  0.00    +0.000 A 
ATOM     19  O   UNL     1       1.654   8.424  19.679  0.00  0.00    +0.000 OA
BRANCH  18  20
ATOM     20  C   UNL     1       0.211  10.090  20.705  0.00  0.00    +0.000 A 
ATOM     21  C   UNL     1       0.306   9.364  21.910  0.00  0.00    +0.000 A 
ATOM     22  C   UNL     1      -0.351   9.785  23.072  0.00  0.00    +0.000 A 
ATOM     23  C   UNL     1      -1.123  10.939  23.052  0.00  0.00    +0.000 A 
ATOM     24  C   UNL     1      -1.260  11.656  21.862  0.00  0.00    +0.000 A 
ATOM     25  C   UNL     1      -0.607  11.233  20.695  0.00  0.00    +0.000 A 
ATOM     26 CL   UNL     1      -0.917  12.162  19.267  0.00  0.00    +0.000 Cl
ENDBRANCH  18  20
ENDBRANCH  14  15
ENDBRANCH   1  14
TORSDOF 5
ENDMDL
MODEL 4
REMARK VINA RESULT:      -8.4      2.786      3.527
REMARK  Name = 
REMARK  5 active torsions:
REMARK  status: ('A' for Active; 'I' for Inactive)
REMARK    1  A    between atoms: C_6  and  N_7
REMARK    2  A    between atoms: C_11  and  S_12
REMARK    3  A    between atoms: S_12  and  C_13
REMARK    4  A    between atoms: C_13  and  C_14
REMARK    5  A    between atoms: C_17  and  C_18
REMARK                            x       y       z     vdW  Elec       q    Type
REMARK                         _______ _______ _______ _____ _____    ______ ____
ROOT
ATOM      1  S   UNL     1       4.935   6.736  16.625  0.00  0.00    +0.000 S 
ENDROOT
BRANCH   1   6
ATOM      2  N   UNL     1       7.011   4.920  16.191  0.00  0.00    +0.000 N 
ATOM      3  N   UNL     1       7.883   4.219  16.971  0.00  0.00    +0.000 NA
ATOM      4  N   UNL     1       7.720   4.648  18.211  0.00  0.00    +0.000 NA
ATOM      5  N   UNL     1       6.731   5.589  18.281  0.00  0.00    +0.000 NA
ATOM      6  C   UNL     1       6.283   5.743  17.056  0.00  0.00    +0.000 A 
BRANCH   2  12
ATOM      7  F   UNL     1       5.354   2.713  12.220  0.00  0.00    +0.000 F 
ATOM      8  C   UNL     1       6.176   3.610  12.780  0.00  0.00    +0.000 A 
ATOM      9  C   UNL     1       7.025   4.353  11.975  0.00  0.00    +0.000 A 
ATOM     10  C   UNL     1       7.865   5.292  12.565  0.00  0.00    +0.000 A 
ATOM     11  C   UNL     1       7.851   5.471  13.955  0.00  0.00    +0.000 A 
ATOM     12  C   UNL     1       6.995   4.708  14.776  0.00  0.00    +0.000 A 
ATOM     13  C   UNL     1       6.147   3.781  14.162  0.00  0.00    +0.000 A 
ENDBRANCH   2  12
ENDBRANCH   1   6
BRANCH   1  14
ATOM     14  C   UNL     1       3.667   6.332  17.864  0.00  0.00    +0.000 C 
BRANCH  14  15
ATOM     15  C   UNL     1       2.844   7.548  18.118  0.00  0.00    +0.000 A 
ATOM     16  N   UNL     1       2.414   8.464  17.279  0.00  0.00    +0.000 NA
ATOM     17  N   UNL     1       1.605   9.314  18.008  0.00  0.00    +0.000 NA
ATOM     18  C   UNL     1       1.612   8.877  19.253  0.00  0.00    +0.000 A 
ATOM     19  O   UNL     1       2.374   7.743  19.396  0.00  0.00    +0.000 OA
BRANCH  18  20
ATOM     20  C   UNL     1       0.843   9.338  20.407  0.00  0.00    +0.000 A 
ATOM     21  C   UNL     1       1.145   8.782  21.668  0.00  0.00    +0.000 A 
ATOM     22  C   UNL     1       0.491   9.205  22.830  0.00  0.00    +0.000 A 
ATOM     23  C   UNL     1      -0.487  10.190  22.755  0.00  0.00    +0.000 A 
ATOM     24  C   UNL     1      -0.827  10.730  21.514  0.00  0.00    +0.000 A 
ATOM     25  C   UNL     1      -0.176  10.304  20.347  0.00  0.00    +0.000 A 
ATOM     26 CL   UNL     1      -0.741  10.993  18.862  0.00  0.00    +0.000 Cl
ENDBRANCH  18  20
ENDBRANCH  14  15
ENDBRANCH   1  14
TORSDOF 5
ENDMDL
MODEL 5
REMARK VINA RESULT:      -8.4      2.171      2.430
REMARK  Name = 
REMARK  5 active torsions:
REMARK  status: ('A' for Active; 'I' for Inactive)
REMARK    1  A    between atoms: C_6  and  N_7
REMARK    2  A    between atoms: C_11  and  S_12
REMARK    3  A    between atoms: S_12  and  C_13
REMARK    4  A    between atoms: C_13  and  C_14
REMARK    5  A    between atoms: C_17  and  C_18
REMARK                            x       y       z     vdW  Elec       q    Type
REMARK                         _______ _______ _______ _____ _____    ______ ____
ROOT
ATOM      1  S   UNL     1       2.218   5.117  18.828  0.00  0.00    +0.000 S 
ENDROOT
BRANCH   1   6
ATOM      2  N   UNL     1       4.676   3.841  19.183  0.00  0.00    +0.000 N 
ATOM      3  N   UNL     1       5.114   2.704  19.794  0.00  0.00    +0.000 NA
ATOM      4  N   UNL     1       4.085   2.203  20.457  0.00  0.00    +0.000 NA
ATOM      5  N   UNL     1       2.961   2.958  20.266  0.00  0.00    +0.000 NA
ATOM      6  C   UNL     1       3.313   3.945  19.475  0.00  0.00    +0.000 A 
BRANCH   2  12
ATOM      7  F   UNL     1       8.369   6.947  18.847  0.00  0.00    +0.000 F 
ATOM      8  C   UNL     1       7.439   6.194  18.244  0.00  0.00    +0.000 A 
ATOM      9  C   UNL     1       7.364   6.182  16.861  0.00  0.00    +0.000 A 
ATOM     10  C   UNL     1       6.404   5.386  16.243  0.00  0.00    +0.000 A 
ATOM     11  C   UNL     1       5.525   4.618  17.018  0.00  0.00    +0.000 A 
ATOM     12  C   UNL     1       5.593   4.639  18.427  0.00  0.00    +0.000 A 
ATOM     13  C   UNL     1       6.575   5.432  19.028  0.00  0.00    +0.000 A 
ENDBRANCH   2  12
ENDBRANCH   1   6
BRANCH   1  14
ATOM     14  C   UNL     1       2.468   6.586  19.868  0.00  0.00    +0.000 C 
BRANCH  14  15
ATOM     15  C   UNL     1       2.208   7.802  19.047  0.00  0.00    +0.000 A 
ATOM     16  N   UNL     1       2.555   8.070  17.807  0.00  0.00    +0.000 NA
ATOM     17  N   UNL     1       1.975   9.284  17.493  0.00  0.00    +0.000 NA
ATOM     18  C   UNL     1       1.330   9.692  18.570  0.00  0.00    +0.000 A 
ATOM     19  O   UNL     1       1.425   8.788  19.599  0.00  0.00    +0.000 OA
BRANCH  18  20
ATOM     20  C   UNL     1       0.459  10.851  18.750  0.00  0.00    +0.000 A 
ATOM     21  C   UNL     1      -0.913  10.616  18.981  0.00  0.00    +0.000 A 
ATOM     22  C   UNL     1      -1.806  11.668  19.213  0.00  0.00    +0.000 A 
ATOM     23  C   UNL     1      -1.348  12.979  19.213  0.00  0.00    +0.000 A 
ATOM     24  C   UNL     1      -0.001  13.239  18.953  0.00  0.00    +0.000 A 
ATOM     25  C   UNL     1       0.896  12.186  18.715  0.00  0.00    +0.000 A 
ATOM     26 CL   UNL     1       2.521  12.640  18.328  0.00  0.00    +0.000 Cl
ENDBRANCH  18  20
ENDBRANCH  14  15
ENDBRANCH   1  14
TORSDOF 5
ENDMDL
MODEL 6
REMARK VINA RESULT:      -8.3      3.010      4.419
REMARK  Name = 
REMARK  5 active torsions:
REMARK  status: ('A' for Active; 'I' for Inactive)
REMARK    1  A    between atoms: C_6  and  N_7
REMARK    2  A    between atoms: C_11  and  S_12
REMARK    3  A    between atoms: S_12  and  C_13
REMARK    4  A    between atoms: C_13  and  C_14
REMARK    5  A    between atoms: C_17  and  C_18
REMARK                            x       y       z     vdW  Elec       q    Type
REMARK                         _______ _______ _______ _____ _____    ______ ____
ROOT
ATOM      1  S   UNL     1       4.189   4.539  16.956  0.00  0.00    +0.000 S 
ENDROOT
BRANCH   1   6
ATOM      2  N   UNL     1       6.898   4.437  16.290  0.00  0.00    +0.000 N 
ATOM      3  N   UNL     1       8.075   4.349  16.973  0.00  0.00    +0.000 NA
ATOM      4  N   UNL     1       7.784   4.465  18.258  0.00  0.00    +0.000 NA
ATOM      5  N   UNL     1       6.436   4.586  18.449  0.00  0.00    +0.000 NA
ATOM      6  C   UNL     1       5.892   4.549  17.254  0.00  0.00    +0.000 A 
BRANCH   2  12
ATOM      7  F   UNL     1       5.311   2.716  12.058  0.00  0.00    +0.000 F 
ATOM      8  C   UNL     1       6.118   3.545  12.734  0.00  0.00    +0.000 A 
ATOM      9  C   UNL     1       6.970   4.386  12.037  0.00  0.00    +0.000 A 
ATOM     10  C   UNL     1       7.794   5.253  12.748  0.00  0.00    +0.000 A 
ATOM     11  C   UNL     1       7.761   5.262  14.149  0.00  0.00    +0.000 A 
ATOM     12  C   UNL     1       6.902   4.398  14.860  0.00  0.00    +0.000 A 
ATOM     13  C   UNL     1       6.070   3.546  14.126  0.00  0.00    +0.000 A 
ENDBRANCH   2  12
ENDBRANCH   1   6
BRANCH   1  14
ATOM     14  C   UNL     1       3.477   3.786  18.450  0.00  0.00    +0.000 C 
BRANCH  14  15
ATOM     15  C   UNL     1       2.809   4.852  19.250  0.00  0.00    +0.000 A 
ATOM     16  N   UNL     1       2.462   4.858  20.518  0.00  0.00    +0.000 NA
ATOM     17  N   UNL     1       1.978   6.125  20.784  0.00  0.00    +0.000 NA
ATOM     18  C   UNL     1       2.039   6.804  19.654  0.00  0.00    +0.000 A 
ATOM     19  O   UNL     1       2.572   6.057  18.633  0.00  0.00    +0.000 OA
BRANCH  18  20
ATOM     20  C   UNL     1       1.758   8.215  19.400  0.00  0.00    +0.000 A 
ATOM     21  C   UNL     1       2.238   8.779  18.199  0.00  0.00    +0.000 A 
ATOM     22  C   UNL     1       1.969  10.108  17.856  0.00  0.00    +0.000 A 
ATOM     23  C   UNL     1       1.220  10.907  18.711  0.00  0.00    +0.000 A 
ATOM     24  C   UNL     1       0.763  10.382  19.921  0.00  0.00    +0.000 A 
ATOM     25  C   UNL     1       1.035   9.051  20.270  0.00  0.00    +0.000 A 
ATOM     26 CL   UNL     1       0.483   8.541  21.829  0.00  0.00    +0.000 Cl
ENDBRANCH  18  20
ENDBRANCH  14  15
ENDBRANCH   1  14
TORSDOF 5
ENDMDL
MODEL 7
REMARK VINA RESULT:      -8.3      2.689      3.332
REMARK  Name = 
REMARK  5 active torsions:
REMARK  status: ('A' for Active; 'I' for Inactive)
REMARK    1  A    between atoms: C_6  and  N_7
REMARK    2  A    between atoms: C_11  and  S_12
REMARK    3  A    between atoms: S_12  and  C_13
REMARK    4  A    between atoms: C_13  and  C_14
REMARK    5  A    between atoms: C_17  and  C_18
REMARK                            x       y       z     vdW  Elec       q    Type
REMARK                         _______ _______ _______ _____ _____    ______ ____
ROOT
ATOM      1  S   UNL     1       4.780   6.808  16.778  0.00  0.00    +0.000 S 
ENDROOT
BRANCH   1   6
ATOM      2  N   UNL     1       6.901   5.039  16.366  0.00  0.00    +0.000 N 
ATOM      3  N   UNL     1       7.806   4.390  17.152  0.00  0.00    +0.000 NA
ATOM      4  N   UNL     1       7.653   4.856  18.380  0.00  0.00    +0.000 NA
ATOM      5  N   UNL     1       6.637   5.770  18.437  0.00  0.00    +0.000 NA
ATOM      6  C   UNL     1       6.164   5.869  17.217  0.00  0.00    +0.000 A 
BRANCH   2  12
ATOM      7  F   UNL     1       8.319   5.904  11.824  0.00  0.00    +0.000 F 
ATOM      8  C   UNL     1       7.566   5.202  12.680  0.00  0.00    +0.000 A 
ATOM      9  C   UNL     1       6.740   4.199  12.199  0.00  0.00    +0.000 A 
ATOM     10  C   UNL     1       5.972   3.466  13.098  0.00  0.00    +0.000 A 
ATOM     11  C   UNL     1       6.034   3.751  14.469  0.00  0.00    +0.000 A 
ATOM     12  C   UNL     1       6.866   4.779  14.959  0.00  0.00    +0.000 A 
ATOM     13  C   UNL     1       7.642   5.493  14.041  0.00  0.00    +0.000 A 
ENDBRANCH   2  12
ENDBRANCH   1   6
BRANCH   1  14
ATOM     14  C   UNL     1       3.580   6.484  18.105  0.00  0.00    +0.000 C 
BRANCH  14  15
ATOM     15  C   UNL     1       2.749   7.705  18.306  0.00  0.00    +0.000 A 
ATOM     16  N   UNL     1       2.318   8.582  17.427  0.00  0.00    +0.000 NA
ATOM     17  N   UNL     1       1.501   9.457  18.117  0.00  0.00    +0.000 NA
ATOM     18  C   UNL     1       1.504   9.072  19.379  0.00  0.00    +0.000 A 
ATOM     19  O   UNL     1       2.271   7.949  19.571  0.00  0.00    +0.000 OA
BRANCH  18  20
ATOM     20  C   UNL     1       0.726   9.575  20.508  0.00  0.00    +0.000 A 
ATOM     21  C   UNL     1       0.235   8.639  21.442  0.00  0.00    +0.000 A 
ATOM     22  C   UNL     1      -0.476   9.042  22.578  0.00  0.00    +0.000 A 
ATOM     23  C   UNL     1      -0.718  10.392  22.801  0.00  0.00    +0.000 A 
ATOM     24  C   UNL     1      -0.272  11.335  21.874  0.00  0.00    +0.000 A 
ATOM     25  C   UNL     1       0.437  10.933  20.731  0.00  0.00    +0.000 A 
ATOM     26 CL   UNL     1       0.868  12.187  19.619  0.00  0.00    +0.000 Cl
ENDBRANCH  18  20
ENDBRANCH  14  15
ENDBRANCH   1  14
TORSDOF 5
ENDMDL
MODEL 8
REMARK VINA RESULT:      -8.3      2.066      2.955
REMARK  Name = 
REMARK  5 active torsions:
REMARK  status: ('A' for Active; 'I' for Inactive)
REMARK    1  A    between atoms: C_6  and  N_7
REMARK    2  A    between atoms: C_11  and  S_12
REMARK    3  A    between atoms: S_12  and  C_13
REMARK    4  A    between atoms: C_13  and  C_14
REMARK    5  A    between atoms: C_17  and  C_18
REMARK                            x       y       z     vdW  Elec       q    Type
REMARK                         _______ _______ _______ _____ _____    ______ ____
ROOT
ATOM      1  S   UNL     1       4.635   7.059  17.563  0.00  0.00    +0.000 S 
ENDROOT
BRANCH   1   6
ATOM      2  N   UNL     1       4.784   4.482  16.499  0.00  0.00    +0.000 N 
ATOM      3  N   UNL     1       5.388   3.895  15.427  0.00  0.00    +0.000 NA
ATOM      4  N   UNL     1       5.910   4.868  14.699  0.00  0.00    +0.000 NA
ATOM      5  N   UNL     1       5.704   6.086  15.285  0.00  0.00    +0.000 NA
ATOM      6  C   UNL     1       5.036   5.853  16.391  0.00  0.00    +0.000 A 
BRANCH   2  12
ATOM      7  F   UNL     1       4.421   2.234  20.766  0.00  0.00    +0.000 F 
ATOM      8  C   UNL     1       3.883   2.544  19.579  0.00  0.00    +0.000 A 
ATOM      9  C   UNL     1       2.617   2.080  19.261  0.00  0.00    +0.000 A 
ATOM     10  C   UNL     1       2.062   2.418  18.032  0.00  0.00    +0.000 A 
ATOM     11  C   UNL     1       2.784   3.211  17.130  0.00  0.00    +0.000 A 
ATOM     12  C   UNL     1       4.078   3.675  17.447  0.00  0.00    +0.000 A 
ATOM     13  C   UNL     1       4.612   3.337  18.695  0.00  0.00    +0.000 A 
ENDBRANCH   2  12
ENDBRANCH   1   6
BRANCH   1  14
ATOM     14  C   UNL     1       2.872   6.778  17.910  0.00  0.00    +0.000 C 
BRANCH  14  15
ATOM     15  C   UNL     1       2.244   8.079  18.276  0.00  0.00    +0.000 A 
ATOM     16  N   UNL     1       2.001   9.134  17.530  0.00  0.00    +0.000 NA
ATOM     17  N   UNL     1       1.308  10.025  18.328  0.00  0.00    +0.000 NA
ATOM     18  C   UNL     1       1.193   9.465  19.518  0.00  0.00    +0.000 A 
ATOM     19  O   UNL     1       1.758   8.214  19.554  0.00  0.00    +0.000 OA
BRANCH  18  20
ATOM     20  C   UNL     1       0.459   9.924  20.695  0.00  0.00    +0.000 A 
ATOM     21  C   UNL     1       0.118   8.967  21.675  0.00  0.00    +0.000 A 
ATOM     22  C   UNL     1      -0.539   9.331  22.855  0.00  0.00    +0.000 A 
ATOM     23  C   UNL     1      -0.877  10.660  23.078  0.00  0.00    +0.000 A 
ATOM     24  C   UNL     1      -0.581  11.620  22.109  0.00  0.00    +0.000 A 
ATOM     25  C   UNL     1       0.074  11.256  20.922  0.00  0.00    +0.000 A 
ATOM     26 CL   UNL     1       0.316  12.521  19.765  0.00  0.00    +0.000 Cl
ENDBRANCH  18  20
ENDBRANCH  14  15
ENDBRANCH   1  14
TORSDOF 5
ENDMDL
MODEL 9
REMARK VINA RESULT:      -8.3      1.210      1.322
REMARK  Name = 
REMARK  5 active torsions:
REMARK  status: ('A' for Active; 'I' for Inactive)
REMARK    1  A    between atoms: C_6  and  N_7
REMARK    2  A    between atoms: C_11  and  S_12
REMARK    3  A    between atoms: S_12  and  C_13
REMARK    4  A    between atoms: C_13  and  C_14
REMARK    5  A    between atoms: C_17  and  C_18
REMARK                            x       y       z     vdW  Elec       q    Type
REMARK                         _______ _______ _______ _____ _____    ______ ____
ROOT
ATOM      1  S   UNL     1       2.036   5.251  18.485  0.00  0.00    +0.000 S 
ENDROOT
BRANCH   1   6
ATOM      2  N   UNL     1       4.397   3.822  18.913  0.00  0.00    +0.000 N 
ATOM      3  N   UNL     1       4.792   2.798  19.722  0.00  0.00    +0.000 NA
ATOM      4  N   UNL     1       3.796   2.561  20.559  0.00  0.00    +0.000 NA
ATOM      5  N   UNL     1       2.729   3.376  20.298  0.00  0.00    +0.000 NA
ATOM      6  C   UNL     1       3.084   4.131  19.284  0.00  0.00    +0.000 A 
BRANCH   2  12
ATOM      7  F   UNL     1       8.073   6.657  17.557  0.00  0.00    +0.000 F 
ATOM      8  C   UNL     1       7.136   5.754  17.236  0.00  0.00    +0.000 A 
ATOM      9  C   UNL     1       7.038   5.307  15.929  0.00  0.00    +0.000 A 
ATOM     10  C   UNL     1       6.071   4.361  15.609  0.00  0.00    +0.000 A 
ATOM     11  C   UNL     1       5.207   3.877  16.600  0.00  0.00    +0.000 A 
ATOM     12  C   UNL     1       5.298   4.339  17.930  0.00  0.00    +0.000 A 
ATOM     13  C   UNL     1       6.287   5.279  18.234  0.00  0.00    +0.000 A 
ENDBRANCH   2  12
ENDBRANCH   1   6
BRANCH   1  14
ATOM     14  C   UNL     1       3.102   6.676  18.115  0.00  0.00    +0.000 C 
BRANCH  14  15
ATOM     15  C   UNL     1       2.337   7.927  18.382  0.00  0.00    +0.000 A 
ATOM     16  N   UNL     1       1.940   8.863  17.550  0.00  0.00    +0.000 NA
ATOM     17  N   UNL     1       1.177   9.747  18.290  0.00  0.00    +0.000 NA
ATOM     18  C   UNL     1       1.177   9.304  19.534  0.00  0.00    +0.000 A 
ATOM     19  O   UNL     1       1.888   8.137  19.665  0.00  0.00    +0.000 OA
BRANCH  18  20
ATOM     20  C   UNL     1       0.440   9.795  20.696  0.00  0.00    +0.000 A 
ATOM     21  C   UNL     1       0.108   8.869  21.707  0.00  0.00    +0.000 A 
ATOM     22  C   UNL     1      -0.552   9.266  22.875  0.00  0.00    +0.000 A 
ATOM     23  C   UNL     1      -0.901  10.599  23.054  0.00  0.00    +0.000 A 
ATOM     24  C   UNL     1      -0.614  11.528  22.053  0.00  0.00    +0.000 A 
ATOM     25  C   UNL     1       0.043  11.131  20.879  0.00  0.00    +0.000 A 
ATOM     26 CL   UNL     1       0.273  12.359  19.680  0.00  0.00    +0.000 Cl
ENDBRANCH  18  20
ENDBRANCH  14  15
ENDBRANCH   1  14
TORSDOF 5
ENDMDL
