MODEL 1
REMARK VINA RESULT:      -8.6      0.000      0.000
REMARK  Name = 
REMARK  6 active torsions:
REMARK  status: ('A' for Active; 'I' for Inactive)
REMARK    1  A    between atoms: C_2  and  OXT_3
REMARK    2  A    between atoms: C_2  and  CA_4
REMARK    3  A    between atoms: CA_4  and  C_5
REMARK    4  A    between atoms: CA_4  and  N_16
REMARK    5  A    between atoms: C_5  and  C_6
REMARK    6  A    between atoms: C_17  and  C_19
REMARK                            x       y       z     vdW  Elec       q    Type
REMARK                         _______ _______ _______ _____ _____    ______ ____
ROOT
ATOM      1  CA  UNL     1       2.870   5.724  17.739  0.00  0.00    +0.000 C 
ENDROOT
BRANCH   1   2
ATOM      2  N   UNL     1       4.102   5.023  17.377  0.00  0.00    +0.000 N 
ATOM      3  C   UNL     1       5.082   5.628  16.623  0.00  0.00    +0.000 C 
ATOM      4  O   UNL     1       4.919   6.758  16.162  0.00  0.00    +0.000 OA
ATOM      5  H   UNL     1       4.176   4.021  17.534  0.00  0.00    +0.000 HD
BRANCH   3   6
ATOM      6  C   UNL     1       6.324   4.751  16.358  0.00  0.00    +0.000 C 
ATOM      7  C   UNL     1       5.966   3.467  15.598  0.00  0.00    +0.000 C 
ATOM      8  C   UNL     1       6.382   3.879  14.236  0.00  0.00    +0.000 A 
ATOM      9  C   UNL     1       6.132   3.277  13.014  0.00  0.00    +0.000 A 
ATOM     10  C   UNL     1       6.693   3.851  11.870  0.00  0.00    +0.000 A 
ATOM     11  C   UNL     1       7.506   4.994  11.967  0.00  0.00    +0.000 A 
ATOM     12  C   UNL     1       7.761   5.580  13.208  0.00  0.00    +0.000 A 
ATOM     13  C   UNL     1       7.180   5.009  14.322  0.00  0.00    +0.000 A 
ATOM     14  O   UNL     1       7.324   5.482  15.600  0.00  0.00    +0.000 OA
ENDBRANCH   3   6
ENDBRANCH   1   2
BRANCH   1  16
ATOM     15  O   UNL     1       1.131   4.051  17.299  0.00  0.00    +0.000 OA
ATOM     16  C   UNL     1       1.812   4.675  18.104  0.00  0.00    +0.000 C 
BRANCH  16  17
ATOM     17  OXT UNL     1       1.595   4.588  19.443  0.00  0.00    +0.000 OA
ATOM     18  HXT UNL     1       1.779   5.435  19.910  0.00  0.00    +0.000 HD
ENDBRANCH  16  17
ENDBRANCH   1  16
BRANCH   1  19
ATOM     19  C   UNL     1       3.118   6.713  18.886  0.00  0.00    +0.000 C 
BRANCH  19  20
ATOM     20  C   UNL     1       2.264   7.940  18.795  0.00  0.00    +0.000 A 
ATOM     21  C   UNL     1       2.139   8.743  17.678  0.00  0.00    +0.000 A 
ATOM     22  N   UNL     1       1.320   9.792  17.983  0.00  0.00    +0.000 N 
ATOM     23  C   UNL     1       0.895   9.695  19.287  0.00  0.00    +0.000 A 
ATOM     24  C   UNL     1       0.072  10.551  20.028  0.00  0.00    +0.000 A 
ATOM     25  C   UNL     1      -0.197  10.191  21.345  0.00  0.00    +0.000 A 
ATOM     26  F   UNL     1      -0.971  10.993  22.092  0.00  0.00    +0.000 F 
ATOM     27  C   UNL     1       0.312   9.028  21.907  0.00  0.00    +0.000 A 
ATOM     28  C   UNL     1       1.140   8.184  21.153  0.00  0.00    +0.000 A 
ATOM     29  C   UNL     1       1.448   8.526  19.818  0.00  0.00    +0.000 A 
ATOM     30  H   UNL     1       1.072  10.539  17.349  0.00  0.00    +0.000 HD
ENDBRANCH  19  20
ENDBRANCH   1  19
TORSDOF 6
ENDMDL
MODEL 2
REMARK VINA RESULT:      -8.6      2.380      3.314
REMARK  Name = 
REMARK  6 active torsions:
REMARK  status: ('A' for Active; 'I' for Inactive)
REMARK    1  A    between atoms: C_2  and  OXT_3
REMARK    2  A    between atoms: C_2  and  CA_4
REMARK    3  A    between atoms: CA_4  and  C_5
REMARK    4  A    between atoms: CA_4  and  N_16
REMARK    5  A    between atoms: C_5  and  C_6
REMARK    6  A    between atoms: C_17  and  C_19
REMARK                            x       y       z     vdW  Elec       q    Type
REMARK                         _______ _______ _______ _____ _____    ______ ____
ROOT
ATOM      1  CA  UNL     1       1.989   4.857  20.143  0.00  0.00    +0.000 C 
ENDROOT
BRANCH   1   2
ATOM      2  N   UNL     1       3.213   4.386  19.497  0.00  0.00    +0.000 N 
ATOM      3  C   UNL     1       3.282   4.189  18.137  0.00  0.00    +0.000 C 
ATOM      4  O   UNL     1       2.287   4.330  17.426  0.00  0.00    +0.000 OA
ATOM      5  H   UNL     1       3.980   4.034  20.066  0.00  0.00    +0.000 HD
BRANCH   3   6
ATOM      6  C   UNL     1       4.658   3.715  17.623  0.00  0.00    +0.000 C 
ATOM      7  C   UNL     1       5.131   4.533  16.414  0.00  0.00    +0.000 C 
ATOM      8  C   UNL     1       6.078   5.441  17.104  0.00  0.00    +0.000 A 
ATOM      9  C   UNL     1       6.697   6.591  16.643  0.00  0.00    +0.000 A 
ATOM     10  C   UNL     1       7.599   7.239  17.492  0.00  0.00    +0.000 A 
ATOM     11  C   UNL     1       7.883   6.719  18.767  0.00  0.00    +0.000 A 
ATOM     12  C   UNL     1       7.262   5.550  19.210  0.00  0.00    +0.000 A 
ATOM     13  C   UNL     1       6.359   4.939  18.365  0.00  0.00    +0.000 A 
ATOM     14  O   UNL     1       5.661   3.799  18.669  0.00  0.00    +0.000 OA
ENDBRANCH   3   6
ENDBRANCH   1   2
BRANCH   1  16
ATOM     15  O   UNL     1       1.958   3.309  22.047  0.00  0.00    +0.000 OA
ATOM     16  C   UNL     1       1.439   3.719  21.016  0.00  0.00    +0.000 C 
BRANCH  16  17
ATOM     17  OXT UNL     1       0.365   3.100  20.459  0.00  0.00    +0.000 OA
ATOM     18  HXT UNL     1      -0.482   3.357  20.890  0.00  0.00    +0.000 HD
ENDBRANCH  16  17
ENDBRANCH   1  16
BRANCH   1  19
ATOM     19  C   UNL     1       2.252   6.130  20.959  0.00  0.00    +0.000 C 
BRANCH  19  20
ATOM     20  C   UNL     1       1.855   7.380  20.236  0.00  0.00    +0.000 A 
ATOM     21  C   UNL     1       2.186   7.685  18.930  0.00  0.00    +0.000 A 
ATOM     22  N   UNL     1       1.696   8.924  18.634  0.00  0.00    +0.000 N 
ATOM     23  C   UNL     1       1.040   9.446  19.723  0.00  0.00    +0.000 A 
ATOM     24  C   UNL     1       0.409  10.685  19.881  0.00  0.00    +0.000 A 
ATOM     25  C   UNL     1      -0.187  10.941  21.113  0.00  0.00    +0.000 A 
ATOM     26  F   UNL     1      -0.790  12.124  21.308  0.00  0.00    +0.000 F 
ATOM     27  C   UNL     1      -0.174  10.011  22.142  0.00  0.00    +0.000 A 
ATOM     28  C   UNL     1       0.467   8.776  21.970  0.00  0.00    +0.000 A 
ATOM     29  C   UNL     1       1.096   8.488  20.739  0.00  0.00    +0.000 A 
ATOM     30  H   UNL     1       1.809   9.397  17.747  0.00  0.00    +0.000 HD
ENDBRANCH  19  20
ENDBRANCH   1  19
TORSDOF 6
ENDMDL
MODEL 3
REMARK VINA RESULT:      -8.5      2.355      5.362
REMARK  Name = 
REMARK  6 active torsions:
REMARK  status: ('A' for Active; 'I' for Inactive)
REMARK    1  A    between atoms: C_2  and  OXT_3
REMARK    2  A    between atoms: C_2  and  CA_4
REMARK    3  A    between atoms: CA_4  and  C_5
REMARK    4  A    between atoms: CA_4  and  N_16
REMARK    5  A    between atoms: C_5  and  C_6
REMARK    6  A    between atoms: C_17  and  C_19
REMARK                            x       y       z     vdW  Elec       q    Type
REMARK                         _______ _______ _______ _____ _____    ______ ____
ROOT
ATOM      1  CA  UNL     1       5.088   6.180  17.251  0.00  0.00    +0.000 C 
ENDROOT
BRANCH   1   2
ATOM      2  N   UNL     1       4.639   4.821  17.552  0.00  0.00    +0.000 N 
ATOM      3  C   UNL     1       5.344   4.000  18.402  0.00  0.00    +0.000 C 
ATOM      4  O   UNL     1       6.423   4.356  18.877  0.00  0.00    +0.000 OA
ATOM      5  H   UNL     1       3.890   4.405  17.005  0.00  0.00    +0.000 HD
BRANCH   3   6
ATOM      6  C   UNL     1       4.713   2.609  18.626  0.00  0.00    +0.000 C 
ATOM      7  C   UNL     1       4.627   2.253  20.117  0.00  0.00    +0.000 C 
ATOM      8  C   UNL     1       3.197   2.569  20.349  0.00  0.00    +0.000 A 
ATOM      9  C   UNL     1       2.499   2.687  21.539  0.00  0.00    +0.000 A 
ATOM     10  C   UNL     1       1.126   2.943  21.475  0.00  0.00    +0.000 A 
ATOM     11  C   UNL     1       0.475   3.051  20.234  0.00  0.00    +0.000 A 
ATOM     12  C   UNL     1       1.191   2.914  19.043  0.00  0.00    +0.000 A 
ATOM     13  C   UNL     1       2.548   2.683  19.129  0.00  0.00    +0.000 A 
ATOM     14  O   UNL     1       3.382   2.544  18.050  0.00  0.00    +0.000 OA
ENDBRANCH   3   6
ENDBRANCH   1   2
BRANCH   1  16
ATOM     15  O   UNL     1       5.595   6.027  14.855  0.00  0.00    +0.000 OA
ATOM     16  C   UNL     1       5.991   6.122  16.010  0.00  0.00    +0.000 C 
BRANCH  16  17
ATOM     17  OXT UNL     1       7.311   6.051  16.322  0.00  0.00    +0.000 OA
ATOM     18  HXT UNL     1       7.466   5.981  17.292  0.00  0.00    +0.000 HD
ENDBRANCH  16  17
ENDBRANCH   1  16
BRANCH   1  19
ATOM     19  C   UNL     1       3.893   7.121  17.048  0.00  0.00    +0.000 C 
BRANCH  19  20
ATOM     20  C   UNL     1       3.092   7.326  18.296  0.00  0.00    +0.000 A 
ATOM     21  C   UNL     1       3.046   6.454  19.366  0.00  0.00    +0.000 A 
ATOM     22  N   UNL     1       2.174   6.945  20.294  0.00  0.00    +0.000 N 
ATOM     23  C   UNL     1       1.642   8.135  19.858  0.00  0.00    +0.000 A 
ATOM     24  C   UNL     1       0.699   8.972  20.465  0.00  0.00    +0.000 A 
ATOM     25  C   UNL     1       0.348  10.134  19.783  0.00  0.00    +0.000 A 
ATOM     26  F   UNL     1      -0.564  10.955  20.326  0.00  0.00    +0.000 F 
ATOM     27  C   UNL     1       0.912  10.465  18.559  0.00  0.00    +0.000 A 
ATOM     28  C   UNL     1       1.852   9.614  17.961  0.00  0.00    +0.000 A 
ATOM     29  C   UNL     1       2.220   8.418  18.617  0.00  0.00    +0.000 A 
ATOM     30  H   UNL     1       1.942   6.495  21.169  0.00  0.00    +0.000 HD
ENDBRANCH  19  20
ENDBRANCH   1  19
TORSDOF 6
ENDMDL
MODEL 4
REMARK VINA RESULT:      -7.9      2.959      3.838
REMARK  Name = 
REMARK  6 active torsions:
REMARK  status: ('A' for Active; 'I' for Inactive)
REMARK    1  A    between atoms: C_2  and  OXT_3
REMARK    2  A    between atoms: C_2  and  CA_4
REMARK    3  A    between atoms: CA_4  and  C_5
REMARK    4  A    between atoms: CA_4  and  N_16
REMARK    5  A    between atoms: C_5  and  C_6
REMARK    6  A    between atoms: C_17  and  C_19
REMARK                            x       y       z     vdW  Elec       q    Type
REMARK                         _______ _______ _______ _____ _____    ______ ____
ROOT
ATOM      1  CA  UNL     1       1.412   4.585  19.459  0.00  0.00    +0.000 C 
ENDROOT
BRANCH   1   2
ATOM      2  N   UNL     1       2.543   4.411  18.548  0.00  0.00    +0.000 N 
ATOM      3  C   UNL     1       3.687   3.751  18.935  0.00  0.00    +0.000 C 
ATOM      4  O   UNL     1       3.826   3.352  20.092  0.00  0.00    +0.000 OA
ATOM      5  H   UNL     1       2.566   4.924  17.670  0.00  0.00    +0.000 HD
BRANCH   3   6
ATOM      6  C   UNL     1       4.768   3.638  17.840  0.00  0.00    +0.000 C 
ATOM      7  C   UNL     1       4.625   4.737  16.778  0.00  0.00    +0.000 C 
ATOM      8  C   UNL     1       5.683   5.660  17.255  0.00  0.00    +0.000 A 
ATOM      9  C   UNL     1       5.948   6.968  16.886  0.00  0.00    +0.000 A 
ATOM     10  C   UNL     1       7.054   7.603  17.459  0.00  0.00    +0.000 A 
ATOM     11  C   UNL     1       7.883   6.918  18.364  0.00  0.00    +0.000 A 
ATOM     12  C   UNL     1       7.611   5.594  18.714  0.00  0.00    +0.000 A 
ATOM     13  C   UNL     1       6.502   4.994  18.154  0.00  0.00    +0.000 A 
ATOM     14  O   UNL     1       6.099   3.710  18.414  0.00  0.00    +0.000 OA
ENDBRANCH   3   6
ENDBRANCH   1   2
BRANCH   1  16
ATOM     15  O   UNL     1       0.322   2.436  18.997  0.00  0.00    +0.000 OA
ATOM     16  C   UNL     1       0.852   3.197  19.798  0.00  0.00    +0.000 C 
BRANCH  16  17
ATOM     17  OXT UNL     1       0.878   2.929  21.130  0.00  0.00    +0.000 OA
ATOM     18  HXT UNL     1       0.048   2.501  21.443  0.00  0.00    +0.000 HD
ENDBRANCH  16  17
ENDBRANCH   1  16
BRANCH   1  19
ATOM     19  C   UNL     1       1.833   5.357  20.716  0.00  0.00    +0.000 C 
BRANCH  19  20
ATOM     20  C   UNL     1       1.469   6.809  20.660  0.00  0.00    +0.000 A 
ATOM     21  C   UNL     1       0.691   7.472  21.589  0.00  0.00    +0.000 A 
ATOM     22  N   UNL     1       0.530   8.765  21.181  0.00  0.00    +0.000 N 
ATOM     23  C   UNL     1       1.194   8.972  19.996  0.00  0.00    +0.000 A 
ATOM     24  C   UNL     1       1.285  10.125  19.208  0.00  0.00    +0.000 A 
ATOM     25  C   UNL     1       2.044  10.041  18.044  0.00  0.00    +0.000 A 
ATOM     26  F   UNL     1       2.143  11.122  17.255  0.00  0.00    +0.000 F 
ATOM     27  C   UNL     1       2.699   8.874  17.678  0.00  0.00    +0.000 A 
ATOM     28  C   UNL     1       2.595   7.725  18.475  0.00  0.00    +0.000 A 
ATOM     29  C   UNL     1       1.819   7.769  19.654  0.00  0.00    +0.000 A 
ATOM     30  H   UNL     1      -0.009   9.466  21.672  0.00  0.00    +0.000 HD
ENDBRANCH  19  20
ENDBRANCH   1  19
TORSDOF 6
ENDMDL
MODEL 5
REMARK VINA RESULT:      -7.9      2.371      5.439
REMARK  Name = 
REMARK  6 active torsions:
REMARK  status: ('A' for Active; 'I' for Inactive)
REMARK    1  A    between atoms: C_2  and  OXT_3
REMARK    2  A    between atoms: C_2  and  CA_4
REMARK    3  A    between atoms: CA_4  and  C_5
REMARK    4  A    between atoms: CA_4  and  N_16
REMARK    5  A    between atoms: C_5  and  C_6
REMARK    6  A    between atoms: C_17  and  C_19
REMARK                            x       y       z     vdW  Elec       q    Type
REMARK                         _______ _______ _______ _____ _____    ______ ____
ROOT
ATOM      1  CA  UNL     1       5.499   5.801  17.541  0.00  0.00    +0.000 C 
ENDROOT
BRANCH   1   2
ATOM      2  N   UNL     1       5.020   4.494  17.991  0.00  0.00    +0.000 N 
ATOM      3  C   UNL     1       4.455   3.592  17.119  0.00  0.00    +0.000 C 
ATOM      4  O   UNL     1       4.263   3.888  15.939  0.00  0.00    +0.000 OA
ATOM      5  H   UNL     1       4.942   4.302  18.987  0.00  0.00    +0.000 HD
BRANCH   3   6
ATOM      6  C   UNL     1       4.028   2.255  17.760  0.00  0.00    +0.000 C 
ATOM      7  C   UNL     1       4.471   2.156  19.226  0.00  0.00    +0.000 C 
ATOM      8  C   UNL     1       3.184   2.494  19.881  0.00  0.00    +0.000 A 
ATOM      9  C   UNL     1       2.920   2.807  21.203  0.00  0.00    +0.000 A 
ATOM     10  C   UNL     1       1.592   3.036  21.574  0.00  0.00    +0.000 A 
ATOM     11  C   UNL     1       0.556   2.927  20.629  0.00  0.00    +0.000 A 
ATOM     12  C   UNL     1       0.838   2.595  19.302  0.00  0.00    +0.000 A 
ATOM     13  C   UNL     1       2.158   2.395  18.955  0.00  0.00    +0.000 A 
ATOM     14  O   UNL     1       2.588   2.082  17.691  0.00  0.00    +0.000 OA
ENDBRANCH   3   6
ENDBRANCH   1   2
BRANCH   1  16
ATOM     15  O   UNL     1       7.538   5.079  16.382  0.00  0.00    +0.000 OA
ATOM     16  C   UNL     1       6.422   5.582  16.334  0.00  0.00    +0.000 C 
BRANCH  16  17
ATOM     17  OXT UNL     1       5.933   6.130  15.191  0.00  0.00    +0.000 OA
ATOM     18  HXT UNL     1       6.058   7.106  15.158  0.00  0.00    +0.000 HD
ENDBRANCH  16  17
ENDBRANCH   1  16
BRANCH   1  19
ATOM     19  C   UNL     1       4.326   6.731  17.206  0.00  0.00    +0.000 C 
BRANCH  19  20
ATOM     20  C   UNL     1       3.426   6.982  18.377  0.00  0.00    +0.000 A 
ATOM     21  C   UNL     1       3.299   6.155  19.476  0.00  0.00    +0.000 A 
ATOM     22  N   UNL     1       2.353   6.679  20.309  0.00  0.00    +0.000 N 
ATOM     23  C   UNL     1       1.853   7.845  19.782  0.00  0.00    +0.000 A 
ATOM     24  C   UNL     1       0.861   8.700  20.275  0.00  0.00    +0.000 A 
ATOM     25  C   UNL     1       0.560   9.829  19.518  0.00  0.00    +0.000 A 
ATOM     26  F   UNL     1      -0.395  10.665  19.952  0.00  0.00    +0.000 F 
ATOM     27  C   UNL     1       1.219  10.113  18.331  0.00  0.00    +0.000 A 
ATOM     28  C   UNL     1       2.207   9.244  17.846  0.00  0.00    +0.000 A 
ATOM     29  C   UNL     1       2.527   8.080  18.580  0.00  0.00    +0.000 A 
ATOM     30  H   UNL     1       2.053   6.264  21.181  0.00  0.00    +0.000 HD
ENDBRANCH  19  20
ENDBRANCH   1  19
TORSDOF 6
ENDMDL
MODEL 6
REMARK VINA RESULT:      -7.9      4.293      5.489
REMARK  Name = 
REMARK  6 active torsions:
REMARK  status: ('A' for Active; 'I' for Inactive)
REMARK    1  A    between atoms: C_2  and  OXT_3
REMARK    2  A    between atoms: C_2  and  CA_4
REMARK    3  A    between atoms: CA_4  and  C_5
REMARK    4  A    between atoms: CA_4  and  N_16
REMARK    5  A    between atoms: C_5  and  C_6
REMARK    6  A    between atoms: C_17  and  C_19
REMARK                            x       y       z     vdW  Elec       q    Type
REMARK                         _______ _______ _______ _____ _____    ______ ____
ROOT
ATOM      1  CA  UNL     1       6.675   5.867  17.247  0.00  0.00    +0.000 C 
ENDROOT
BRANCH   1   2
ATOM      2  N   UNL     1       6.544   5.986  15.795  0.00  0.00    +0.000 N 
ATOM      3  C   UNL     1       6.423   4.878  14.988  0.00  0.00    +0.000 C 
ATOM      4  O   UNL     1       6.500   3.742  15.457  0.00  0.00    +0.000 OA
ATOM      5  H   UNL     1       6.711   6.883  15.346  0.00  0.00    +0.000 HD
BRANCH   3   6
ATOM      6  C   UNL     1       6.268   5.189  13.484  0.00  0.00    +0.000 C 
ATOM      7  C   UNL     1       7.529   4.821  12.691  0.00  0.00    +0.000 C 
ATOM      8  C   UNL     1       7.077   3.527  12.125  0.00  0.00    +0.000 A 
ATOM      9  C   UNL     1       7.806   2.539  11.484  0.00  0.00    +0.000 A 
ATOM     10  C   UNL     1       7.117   1.426  10.994  0.00  0.00    +0.000 A 
ATOM     11  C   UNL     1       5.721   1.331  11.129  0.00  0.00    +0.000 A 
ATOM     12  C   UNL     1       4.999   2.344  11.765  0.00  0.00    +0.000 A 
ATOM     13  C   UNL     1       5.702   3.422  12.260  0.00  0.00    +0.000 A 
ATOM     14  O   UNL     1       5.134   4.481  12.920  0.00  0.00    +0.000 OA
ENDBRANCH   3   6
ENDBRANCH   1   2
BRANCH   1  16
ATOM     15  O   UNL     1       8.312   6.876  18.771  0.00  0.00    +0.000 OA
ATOM     16  C   UNL     1       7.674   6.929  17.727  0.00  0.00    +0.000 C 
BRANCH  16  17
ATOM     17  OXT UNL     1       7.693   8.031  16.932  0.00  0.00    +0.000 OA
ATOM     18  HXT UNL     1       6.875   8.572  17.018  0.00  0.00    +0.000 HD
ENDBRANCH  16  17
ENDBRANCH   1  16
BRANCH   1  19
ATOM     19  C   UNL     1       5.311   6.009  17.936  0.00  0.00    +0.000 C 
BRANCH  19  20
ATOM     20  C   UNL     1       4.813   4.721  18.516  0.00  0.00    +0.000 A 
ATOM     21  C   UNL     1       5.580   3.814  19.221  0.00  0.00    +0.000 A 
ATOM     22  N   UNL     1       4.801   2.741  19.545  0.00  0.00    +0.000 N 
ATOM     23  C   UNL     1       3.525   2.924  19.070  0.00  0.00    +0.000 A 
ATOM     24  C   UNL     1       2.410   2.081  19.147  0.00  0.00    +0.000 A 
ATOM     25  C   UNL     1       1.227   2.538  18.571  0.00  0.00    +0.000 A 
ATOM     26  F   UNL     1       0.140   1.753  18.613  0.00  0.00    +0.000 F 
ATOM     27  C   UNL     1       1.142   3.780  17.957  0.00  0.00    +0.000 A 
ATOM     28  C   UNL     1       2.269   4.610  17.883  0.00  0.00    +0.000 A 
ATOM     29  C   UNL     1       3.490   4.172  18.441  0.00  0.00    +0.000 A 
ATOM     30  H   UNL     1       5.118   1.924  20.050  0.00  0.00    +0.000 HD
ENDBRANCH  19  20
ENDBRANCH   1  19
TORSDOF 6
ENDMDL
MODEL 7
REMARK VINA RESULT:      -7.8      2.152      3.171
REMARK  Name = 
REMARK  6 active torsions:
REMARK  status: ('A' for Active; 'I' for Inactive)
REMARK    1  A    between atoms: C_2  and  OXT_3
REMARK    2  A    between atoms: C_2  and  CA_4
REMARK    3  A    between atoms: CA_4  and  C_5
REMARK    4  A    between atoms: CA_4  and  N_16
REMARK    5  A    between atoms: C_5  and  C_6
REMARK    6  A    between atoms: C_17  and  C_19
REMARK                            x       y       z     vdW  Elec       q    Type
REMARK                         _______ _______ _______ _____ _____    ______ ____
ROOT
ATOM      1  CA  UNL     1       2.786   4.530  19.443  0.00  0.00    +0.000 C 
ENDROOT
BRANCH   1   2
ATOM      2  N   UNL     1       4.101   4.370  18.825  0.00  0.00    +0.000 N 
ATOM      3  C   UNL     1       4.239   4.070  17.488  0.00  0.00    +0.000 C 
ATOM      4  O   UNL     1       3.254   3.850  16.784  0.00  0.00    +0.000 OA
ATOM      5  H   UNL     1       4.930   4.309  19.412  0.00  0.00    +0.000 HD
BRANCH   3   6
ATOM      6  C   UNL     1       5.699   3.963  16.999  0.00  0.00    +0.000 C 
ATOM      7  C   UNL     1       6.045   5.061  15.984  0.00  0.00    +0.000 C 
ATOM      8  C   UNL     1       6.770   5.989  16.885  0.00  0.00    +0.000 A 
ATOM      9  C   UNL     1       7.167   7.298  16.673  0.00  0.00    +0.000 A 
ATOM     10  C   UNL     1       7.893   7.939  17.682  0.00  0.00    +0.000 A 
ATOM     11  C   UNL     1       8.227   7.259  18.865  0.00  0.00    +0.000 A 
ATOM     12  C   UNL     1       7.832   5.933  19.057  0.00  0.00    +0.000 A 
ATOM     13  C   UNL     1       7.098   5.328  18.058  0.00  0.00    +0.000 A 
ATOM     14  O   UNL     1       6.627   4.042  18.112  0.00  0.00    +0.000 OA
ENDBRANCH   3   6
ENDBRANCH   1   2
BRANCH   1  16
ATOM     15  O   UNL     1       2.194   2.163  19.707  0.00  0.00    +0.000 OA
ATOM     16  C   UNL     1       2.460   3.245  20.217  0.00  0.00    +0.000 C 
BRANCH  16  17
ATOM     17  OXT UNL     1       2.362   3.447  21.557  0.00  0.00    +0.000 OA
ATOM     18  HXT UNL     1       1.637   4.070  21.791  0.00  0.00    +0.000 HD
ENDBRANCH  16  17
ENDBRANCH   1  16
BRANCH   1  19
ATOM     19  C   UNL     1       2.751   5.769  20.348  0.00  0.00    +0.000 C 
BRANCH  19  20
ATOM     20  C   UNL     1       2.292   7.002  19.632  0.00  0.00    +0.000 A 
ATOM     21  C   UNL     1       2.477   7.259  18.288  0.00  0.00    +0.000 A 
ATOM     22  N   UNL     1       1.975   8.497  18.007  0.00  0.00    +0.000 N 
ATOM     23  C   UNL     1       1.455   9.065  19.144  0.00  0.00    +0.000 A 
ATOM     24  C   UNL     1       0.865  10.320  19.331  0.00  0.00    +0.000 A 
ATOM     25  C   UNL     1       0.418  10.628  20.613  0.00  0.00    +0.000 A 
ATOM     26  F   UNL     1      -0.142  11.827  20.835  0.00  0.00    +0.000 F 
ATOM     27  C   UNL     1       0.534   9.731  21.666  0.00  0.00    +0.000 A 
ATOM     28  C   UNL     1       1.132   8.480  21.464  0.00  0.00    +0.000 A 
ATOM     29  C   UNL     1       1.613   8.140  20.180  0.00  0.00    +0.000 A 
ATOM     30  H   UNL     1       1.994   8.938  17.097  0.00  0.00    +0.000 HD
ENDBRANCH  19  20
ENDBRANCH   1  19
TORSDOF 6
ENDMDL
MODEL 8
REMARK VINA RESULT:      -7.8      2.748      4.143
REMARK  Name = 
REMARK  6 active torsions:
REMARK  status: ('A' for Active; 'I' for Inactive)
REMARK    1  A    between atoms: C_2  and  OXT_3
REMARK    2  A    between atoms: C_2  and  CA_4
REMARK    3  A    between atoms: CA_4  and  C_5
REMARK    4  A    between atoms: CA_4  and  N_16
REMARK    5  A    between atoms: C_5  and  C_6
REMARK    6  A    between atoms: C_17  and  C_19
REMARK                            x       y       z     vdW  Elec       q    Type
REMARK                         _______ _______ _______ _____ _____    ______ ____
ROOT
ATOM      1  CA  UNL     1       3.409   3.305  18.685  0.00  0.00    +0.000 C 
ENDROOT
BRANCH   1   2
ATOM      2  N   UNL     1       4.761   3.501  18.163  0.00  0.00    +0.000 N 
ATOM      3  C   UNL     1       4.983   3.885  16.860  0.00  0.00    +0.000 C 
ATOM      4  O   UNL     1       4.049   4.002  16.067  0.00  0.00    +0.000 OA
ATOM      5  H   UNL     1       5.562   3.191  18.709  0.00  0.00    +0.000 HD
BRANCH   3   6
ATOM      6  C   UNL     1       6.469   4.070  16.487  0.00  0.00    +0.000 C 
ATOM      7  C   UNL     1       6.703   5.359  15.688  0.00  0.00    +0.000 C 
ATOM      8  C   UNL     1       7.219   6.219  16.781  0.00  0.00    +0.000 A 
ATOM      9  C   UNL     1       7.421   7.588  16.808  0.00  0.00    +0.000 A 
ATOM     10  C   UNL     1       7.975   8.150  17.962  0.00  0.00    +0.000 A 
ATOM     11  C   UNL     1       8.338   7.337  19.050  0.00  0.00    +0.000 A 
ATOM     12  C   UNL     1       8.141   5.956  19.001  0.00  0.00    +0.000 A 
ATOM     13  C   UNL     1       7.573   5.426  17.861  0.00  0.00    +0.000 A 
ATOM     14  O   UNL     1       7.304   4.095  17.674  0.00  0.00    +0.000 OA
ENDBRANCH   3   6
ENDBRANCH   1   2
BRANCH   1  16
ATOM     15  O   UNL     1       3.872   0.909  18.430  0.00  0.00    +0.000 OA
ATOM     16  C   UNL     1       3.058   1.816  18.560  0.00  0.00    +0.000 C 
BRANCH  16  17
ATOM     17  OXT UNL     1       1.721   1.595  18.471  0.00  0.00    +0.000 OA
ATOM     18  HXT UNL     1       1.199   2.218  19.026  0.00  0.00    +0.000 HD
ENDBRANCH  16  17
ENDBRANCH   1  16
BRANCH   1  19
ATOM     19  C   UNL     1       3.302   3.800  20.134  0.00  0.00    +0.000 C 
BRANCH  19  20
ATOM     20  C   UNL     1       2.628   5.133  20.249  0.00  0.00    +0.000 A 
ATOM     21  C   UNL     1       1.731   5.490  21.236  0.00  0.00    +0.000 A 
ATOM     22  N   UNL     1       1.288   6.757  20.986  0.00  0.00    +0.000 N 
ATOM     23  C   UNL     1       1.882   7.249  19.849  0.00  0.00    +0.000 A 
ATOM     24  C   UNL     1       1.712   8.482  19.209  0.00  0.00    +0.000 A 
ATOM     25  C   UNL     1       2.463   8.710  18.059  0.00  0.00    +0.000 A 
ATOM     26  F   UNL     1       2.318   9.876  17.410  0.00  0.00    +0.000 F 
ATOM     27  C   UNL     1       3.355   7.769  17.566  0.00  0.00    +0.000 A 
ATOM     28  C   UNL     1       3.511   6.536  18.215  0.00  0.00    +0.000 A 
ATOM     29  C   UNL     1       2.753   6.262  19.375  0.00  0.00    +0.000 A 
ATOM     30  H   UNL     1       0.612   7.257  21.547  0.00  0.00    +0.000 HD
ENDBRANCH  19  20
ENDBRANCH   1  19
TORSDOF 6
ENDMDL
MODEL 9
REMARK VINA RESULT:      -7.8      2.261      3.183
REMARK  Name = 
REMARK  6 active torsions:
REMARK  status: ('A' for Active; 'I' for Inactive)
REMARK    1  A    between atoms: C_2  and  OXT_3
REMARK    2  A    between atoms: C_2  and  CA_4
REMARK    3  A    between atoms: CA_4  and  C_5
REMARK    4  A    between atoms: CA_4  and  N_16
REMARK    5  A    between atoms: C_5  and  C_6
REMARK    6  A    between atoms: C_17  and  C_19
REMARK                            x       y       z     vdW  Elec       q    Type
REMARK                         _______ _______ _______ _____ _____    ______ ____
ROOT
ATOM      1  CA  UNL     1       2.243   5.730  19.440  0.00  0.00    +0.000 C 
ENDROOT
BRANCH   1   2
ATOM      2  N   UNL     1       3.473   5.225  18.830  0.00  0.00    +0.000 N 
ATOM      3  C   UNL     1       3.447   4.415  17.718  0.00  0.00    +0.000 C 
ATOM      4  O   UNL     1       2.380   4.024  17.243  0.00  0.00    +0.000 OA
ATOM      5  H   UNL     1       4.357   5.326  19.322  0.00  0.00    +0.000 HD
BRANCH   3   6
ATOM      6  C   UNL     1       4.837   3.995  17.194  0.00  0.00    +0.000 C 
ATOM      7  C   UNL     1       5.375   4.980  16.147  0.00  0.00    +0.000 C 
ATOM      8  C   UNL     1       6.305   5.750  17.010  0.00  0.00    +0.000 A 
ATOM      9  C   UNL     1       6.960   6.943  16.759  0.00  0.00    +0.000 A 
ATOM     10  C   UNL     1       7.834   7.433  17.735  0.00  0.00    +0.000 A 
ATOM     11  C   UNL     1       8.053   6.716  18.924  0.00  0.00    +0.000 A 
ATOM     12  C   UNL     1       7.395   5.506  19.155  0.00  0.00    +0.000 A 
ATOM     13  C   UNL     1       6.522   5.053  18.188  0.00  0.00    +0.000 A 
ATOM     14  O   UNL     1       5.794   3.895  18.281  0.00  0.00    +0.000 OA
ENDBRANCH   3   6
ENDBRANCH   1   2
BRANCH   1  16
ATOM     15  O   UNL     1       0.710   4.011  20.284  0.00  0.00    +0.000 OA
ATOM     16  C   UNL     1       1.729   4.674  20.428  0.00  0.00    +0.000 C 
BRANCH  16  17
ATOM     17  OXT UNL     1       2.455   4.629  21.576  0.00  0.00    +0.000 OA
ATOM     18  HXT UNL     1       2.546   5.514  21.999  0.00  0.00    +0.000 HD
ENDBRANCH  16  17
ENDBRANCH   1  16
BRANCH   1  19
ATOM     19  C   UNL     1       2.483   7.085  20.120  0.00  0.00    +0.000 C 
BRANCH  19  20
ATOM     20  C   UNL     1       1.828   8.224  19.400  0.00  0.00    +0.000 A 
ATOM     21  C   UNL     1       1.991   8.520  18.061  0.00  0.00    +0.000 A 
ATOM     22  N   UNL     1       1.285   9.652  17.775  0.00  0.00    +0.000 N 
ATOM     23  C   UNL     1       0.650  10.111  18.904  0.00  0.00    +0.000 A 
ATOM     24  C   UNL     1      -0.156  11.241  19.083  0.00  0.00    +0.000 A 
ATOM     25  C   UNL     1      -0.676  11.454  20.357  0.00  0.00    +0.000 A 
ATOM     26  F   UNL     1      -1.442  12.534  20.572  0.00  0.00    +0.000 F 
ATOM     27  C   UNL     1      -0.425  10.583  21.408  0.00  0.00    +0.000 A 
ATOM     28  C   UNL     1       0.389   9.459  21.214  0.00  0.00    +0.000 A 
ATOM     29  C   UNL     1       0.948   9.219  19.939  0.00  0.00    +0.000 A 
ATOM     30  H   UNL     1       1.243  10.098  16.867  0.00  0.00    +0.000 HD
ENDBRANCH  19  20
ENDBRANCH   1  19
TORSDOF 6
ENDMDL
