MODEL 1
REMARK VINA RESULT:      -9.5      0.000      0.000
REMARK  Name = 
REMARK  7 active torsions:
REMARK  status: ('A' for Active; 'I' for Inactive)
REMARK    1  A    between atoms: C_1  and  C_2
REMARK    2  A    between atoms: C_4  and  C_5
REMARK    3  A    between atoms: C_8  and  C_9
REMARK    4  A    between atoms: C_10  and  N_11
REMARK    5  A    between atoms: C_12  and  C_14
REMARK    6  A    between atoms: N_17  and  C_18
REMARK    7  A    between atoms: C_25  and  C_26
REMARK                            x       y       z     vdW  Elec       q    Type
REMARK                         _______ _______ _______ _____ _____    ______ ____
ROOT
ATOM      1  N   UNL     1       1.817   6.518  20.688  0.00  0.00    +0.000 N 
ATOM      2  C   UNL     1       1.608   7.824  20.271  0.00  0.00    +0.000 C 
ATOM      3  O   UNL     1       1.906   8.279  19.179  0.00  0.00    +0.000 OA
ATOM      4  H   UNL     1       1.662   6.347  21.673  0.00  0.00    +0.000 HD
ENDROOT
BRANCH   1  10
ATOM      5  C   UNL     1       3.847   4.905  18.027  0.00  0.00    +0.000 A 
ATOM      6  C   UNL     1       3.730   3.548  18.330  0.00  0.00    +0.000 A 
ATOM      7  C   UNL     1       3.016   3.139  19.443  0.00  0.00    +0.000 A 
ATOM      8  C   UNL     1       2.385   4.064  20.303  0.00  0.00    +0.000 A 
ATOM      9  C   UNL     1       1.708   3.437  21.489  0.00  0.00    +0.000 C 
ATOM     10  C   UNL     1       2.448   5.441  19.993  0.00  0.00    +0.000 A 
ATOM     11  C   UNL     1       3.210   5.837  18.864  0.00  0.00    +0.000 A 
BRANCH   5  15
ATOM     12  C   UNL     1       6.612   4.506  13.977  0.00  0.00    +0.000 C 
ATOM     13  C   UNL     1       5.814   5.026  15.108  0.00  0.00    +0.000 A 
ATOM     14  N   UNL     1       5.199   4.333  16.036  0.00  0.00    +0.000 NA
ATOM     15  C   UNL     1       4.618   5.287  16.848  0.00  0.00    +0.000 A 
ATOM     16  N   UNL     1       4.852   6.548  16.445  0.00  0.00    +0.000 NA
ATOM     17  N   UNL     1       5.612   6.350  15.350  0.00  0.00    +0.000 N 
ATOM     18  H   UNL     1       5.953   7.154  14.833  0.00  0.00    +0.000 HD
ENDBRANCH   5  15
ENDBRANCH   1  10
BRANCH   2  19
ATOM     19  C   UNL     1       1.068   8.737  21.279  0.00  0.00    +0.000 A 
ATOM     20  C   UNL     1       1.349   8.897  22.647  0.00  0.00    +0.000 A 
ATOM     21  N   UNL     1       0.729   9.945  23.184  0.00  0.00    +0.000 NA
ATOM     22  N   UNL     1      -0.079  10.420  22.198  0.00  0.00    +0.000 N 
ATOM     23  C   UNL     1       0.118   9.729  21.014  0.00  0.00    +0.000 A 
ATOM     24  C   UNL     1      -0.467  10.092  19.688  0.00  0.00    +0.000 C 
BRANCH  22  25
ATOM     25  C   UNL     1      -0.915  11.539  22.460  0.00  0.00    +0.000 A 
ATOM     26  C   UNL     1      -0.590  12.775  21.877  0.00  0.00    +0.000 A 
ATOM     27  C   UNL     1      -1.433  13.875  22.047  0.00  0.00    +0.000 A 
ATOM     28  C   UNL     1      -2.581  13.758  22.829  0.00  0.00    +0.000 A 
ATOM     29  C   UNL     1      -2.878  12.545  23.446  0.00  0.00    +0.000 A 
ATOM     30 CL   UNL     1      -4.280  12.414  24.436  0.00  0.00    +0.000 Cl
ATOM     31  C   UNL     1      -2.051  11.434  23.269  0.00  0.00    +0.000 A 
ENDBRANCH  22  25
ENDBRANCH   2  19
TORSDOF 4
ENDMDL
MODEL 2
REMARK VINA RESULT:      -9.3      1.573      1.728
REMARK  Name = 
REMARK  7 active torsions:
REMARK  status: ('A' for Active; 'I' for Inactive)
REMARK    1  A    between atoms: C_1  and  C_2
REMARK    2  A    between atoms: C_4  and  C_5
REMARK    3  A    between atoms: C_8  and  C_9
REMARK    4  A    between atoms: C_10  and  N_11
REMARK    5  A    between atoms: C_12  and  C_14
REMARK    6  A    between atoms: N_17  and  C_18
REMARK    7  A    between atoms: C_25  and  C_26
REMARK                            x       y       z     vdW  Elec       q    Type
REMARK                         _______ _______ _______ _____ _____    ______ ____
ROOT
ATOM      1  N   UNL     1       2.125   6.294  20.509  0.00  0.00    +0.000 N 
ATOM      2  C   UNL     1       2.035   7.507  19.843  0.00  0.00    +0.000 C 
ATOM      3  O   UNL     1       2.498   7.751  18.741  0.00  0.00    +0.000 OA
ATOM      4  H   UNL     1       1.830   6.308  21.477  0.00  0.00    +0.000 HD
ENDROOT
BRANCH   1  10
ATOM      5  C   UNL     1       4.630   4.231  18.701  0.00  0.00    +0.000 A 
ATOM      6  C   UNL     1       4.262   2.929  19.044  0.00  0.00    +0.000 A 
ATOM      7  C   UNL     1       3.208   2.706  19.913  0.00  0.00    +0.000 A 
ATOM      8  C   UNL     1       2.473   3.771  20.478  0.00  0.00    +0.000 A 
ATOM      9  C   UNL     1       1.405   3.335  21.442  0.00  0.00    +0.000 C 
ATOM     10  C   UNL     1       2.794   5.096  20.111  0.00  0.00    +0.000 A 
ATOM     11  C   UNL     1       3.897   5.300  19.242  0.00  0.00    +0.000 A 
BRANCH   5  15
ATOM     12  C   UNL     1       7.149   4.750  14.507  0.00  0.00    +0.000 C 
ATOM     13  C   UNL     1       6.767   4.631  15.930  0.00  0.00    +0.000 A 
ATOM     14  N   UNL     1       5.561   4.486  16.423  0.00  0.00    +0.000 NA
ATOM     15  C   UNL     1       5.754   4.415  17.789  0.00  0.00    +0.000 A 
ATOM     16  N   UNL     1       7.044   4.517  18.153  0.00  0.00    +0.000 NA
ATOM     17  N   UNL     1       7.657   4.647  16.960  0.00  0.00    +0.000 N 
ATOM     18  H   UNL     1       8.668   4.735  16.930  0.00  0.00    +0.000 HD
ENDBRANCH   5  15
ENDBRANCH   1  10
BRANCH   2  19
ATOM     19  C   UNL     1       1.406   8.599  20.588  0.00  0.00    +0.000 A 
ATOM     20  C   UNL     1       1.337   8.879  21.964  0.00  0.00    +0.000 A 
ATOM     21  N   UNL     1       0.779  10.059  22.225  0.00  0.00    +0.000 NA
ATOM     22  N   UNL     1       0.352  10.522  21.020  0.00  0.00    +0.000 N 
ATOM     23  C   UNL     1       0.737   9.675  19.993  0.00  0.00    +0.000 A 
ATOM     24  C   UNL     1       0.593   9.956  18.533  0.00  0.00    +0.000 C 
BRANCH  22  25
ATOM     25  C   UNL     1      -0.326  11.768  20.952  0.00  0.00    +0.000 A 
ATOM     26  C   UNL     1       0.417  12.950  21.104  0.00  0.00    +0.000 A 
ATOM     27  C   UNL     1      -0.202  14.193  20.962  0.00  0.00    +0.000 A 
ATOM     28  C   UNL     1      -1.571  14.264  20.707  0.00  0.00    +0.000 A 
ATOM     29  C   UNL     1      -2.318  13.092  20.604  0.00  0.00    +0.000 A 
ATOM     30 CL   UNL     1      -4.013  13.185  20.319  0.00  0.00    +0.000 Cl
ATOM     31  C   UNL     1      -1.705  11.844  20.726  0.00  0.00    +0.000 A 
ENDBRANCH  22  25
ENDBRANCH   2  19
TORSDOF 4
ENDMDL
MODEL 3
REMARK VINA RESULT:      -9.2      1.052      1.376
REMARK  Name = 
REMARK  7 active torsions:
REMARK  status: ('A' for Active; 'I' for Inactive)
REMARK    1  A    between atoms: C_1  and  C_2
REMARK    2  A    between atoms: C_4  and  C_5
REMARK    3  A    between atoms: C_8  and  C_9
REMARK    4  A    between atoms: C_10  and  N_11
REMARK    5  A    between atoms: C_12  and  C_14
REMARK    6  A    between atoms: N_17  and  C_18
REMARK    7  A    between atoms: C_25  and  C_26
REMARK                            x       y       z     vdW  Elec       q    Type
REMARK                         _______ _______ _______ _____ _____    ______ ____
ROOT
ATOM      1  N   UNL     1       1.949   6.506  20.607  0.00  0.00    +0.000 N 
ATOM      2  C   UNL     1       1.759   7.796  20.135  0.00  0.00    +0.000 C 
ATOM      3  O   UNL     1       2.108   8.214  19.044  0.00  0.00    +0.000 OA
ATOM      4  H   UNL     1       1.748   6.369  21.589  0.00  0.00    +0.000 HD
ENDROOT
BRANCH   1  10
ATOM      5  C   UNL     1       3.980   4.779  18.019  0.00  0.00    +0.000 A 
ATOM      6  C   UNL     1       3.940   3.447  18.434  0.00  0.00    +0.000 A 
ATOM      7  C   UNL     1       3.281   3.098  19.600  0.00  0.00    +0.000 A 
ATOM      8  C   UNL     1       2.630   4.059  20.403  0.00  0.00    +0.000 A 
ATOM      9  C   UNL     1       2.020   3.499  21.658  0.00  0.00    +0.000 C 
ATOM     10  C   UNL     1       2.613   5.407  19.980  0.00  0.00    +0.000 A 
ATOM     11  C   UNL     1       3.321   5.745  18.799  0.00  0.00    +0.000 A 
BRANCH   5  15
ATOM     12  C   UNL     1       6.346   4.168  13.750  0.00  0.00    +0.000 C 
ATOM     13  C   UNL     1       5.710   4.748  14.951  0.00  0.00    +0.000 A 
ATOM     14  N   UNL     1       5.090   4.107  15.913  0.00  0.00    +0.000 NA
ATOM     15  C   UNL     1       4.695   5.100  16.789  0.00  0.00    +0.000 A 
ATOM     16  N   UNL     1       5.048   6.335  16.392  0.00  0.00    +0.000 NA
ATOM     17  N   UNL     1       5.689   6.079  15.234  0.00  0.00    +0.000 N 
ATOM     18  H   UNL     1       6.084   6.851  14.706  0.00  0.00    +0.000 HD
ENDBRANCH   5  15
ENDBRANCH   1  10
BRANCH   2  19
ATOM     19  C   UNL     1       1.171   8.742  21.085  0.00  0.00    +0.000 A 
ATOM     20  C   UNL     1       1.433   8.995  22.442  0.00  0.00    +0.000 A 
ATOM     21  N   UNL     1       0.762  10.044  22.912  0.00  0.00    +0.000 NA
ATOM     22  N   UNL     1      -0.057  10.424  21.895  0.00  0.00    +0.000 N 
ATOM     23  C   UNL     1       0.179   9.673  20.755  0.00  0.00    +0.000 A 
ATOM     24  C   UNL     1      -0.410   9.932  19.407  0.00  0.00    +0.000 C 
BRANCH  22  25
ATOM     25  C   UNL     1      -0.944  11.518  22.085  0.00  0.00    +0.000 A 
ATOM     26  C   UNL     1      -1.933  11.420  23.077  0.00  0.00    +0.000 A 
ATOM     27  C   UNL     1      -2.768  12.506  23.346  0.00  0.00    +0.000 A 
ATOM     28  C   UNL     1      -2.646  13.680  22.602  0.00  0.00    +0.000 A 
ATOM     29  C   UNL     1      -1.696  13.760  21.586  0.00  0.00    +0.000 A 
ATOM     30 CL   UNL     1      -1.569  15.199  20.650  0.00  0.00    +0.000 Cl
ATOM     31  C   UNL     1      -0.844  12.686  21.321  0.00  0.00    +0.000 A 
ENDBRANCH  22  25
ENDBRANCH   2  19
TORSDOF 4
ENDMDL
MODEL 4
REMARK VINA RESULT:      -9.2      1.845      2.102
REMARK  Name = 
REMARK  7 active torsions:
REMARK  status: ('A' for Active; 'I' for Inactive)
REMARK    1  A    between atoms: C_1  and  C_2
REMARK    2  A    between atoms: C_4  and  C_5
REMARK    3  A    between atoms: C_8  and  C_9
REMARK    4  A    between atoms: C_10  and  N_11
REMARK    5  A    between atoms: C_12  and  C_14
REMARK    6  A    between atoms: N_17  and  C_18
REMARK    7  A    between atoms: C_25  and  C_26
REMARK                            x       y       z     vdW  Elec       q    Type
REMARK                         _______ _______ _______ _____ _____    ______ ____
ROOT
ATOM      1  N   UNL     1       2.169   6.290  20.567  0.00  0.00    +0.000 N 
ATOM      2  C   UNL     1       2.046   7.484  19.873  0.00  0.00    +0.000 C 
ATOM      3  O   UNL     1       2.486   7.707  18.757  0.00  0.00    +0.000 OA
ATOM      4  H   UNL     1       1.892   6.324  21.540  0.00  0.00    +0.000 HD
ENDROOT
BRANCH   1  10
ATOM      5  C   UNL     1       4.685   4.225  18.777  0.00  0.00    +0.000 A 
ATOM      6  C   UNL     1       4.338   2.925  19.150  0.00  0.00    +0.000 A 
ATOM      7  C   UNL     1       3.296   2.706  20.035  0.00  0.00    +0.000 A 
ATOM      8  C   UNL     1       2.552   3.772  20.585  0.00  0.00    +0.000 A 
ATOM      9  C   UNL     1       1.499   3.341  21.569  0.00  0.00    +0.000 C 
ATOM     10  C   UNL     1       2.850   5.094  20.187  0.00  0.00    +0.000 A 
ATOM     11  C   UNL     1       3.941   5.295  19.304  0.00  0.00    +0.000 A 
BRANCH   5  15
ATOM     12  C   UNL     1       7.145   4.763  14.551  0.00  0.00    +0.000 C 
ATOM     13  C   UNL     1       6.784   4.631  15.978  0.00  0.00    +0.000 A 
ATOM     14  N   UNL     1       5.583   4.496  16.488  0.00  0.00    +0.000 NA
ATOM     15  C   UNL     1       5.797   4.405  17.850  0.00  0.00    +0.000 A 
ATOM     16  N   UNL     1       7.094   4.486  18.195  0.00  0.00    +0.000 NA
ATOM     17  N   UNL     1       7.690   4.622  16.994  0.00  0.00    +0.000 N 
ATOM     18  H   UNL     1       8.701   4.697  16.950  0.00  0.00    +0.000 HD
ENDBRANCH   5  15
ENDBRANCH   1  10
BRANCH   2  19
ATOM     19  C   UNL     1       1.413   8.584  20.602  0.00  0.00    +0.000 A 
ATOM     20  C   UNL     1       1.291   8.852  21.976  0.00  0.00    +0.000 A 
ATOM     21  N   UNL     1       0.751  10.043  22.226  0.00  0.00    +0.000 NA
ATOM     22  N   UNL     1       0.389  10.529  21.008  0.00  0.00    +0.000 N 
ATOM     23  C   UNL     1       0.798   9.682  19.990  0.00  0.00    +0.000 A 
ATOM     24  C   UNL     1       0.725   9.982  18.528  0.00  0.00    +0.000 C 
BRANCH  22  25
ATOM     25  C   UNL     1      -0.254  11.793  20.924  0.00  0.00    +0.000 A 
ATOM     26  C   UNL     1      -1.606  11.838  20.548  0.00  0.00    +0.000 A 
ATOM     27  C   UNL     1      -2.291  13.055  20.534  0.00  0.00    +0.000 A 
ATOM     28  C   UNL     1      -1.622  14.235  20.858  0.00  0.00    +0.000 A 
ATOM     29  C   UNL     1      -0.268  14.195  21.184  0.00  0.00    +0.000 A 
ATOM     30 CL   UNL     1       0.562  15.658  21.552  0.00  0.00    +0.000 Cl
ATOM     31  C   UNL     1       0.422  12.982  21.218  0.00  0.00    +0.000 A 
ENDBRANCH  22  25
ENDBRANCH   2  19
TORSDOF 4
ENDMDL
MODEL 5
REMARK VINA RESULT:      -9.1      2.430      3.980
REMARK  Name = 
REMARK  7 active torsions:
REMARK  status: ('A' for Active; 'I' for Inactive)
REMARK    1  A    between atoms: C_1  and  C_2
REMARK    2  A    between atoms: C_4  and  C_5
REMARK    3  A    between atoms: C_8  and  C_9
REMARK    4  A    between atoms: C_10  and  N_11
REMARK    5  A    between atoms: C_12  and  C_14
REMARK    6  A    between atoms: N_17  and  C_18
REMARK    7  A    between atoms: C_25  and  C_26
REMARK                            x       y       z     vdW  Elec       q    Type
REMARK                         _______ _______ _______ _____ _____    ______ ____
ROOT
ATOM      1  N   UNL     1       4.629   6.907  17.787  0.00  0.00    +0.000 N 
ATOM      2  C   UNL     1       3.298   6.652  18.079  0.00  0.00    +0.000 C 
ATOM      3  O   UNL     1       2.744   5.568  17.991  0.00  0.00    +0.000 OA
ATOM      4  H   UNL     1       4.886   7.885  17.756  0.00  0.00    +0.000 HD
ENDROOT
BRANCH   1  10
ATOM      5  C   UNL     1       6.293   4.705  15.300  0.00  0.00    +0.000 A 
ATOM      6  C   UNL     1       7.359   4.171  16.025  0.00  0.00    +0.000 A 
ATOM      7  C   UNL     1       7.577   4.559  17.336  0.00  0.00    +0.000 A 
ATOM      8  C   UNL     1       6.741   5.496  17.982  0.00  0.00    +0.000 A 
ATOM      9  C   UNL     1       7.170   5.836  19.383  0.00  0.00    +0.000 C 
ATOM     10  C   UNL     1       5.627   6.016  17.286  0.00  0.00    +0.000 A 
ATOM     11  C   UNL     1       5.443   5.626  15.935  0.00  0.00    +0.000 A 
BRANCH   5  15
ATOM     12  C   UNL     1       4.088   3.078  11.214  0.00  0.00    +0.000 C 
ATOM     13  C   UNL     1       5.080   3.564  12.196  0.00  0.00    +0.000 A 
ATOM     14  N   UNL     1       4.866   3.906  13.444  0.00  0.00    +0.000 NA
ATOM     15  C   UNL     1       6.110   4.272  13.918  0.00  0.00    +0.000 A 
ATOM     16  N   UNL     1       7.085   4.171  12.998  0.00  0.00    +0.000 NA
ATOM     17  N   UNL     1       6.405   3.718  11.926  0.00  0.00    +0.000 N 
ATOM     18  H   UNL     1       6.908   3.536  11.063  0.00  0.00    +0.000 HD
ENDBRANCH   5  15
ENDBRANCH   1  10
BRANCH   2  19
ATOM     19  C   UNL     1       2.487   7.819  18.431  0.00  0.00    +0.000 A 
ATOM     20  C   UNL     1       2.088   8.943  17.688  0.00  0.00    +0.000 A 
ATOM     21  N   UNL     1       1.231   9.721  18.345  0.00  0.00    +0.000 NA
ATOM     22  N   UNL     1       1.150   9.182  19.591  0.00  0.00    +0.000 N 
ATOM     23  C   UNL     1       1.879   8.007  19.677  0.00  0.00    +0.000 A 
ATOM     24  C   UNL     1       1.874   7.064  20.835  0.00  0.00    +0.000 C 
BRANCH  22  25
ATOM     25  C   UNL     1       0.324   9.803  20.567  0.00  0.00    +0.000 A 
ATOM     26  C   UNL     1       0.311   9.281  21.870  0.00  0.00    +0.000 A 
ATOM     27  C   UNL     1      -0.425   9.914  22.874  0.00  0.00    +0.000 A 
ATOM     28  C   UNL     1      -1.180  11.048  22.574  0.00  0.00    +0.000 A 
ATOM     29  C   UNL     1      -1.204  11.538  21.270  0.00  0.00    +0.000 A 
ATOM     30 CL   UNL     1      -2.162  12.919  20.897  0.00  0.00    +0.000 Cl
ATOM     31  C   UNL     1      -0.458  10.923  20.263  0.00  0.00    +0.000 A 
ENDBRANCH  22  25
ENDBRANCH   2  19
TORSDOF 4
ENDMDL
MODEL 6
REMARK VINA RESULT:      -9.0      3.567     10.551
REMARK  Name = 
REMARK  7 active torsions:
REMARK  status: ('A' for Active; 'I' for Inactive)
REMARK    1  A    between atoms: C_1  and  C_2
REMARK    2  A    between atoms: C_4  and  C_5
REMARK    3  A    between atoms: C_8  and  C_9
REMARK    4  A    between atoms: C_10  and  N_11
REMARK    5  A    between atoms: C_12  and  C_14
REMARK    6  A    between atoms: N_17  and  C_18
REMARK    7  A    between atoms: C_25  and  C_26
REMARK                            x       y       z     vdW  Elec       q    Type
REMARK                         _______ _______ _______ _____ _____    ______ ____
ROOT
ATOM      1  N   UNL     1       0.184  11.116  21.643  0.00  0.00    +0.000 N 
ATOM      2  C   UNL     1       0.205  10.538  20.383  0.00  0.00    +0.000 C 
ATOM      3  O   UNL     1      -0.375  10.959  19.396  0.00  0.00    +0.000 OA
ATOM      4  H   UNL     1       0.582  10.554  22.384  0.00  0.00    +0.000 HD
ENDROOT
BRANCH   1  10
ATOM      5  C   UNL     1      -2.647  13.010  23.125  0.00  0.00    +0.000 A 
ATOM      6  C   UNL     1      -2.240  14.337  22.980  0.00  0.00    +0.000 A 
ATOM      7  C   UNL     1      -1.004  14.633  22.431  0.00  0.00    +0.000 A 
ATOM      8  C   UNL     1      -0.120  13.620  22.000  0.00  0.00    +0.000 A 
ATOM      9  C   UNL     1       1.197  14.133  21.487  0.00  0.00    +0.000 C 
ATOM     10  C   UNL     1      -0.528  12.271  22.091  0.00  0.00    +0.000 A 
ATOM     11  C   UNL     1      -1.785  11.991  22.685  0.00  0.00    +0.000 A 
BRANCH   5  15
ATOM     12  C   UNL     1      -7.464  13.379  24.055  0.00  0.00    +0.000 C 
ATOM     13  C   UNL     1      -6.042  12.974  24.061  0.00  0.00    +0.000 A 
ATOM     14  N   UNL     1      -5.074  13.450  23.316  0.00  0.00    +0.000 NA
ATOM     15  C   UNL     1      -3.954  12.748  23.718  0.00  0.00    +0.000 A 
ATOM     16  N   UNL     1      -4.205  11.849  24.686  0.00  0.00    +0.000 NA
ATOM     17  N   UNL     1      -5.527  12.019  24.883  0.00  0.00    +0.000 N 
ATOM     18  H   UNL     1      -5.998  11.460  25.588  0.00  0.00    +0.000 HD
ENDBRANCH   5  15
ENDBRANCH   1  10
BRANCH   2  19
ATOM     19  C   UNL     1       0.914   9.261  20.278  0.00  0.00    +0.000 A 
ATOM     20  C   UNL     1       1.088   8.207  21.190  0.00  0.00    +0.000 A 
ATOM     21  N   UNL     1       1.695   7.151  20.653  0.00  0.00    +0.000 NA
ATOM     22  N   UNL     1       2.048   7.547  19.401  0.00  0.00    +0.000 N 
ATOM     23  C   UNL     1       1.568   8.817  19.123  0.00  0.00    +0.000 A 
ATOM     24  C   UNL     1       1.616   9.493  17.792  0.00  0.00    +0.000 C 
BRANCH  22  25
ATOM     25  C   UNL     1       2.754   6.647  18.557  0.00  0.00    +0.000 A 
ATOM     26  C   UNL     1       3.894   7.109  17.882  0.00  0.00    +0.000 A 
ATOM     27  C   UNL     1       4.658   6.232  17.110  0.00  0.00    +0.000 A 
ATOM     28  C   UNL     1       4.265   4.900  16.976  0.00  0.00    +0.000 A 
ATOM     29  C   UNL     1       3.107   4.453  17.608  0.00  0.00    +0.000 A 
ATOM     30 CL   UNL     1       2.609   2.816  17.416  0.00  0.00    +0.000 Cl
ATOM     31  C   UNL     1       2.346   5.318  18.397  0.00  0.00    +0.000 A 
ENDBRANCH  22  25
ENDBRANCH   2  19
TORSDOF 4
ENDMDL
MODEL 7
REMARK VINA RESULT:      -9.0      2.662      3.041
REMARK  Name = 
REMARK  7 active torsions:
REMARK  status: ('A' for Active; 'I' for Inactive)
REMARK    1  A    between atoms: C_1  and  C_2
REMARK    2  A    between atoms: C_4  and  C_5
REMARK    3  A    between atoms: C_8  and  C_9
REMARK    4  A    between atoms: C_10  and  N_11
REMARK    5  A    between atoms: C_12  and  C_14
REMARK    6  A    between atoms: N_17  and  C_18
REMARK    7  A    between atoms: C_25  and  C_26
REMARK                            x       y       z     vdW  Elec       q    Type
REMARK                         _______ _______ _______ _____ _____    ______ ____
ROOT
ATOM      1  N   UNL     1       2.823   6.658  20.215  0.00  0.00    +0.000 N 
ATOM      2  C   UNL     1       1.521   6.992  20.558  0.00  0.00    +0.000 C 
ATOM      3  O   UNL     1       0.574   6.223  20.590  0.00  0.00    +0.000 OA
ATOM      4  H   UNL     1       3.450   7.442  20.082  0.00  0.00    +0.000 HD
ENDROOT
BRANCH   1  10
ATOM      5  C   UNL     1       4.792   4.336  18.087  0.00  0.00    +0.000 A 
ATOM      6  C   UNL     1       4.470   3.085  18.616  0.00  0.00    +0.000 A 
ATOM      7  C   UNL     1       3.631   2.985  19.714  0.00  0.00    +0.000 A 
ATOM      8  C   UNL     1       3.075   4.126  20.331  0.00  0.00    +0.000 A 
ATOM      9  C   UNL     1       2.238   3.822  21.542  0.00  0.00    +0.000 C 
ATOM     10  C   UNL     1       3.347   5.401  19.786  0.00  0.00    +0.000 A 
ATOM     11  C   UNL     1       4.232   5.480  18.681  0.00  0.00    +0.000 A 
BRANCH   5  15
ATOM     12  C   UNL     1       6.400   3.957  13.453  0.00  0.00    +0.000 C 
ATOM     13  C   UNL     1       6.302   4.197  14.909  0.00  0.00    +0.000 A 
ATOM     14  N   UNL     1       5.246   4.052  15.672  0.00  0.00    +0.000 NA
ATOM     15  C   UNL     1       5.687   4.391  16.937  0.00  0.00    +0.000 A 
ATOM     16  N   UNL     1       6.983   4.745  16.974  0.00  0.00    +0.000 NA
ATOM     17  N   UNL     1       7.343   4.608  15.683  0.00  0.00    +0.000 N 
ATOM     18  H   UNL     1       8.302   4.806  15.413  0.00  0.00    +0.000 HD
ENDBRANCH   5  15
ENDBRANCH   1  10
BRANCH   2  19
ATOM     19  C   UNL     1       1.270   8.412  20.809  0.00  0.00    +0.000 A 
ATOM     20  C   UNL     1       1.196   9.156  21.999  0.00  0.00    +0.000 A 
ATOM     21  N   UNL     1       1.082  10.465  21.785  0.00  0.00    +0.000 NA
ATOM     22  N   UNL     1       0.949  10.592  20.437  0.00  0.00    +0.000 N 
ATOM     23  C   UNL     1       1.085   9.368  19.803  0.00  0.00    +0.000 A 
ATOM     24  C   UNL     1       1.171   9.158  18.327  0.00  0.00    +0.000 C 
BRANCH  22  25
ATOM     25  C   UNL     1       0.775  11.884  19.872  0.00  0.00    +0.000 A 
ATOM     26  C   UNL     1      -0.501  12.469  19.908  0.00  0.00    +0.000 A 
ATOM     27  C   UNL     1      -0.692  13.769  19.436  0.00  0.00    +0.000 A 
ATOM     28  C   UNL     1       0.379  14.476  18.891  0.00  0.00    +0.000 A 
ATOM     29  C   UNL     1       1.635  13.877  18.812  0.00  0.00    +0.000 A 
ATOM     30 CL   UNL     1       2.948  14.743  18.110  0.00  0.00    +0.000 Cl
ATOM     31  C   UNL     1       1.841  12.585  19.297  0.00  0.00    +0.000 A 
ENDBRANCH  22  25
ENDBRANCH   2  19
TORSDOF 4
ENDMDL
MODEL 8
REMARK VINA RESULT:      -8.8      3.772     10.616
REMARK  Name = 
REMARK  7 active torsions:
REMARK  status: ('A' for Active; 'I' for Inactive)
REMARK    1  A    between atoms: C_1  and  C_2
REMARK    2  A    between atoms: C_4  and  C_5
REMARK    3  A    between atoms: C_8  and  C_9
REMARK    4  A    between atoms: C_10  and  N_11
REMARK    5  A    between atoms: C_12  and  C_14
REMARK    6  A    between atoms: N_17  and  C_18
REMARK    7  A    between atoms: C_25  and  C_26
REMARK                            x       y       z     vdW  Elec       q    Type
REMARK                         _______ _______ _______ _____ _____    ______ ____
ROOT
ATOM      1  N   UNL     1      -0.349  11.497  19.736  0.00  0.00    +0.000 N 
ATOM      2  C   UNL     1       0.705  10.741  20.226  0.00  0.00    +0.000 C 
ATOM      3  O   UNL     1       1.219  10.864  21.326  0.00  0.00    +0.000 OA
ATOM      4  H   UNL     1      -0.546  11.378  18.751  0.00  0.00    +0.000 HD
ENDROOT
BRANCH   1  10
ATOM      5  C   UNL     1      -2.829  13.152  21.952  0.00  0.00    +0.000 A 
ATOM      6  C   UNL     1      -2.650  14.504  21.659  0.00  0.00    +0.000 A 
ATOM      7  C   UNL     1      -1.678  14.902  20.757  0.00  0.00    +0.000 A 
ATOM      8  C   UNL     1      -0.842  13.969  20.106  0.00  0.00    +0.000 A 
ATOM      9  C   UNL     1       0.190  14.592  19.208  0.00  0.00    +0.000 C 
ATOM     10  C   UNL     1      -1.034  12.591  20.349  0.00  0.00    +0.000 A 
ATOM     11  C   UNL     1      -2.015  12.210  21.299  0.00  0.00    +0.000 A 
BRANCH   5  15
ATOM     12  C   UNL     1      -7.191  12.968  24.220  0.00  0.00    +0.000 C 
ATOM     13  C   UNL     1      -5.778  12.762  23.838  0.00  0.00    +0.000 A 
ATOM     14  N   UNL     1      -5.145  13.280  22.813  0.00  0.00    +0.000 NA
ATOM     15  C   UNL     1      -3.860  12.783  22.916  0.00  0.00    +0.000 A 
ATOM     16  N   UNL     1      -3.684  11.970  23.973  0.00  0.00    +0.000 NA
ATOM     17  N   UNL     1      -4.908  11.981  24.535  0.00  0.00    +0.000 N 
ATOM     18  H   UNL     1      -5.068  11.444  25.382  0.00  0.00    +0.000 HD
ENDBRANCH   5  15
ENDBRANCH   1  10
BRANCH   2  19
ATOM     19  C   UNL     1       1.294   9.784  19.289  0.00  0.00    +0.000 A 
ATOM     20  C   UNL     1       1.748   9.923  17.966  0.00  0.00    +0.000 A 
ATOM     21  N   UNL     1       2.347   8.827  17.505  0.00  0.00    +0.000 NA
ATOM     22  N   UNL     1       2.182   7.898  18.484  0.00  0.00    +0.000 N 
ATOM     23  C   UNL     1       1.569   8.447  19.598  0.00  0.00    +0.000 A 
ATOM     24  C   UNL     1       1.391   7.766  20.916  0.00  0.00    +0.000 C 
BRANCH  22  25
ATOM     25  C   UNL     1       2.690   6.584  18.291  0.00  0.00    +0.000 A 
ATOM     26  C   UNL     1       1.781   5.533  18.088  0.00  0.00    +0.000 A 
ATOM     27  C   UNL     1       2.246   4.246  17.815  0.00  0.00    +0.000 A 
ATOM     28  C   UNL     1       3.618   3.993  17.780  0.00  0.00    +0.000 A 
ATOM     29  C   UNL     1       4.518   5.027  18.028  0.00  0.00    +0.000 A 
ATOM     30 CL   UNL     1       6.209   4.704  18.015  0.00  0.00    +0.000 Cl
ATOM     31  C   UNL     1       4.064   6.321  18.285  0.00  0.00    +0.000 A 
ENDBRANCH  22  25
ENDBRANCH   2  19
TORSDOF 4
ENDMDL
MODEL 9
REMARK VINA RESULT:      -8.8      1.529      1.935
REMARK  Name = 
REMARK  7 active torsions:
REMARK  status: ('A' for Active; 'I' for Inactive)
REMARK    1  A    between atoms: C_1  and  C_2
REMARK    2  A    between atoms: C_4  and  C_5
REMARK    3  A    between atoms: C_8  and  C_9
REMARK    4  A    between atoms: C_10  and  N_11
REMARK    5  A    between atoms: C_12  and  C_14
REMARK    6  A    between atoms: N_17  and  C_18
REMARK    7  A    between atoms: C_25  and  C_26
REMARK                            x       y       z     vdW  Elec       q    Type
REMARK                         _______ _______ _______ _____ _____    ______ ____
ROOT
ATOM      1  N   UNL     1       2.334   7.873  19.206  0.00  0.00    +0.000 N 
ATOM      2  C   UNL     1       1.575   8.748  18.443  0.00  0.00    +0.000 C 
ATOM      3  O   UNL     1       1.153   8.531  17.319  0.00  0.00    +0.000 OA
ATOM      4  H   UNL     1       2.737   8.269  20.046  0.00  0.00    +0.000 HD
ENDROOT
BRANCH   1  10
ATOM      5  C   UNL     1       4.388   5.389  17.360  0.00  0.00    +0.000 A 
ATOM      6  C   UNL     1       3.939   4.173  17.876  0.00  0.00    +0.000 A 
ATOM      7  C   UNL     1       2.980   4.149  18.875  0.00  0.00    +0.000 A 
ATOM      8  C   UNL     1       2.426   5.335  19.402  0.00  0.00    +0.000 A 
ATOM      9  C   UNL     1       1.445   5.110  20.519  0.00  0.00    +0.000 C 
ATOM     10  C   UNL     1       2.829   6.578  18.865  0.00  0.00    +0.000 A 
ATOM     11  C   UNL     1       3.834   6.578  17.863  0.00  0.00    +0.000 A 
BRANCH   5  15
ATOM     12  C   UNL     1       6.767   4.112  13.247  0.00  0.00    +0.000 C 
ATOM     13  C   UNL     1       6.372   4.752  14.520  0.00  0.00    +0.000 A 
ATOM     14  N   UNL     1       5.289   4.524  15.225  0.00  0.00    +0.000 NA
ATOM     15  C   UNL     1       5.406   5.364  16.315  0.00  0.00    +0.000 A 
ATOM     16  N   UNL     1       6.527   6.107  16.300  0.00  0.00    +0.000 NA
ATOM     17  N   UNL     1       7.115   5.695  15.160  0.00  0.00    +0.000 N 
ATOM     18  H   UNL     1       8.010   6.093  14.894  0.00  0.00    +0.000 HD
ENDBRANCH   5  15
ENDBRANCH   1  10
BRANCH   2  19
ATOM     19  C   UNL     1       1.355  10.075  19.022  0.00  0.00    +0.000 A 
ATOM     20  C   UNL     1       1.744  11.358  18.601  0.00  0.00    +0.000 A 
ATOM     21  N   UNL     1       1.223  12.328  19.349  0.00  0.00    +0.000 NA
ATOM     22  N   UNL     1       0.578  11.687  20.360  0.00  0.00    +0.000 N 
ATOM     23  C   UNL     1       0.613  10.313  20.184  0.00  0.00    +0.000 A 
ATOM     24  C   UNL     1      -0.137   9.313  21.001  0.00  0.00    +0.000 C 
BRANCH  22  25
ATOM     25  C   UNL     1      -0.072  12.449  21.367  0.00  0.00    +0.000 A 
ATOM     26  C   UNL     1       0.428  13.724  21.676  0.00  0.00    +0.000 A 
ATOM     27  C   UNL     1      -0.234  14.534  22.602  0.00  0.00    +0.000 A 
ATOM     28  C   UNL     1      -1.375  14.060  23.251  0.00  0.00    +0.000 A 
ATOM     29  C   UNL     1      -1.843  12.777  22.978  0.00  0.00    +0.000 A 
ATOM     30 CL   UNL     1      -3.233  12.185  23.804  0.00  0.00    +0.000 Cl
ATOM     31  C   UNL     1      -1.199  11.966  22.042  0.00  0.00    +0.000 A 
ENDBRANCH  22  25
ENDBRANCH   2  19
TORSDOF 4
ENDMDL
