MODEL 1
REMARK VINA RESULT:      -8.0      0.000      0.000
REMARK  Name = 
REMARK  8 active torsions:
REMARK  status: ('A' for Active; 'I' for Inactive)
REMARK    1  A    between atoms: C_1  and  N_2
REMARK    2  A    between atoms: C_6  and  C_7
REMARK    3  A    between atoms: C_7  and  C_8
REMARK    4  A    between atoms: C_8  and  C_9
REMARK    5  A    between atoms: C_13  and  N_14
REMARK    6  A    between atoms: N_14  and  C_15
REMARK    7  A    between atoms: C_15  and  C_16
REMARK    8  A    between atoms: C_20  and  C_22
REMARK                            x       y       z     vdW  Elec       q    Type
REMARK                         _______ _______ _______ _____ _____    ______ ____
ROOT
ATOM      1  C   UNL     1       3.679   5.666  19.220  0.00  0.00    +0.000 A 
ATOM      2  C   UNL     1       3.059   4.659  19.981  0.00  0.00    +0.000 A 
ATOM      3  C   UNL     1       1.894   4.904  20.715  0.00  0.00    +0.000 A 
ATOM      4  C   UNL     1       1.323   6.182  20.730  0.00  0.00    +0.000 A 
ATOM      5  C   UNL     1       1.912   7.216  20.010  0.00  0.00    +0.000 A 
ATOM      6  C   UNL     1       3.054   6.934  19.240  0.00  0.00    +0.000 A 
ENDROOT
BRANCH   1   7
ATOM      7  C   UNL     1       5.058   5.432  18.430  0.00  0.00    +0.000 C 
ATOM      8  C   UNL     1       6.380   5.742  19.189  0.00  0.00    +0.000 C 
ATOM      9  O   UNL     1       6.878   4.405  18.997  0.00  0.00    +0.000 OA
ATOM     10  C   UNL     1       5.632   3.987  18.398  0.00  0.00    +0.000 C 
BRANCH   7  11
ATOM     11  C   UNL     1       5.022   6.171  17.077  0.00  0.00    +0.000 C 
BRANCH  11  17
ATOM     12  C   UNL     1       4.580   3.977  14.805  0.00  0.00    +0.000 C 
ATOM     13  N   UNL     1       5.752   4.775  15.049  0.00  0.00    +0.000 N 
ATOM     14  C   UNL     1       6.868   4.772  14.266  0.00  0.00    +0.000 A 
ATOM     15  N   UNL     1       7.769   5.572  14.781  0.00  0.00    +0.000 NA
ATOM     16  N   UNL     1       7.223   6.140  15.905  0.00  0.00    +0.000 NA
ATOM     17  C   UNL     1       5.993   5.683  16.053  0.00  0.00    +0.000 A 
ENDBRANCH  11  17
ENDBRANCH   7  11
ENDBRANCH   1   7
BRANCH   5  18
ATOM     18  N   UNL     1       1.377   8.545  20.040  0.00  0.00    +0.000 N 
ATOM     19  C   UNL     1       1.318   9.248  18.800  0.00  0.00    +0.000 C 
ATOM     20  O   UNL     1       1.482   8.685  17.716  0.00  0.00    +0.000 OA
BRANCH  19  21
ATOM     21  C   UNL     1       0.953  10.697  18.719  0.00  0.00    +0.000 A 
ATOM     22  C   UNL     1       1.861  11.756  18.604  0.00  0.00    +0.000 A 
ATOM     23  C   UNL     1       1.412  13.082  18.537  0.00  0.00    +0.000 A 
ATOM     24  C   UNL     1       0.048  13.362  18.498  0.00  0.00    +0.000 A 
ATOM     25  C   UNL     1      -0.867  12.313  18.525  0.00  0.00    +0.000 A 
ATOM     26  C   UNL     1      -0.421  10.997  18.644  0.00  0.00    +0.000 A 
ENDBRANCH  19  21
BRANCH  18  27
ATOM     27  C   UNL     1       1.255   9.238  21.340  0.00  0.00    +0.000 C 
BRANCH  27  28
ATOM     28  C   UNL     1       0.003   9.338  22.222  0.00  0.00    +0.000 C 
ATOM     29  F   UNL     1      -0.873   8.325  22.116  0.00  0.00    +0.000 F 
ATOM     30  F   UNL     1       0.398   9.342  23.527  0.00  0.00    +0.000 F 
ATOM     31  F   UNL     1      -0.657  10.498  22.017  0.00  0.00    +0.000 F 
ENDBRANCH  27  28
ENDBRANCH  18  27
ENDBRANCH   5  18
TORSDOF 7
ENDMDL
MODEL 2
REMARK VINA RESULT:      -7.6      2.152      2.889
REMARK  Name = 
REMARK  8 active torsions:
REMARK  status: ('A' for Active; 'I' for Inactive)
REMARK    1  A    between atoms: C_1  and  N_2
REMARK    2  A    between atoms: C_6  and  C_7
REMARK    3  A    between atoms: C_7  and  C_8
REMARK    4  A    between atoms: C_8  and  C_9
REMARK    5  A    between atoms: C_13  and  N_14
REMARK    6  A    between atoms: N_14  and  C_15
REMARK    7  A    between atoms: C_15  and  C_16
REMARK    8  A    between atoms: C_20  and  C_22
REMARK                            x       y       z     vdW  Elec       q    Type
REMARK                         _______ _______ _______ _____ _____    ______ ____
ROOT
ATOM      1  C   UNL     1       3.375   5.634  19.056  0.00  0.00    +0.000 A 
ATOM      2  C   UNL     1       3.073   4.769  20.124  0.00  0.00    +0.000 A 
ATOM      3  C   UNL     1       2.187   5.138  21.141  0.00  0.00    +0.000 A 
ATOM      4  C   UNL     1       1.590   6.405  21.135  0.00  0.00    +0.000 A 
ATOM      5  C   UNL     1       1.876   7.304  20.112  0.00  0.00    +0.000 A 
ATOM      6  C   UNL     1       2.730   6.892  19.074  0.00  0.00    +0.000 A 
ENDROOT
BRANCH   1   7
ATOM      7  C   UNL     1       4.446   5.265  17.917  0.00  0.00    +0.000 C 
ATOM      8  C   UNL     1       5.137   6.444  17.175  0.00  0.00    +0.000 C 
ATOM      9  O   UNL     1       6.452   5.990  17.547  0.00  0.00    +0.000 OA
ATOM     10  C   UNL     1       5.897   4.942  18.371  0.00  0.00    +0.000 C 
BRANCH   7  11
ATOM     11  C   UNL     1       3.822   4.279  16.909  0.00  0.00    +0.000 C 
BRANCH  11  17
ATOM     12  C   UNL     1       3.827   1.449  18.380  0.00  0.00    +0.000 C 
ATOM     13  N   UNL     1       2.701   2.299  18.099  0.00  0.00    +0.000 N 
ATOM     14  C   UNL     1       1.423   2.052  18.508  0.00  0.00    +0.000 A 
ATOM     15  N   UNL     1       0.628   2.989  18.056  0.00  0.00    +0.000 NA
ATOM     16  N   UNL     1       1.401   3.891  17.367  0.00  0.00    +0.000 NA
ATOM     17  C   UNL     1       2.658   3.492  17.418  0.00  0.00    +0.000 A 
ENDBRANCH  11  17
ENDBRANCH   7  11
ENDBRANCH   1   7
BRANCH   5  18
ATOM     18  N   UNL     1       1.316   8.623  20.101  0.00  0.00    +0.000 N 
ATOM     19  C   UNL     1       1.258   9.290  18.842  0.00  0.00    +0.000 C 
ATOM     20  O   UNL     1       1.443   8.702  17.776  0.00  0.00    +0.000 OA
BRANCH  19  21
ATOM     21  C   UNL     1       0.867  10.730  18.719  0.00  0.00    +0.000 A 
ATOM     22  C   UNL     1       1.758  11.807  18.630  0.00  0.00    +0.000 A 
ATOM     23  C   UNL     1       1.285  13.122  18.519  0.00  0.00    +0.000 A 
ATOM     24  C   UNL     1      -0.081  13.371  18.408  0.00  0.00    +0.000 A 
ATOM     25  C   UNL     1      -0.974  12.303  18.408  0.00  0.00    +0.000 A 
ATOM     26  C   UNL     1      -0.507  10.999  18.571  0.00  0.00    +0.000 A 
ENDBRANCH  19  21
BRANCH  18  27
ATOM     27  C   UNL     1       1.168   9.347  21.381  0.00  0.00    +0.000 C 
BRANCH  27  28
ATOM     28  C   UNL     1      -0.114   9.514  22.207  0.00  0.00    +0.000 C 
ATOM     29  F   UNL     1      -0.915  10.532  21.851  0.00  0.00    +0.000 F 
ATOM     30  F   UNL     1      -0.869   8.388  22.057  0.00  0.00    +0.000 F 
ATOM     31  F   UNL     1       0.155   9.622  23.526  0.00  0.00    +0.000 F 
ENDBRANCH  27  28
ENDBRANCH  18  27
ENDBRANCH   5  18
TORSDOF 7
ENDMDL
MODEL 3
REMARK VINA RESULT:      -7.5      2.834      4.157
REMARK  Name = 
REMARK  8 active torsions:
REMARK  status: ('A' for Active; 'I' for Inactive)
REMARK    1  A    between atoms: C_1  and  N_2
REMARK    2  A    between atoms: C_6  and  C_7
REMARK    3  A    between atoms: C_7  and  C_8
REMARK    4  A    between atoms: C_8  and  C_9
REMARK    5  A    between atoms: C_13  and  N_14
REMARK    6  A    between atoms: N_14  and  C_15
REMARK    7  A    between atoms: C_15  and  C_16
REMARK    8  A    between atoms: C_20  and  C_22
REMARK                            x       y       z     vdW  Elec       q    Type
REMARK                         _______ _______ _______ _____ _____    ______ ____
ROOT
ATOM      1  C   UNL     1       2.054   7.399  19.438  0.00  0.00    +0.000 A 
ATOM      2  C   UNL     1       1.697   7.098  20.766  0.00  0.00    +0.000 A 
ATOM      3  C   UNL     1       1.000   8.009  21.565  0.00  0.00    +0.000 A 
ATOM      4  C   UNL     1       0.658   9.272  21.065  0.00  0.00    +0.000 A 
ATOM      5  C   UNL     1       1.009   9.624  19.766  0.00  0.00    +0.000 A 
ATOM      6  C   UNL     1       1.665   8.673  18.965  0.00  0.00    +0.000 A 
ENDROOT
BRANCH   1   7
ATOM      7  C   UNL     1       2.919   6.401  18.524  0.00  0.00    +0.000 C 
ATOM      8  C   UNL     1       3.874   7.037  17.475  0.00  0.00    +0.000 C 
ATOM      9  O   UNL     1       5.027   6.374  18.030  0.00  0.00    +0.000 OA
ATOM     10  C   UNL     1       4.242   5.844  19.121  0.00  0.00    +0.000 C 
BRANCH   7  11
ATOM     11  C   UNL     1       1.993   5.363  17.858  0.00  0.00    +0.000 C 
BRANCH  11  17
ATOM     12  C   UNL     1       1.032   3.540  20.292  0.00  0.00    +0.000 C 
ATOM     13  N   UNL     1       1.847   3.160  19.169  0.00  0.00    +0.000 N 
ATOM     14  C   UNL     1       2.282   1.891  18.923  0.00  0.00    +0.000 A 
ATOM     15  N   UNL     1       3.034   1.885  17.850  0.00  0.00    +0.000 NA
ATOM     16  N   UNL     1       3.066   3.167  17.360  0.00  0.00    +0.000 NA
ATOM     17  C   UNL     1       2.325   3.934  18.138  0.00  0.00    +0.000 A 
ENDBRANCH  11  17
ENDBRANCH   7  11
ENDBRANCH   1   7
BRANCH   5  18
ATOM     18  N   UNL     1       0.712  10.924  19.240  0.00  0.00    +0.000 N 
ATOM     19  C   UNL     1       1.042  12.044  20.058  0.00  0.00    +0.000 C 
ATOM     20  O   UNL     1       1.762  11.944  21.053  0.00  0.00    +0.000 OA
BRANCH  19  21
ATOM     21  C   UNL     1       0.624  13.439  19.710  0.00  0.00    +0.000 A 
ATOM     22  C   UNL     1      -0.575  14.047  20.102  0.00  0.00    +0.000 A 
ATOM     23  C   UNL     1      -0.871  15.362  19.718  0.00  0.00    +0.000 A 
ATOM     24  C   UNL     1       0.062  16.116  19.012  0.00  0.00    +0.000 A 
ATOM     25  C   UNL     1       1.295  15.553  18.689  0.00  0.00    +0.000 A 
ATOM     26  C   UNL     1       1.568  14.228  19.026  0.00  0.00    +0.000 A 
ENDBRANCH  19  21
BRANCH  18  27
ATOM     27  C   UNL     1      -0.212  11.036  18.092  0.00  0.00    +0.000 C 
BRANCH  27  28
ATOM     28  C   UNL     1      -1.746  11.010  18.132  0.00  0.00    +0.000 C 
ATOM     29  F   UNL     1      -2.325   9.871  17.716  0.00  0.00    +0.000 F 
ATOM     30  F   UNL     1      -2.142  11.166  19.427  0.00  0.00    +0.000 F 
ATOM     31  F   UNL     1      -2.279  12.040  17.440  0.00  0.00    +0.000 F 
ENDBRANCH  27  28
ENDBRANCH  18  27
ENDBRANCH   5  18
TORSDOF 7
ENDMDL
MODEL 4
REMARK VINA RESULT:      -7.4      3.290      4.616
REMARK  Name = 
REMARK  8 active torsions:
REMARK  status: ('A' for Active; 'I' for Inactive)
REMARK    1  A    between atoms: C_1  and  N_2
REMARK    2  A    between atoms: C_6  and  C_7
REMARK    3  A    between atoms: C_7  and  C_8
REMARK    4  A    between atoms: C_8  and  C_9
REMARK    5  A    between atoms: C_13  and  N_14
REMARK    6  A    between atoms: N_14  and  C_15
REMARK    7  A    between atoms: C_15  and  C_16
REMARK    8  A    between atoms: C_20  and  C_22
REMARK                            x       y       z     vdW  Elec       q    Type
REMARK                         _______ _______ _______ _____ _____    ______ ____
ROOT
ATOM      1  C   UNL     1       2.196   7.636  18.942  0.00  0.00    +0.000 A 
ATOM      2  C   UNL     1       2.599   8.302  17.770  0.00  0.00    +0.000 A 
ATOM      3  C   UNL     1       2.299   9.649  17.550  0.00  0.00    +0.000 A 
ATOM      4  C   UNL     1       1.558  10.373  18.492  0.00  0.00    +0.000 A 
ATOM      5  C   UNL     1       1.118   9.752  19.657  0.00  0.00    +0.000 A 
ATOM      6  C   UNL     1       1.475   8.410  19.880  0.00  0.00    +0.000 A 
ENDROOT
BRANCH   1   7
ATOM      7  C   UNL     1       2.462   6.071  19.186  0.00  0.00    +0.000 C 
ATOM      8  C   UNL     1       2.678   5.177  17.931  0.00  0.00    +0.000 C 
ATOM      9  O   UNL     1       3.968   4.732  18.392  0.00  0.00    +0.000 OA
ATOM     10  C   UNL     1       3.916   5.631  19.521  0.00  0.00    +0.000 C 
BRANCH   7  11
ATOM     11  C   UNL     1       1.358   5.484  20.088  0.00  0.00    +0.000 C 
BRANCH  11  17
ATOM     12  C   UNL     1       0.692   2.570  18.974  0.00  0.00    +0.000 C 
ATOM     13  N   UNL     1       1.417   2.918  20.168  0.00  0.00    +0.000 N 
ATOM     14  C   UNL     1       2.024   2.019  20.994  0.00  0.00    +0.000 A 
ATOM     15  N   UNL     1       2.559   2.648  22.010  0.00  0.00    +0.000 NA
ATOM     16  N   UNL     1       2.333   3.990  21.832  0.00  0.00    +0.000 NA
ATOM     17  C   UNL     1       1.669   4.158  20.703  0.00  0.00    +0.000 A 
ENDBRANCH  11  17
ENDBRANCH   7  11
ENDBRANCH   1   7
BRANCH   5  18
ATOM     18  N   UNL     1       0.321  10.452  20.620  0.00  0.00    +0.000 N 
ATOM     19  C   UNL     1      -0.399  11.593  20.158  0.00  0.00    +0.000 C 
ATOM     20  O   UNL     1      -0.542  11.840  18.959  0.00  0.00    +0.000 OA
BRANCH  19  21
ATOM     21  C   UNL     1      -1.121  12.514  21.091  0.00  0.00    +0.000 A 
ATOM     22  C   UNL     1      -0.514  13.462  21.924  0.00  0.00    +0.000 A 
ATOM     23  C   UNL     1      -1.285  14.277  22.765  0.00  0.00    +0.000 A 
ATOM     24  C   UNL     1      -2.675  14.216  22.721  0.00  0.00    +0.000 A 
ATOM     25  C   UNL     1      -3.295  13.338  21.835  0.00  0.00    +0.000 A 
ATOM     26  C   UNL     1      -2.528  12.491  21.037  0.00  0.00    +0.000 A 
ENDBRANCH  19  21
BRANCH  18  27
ATOM     27  C   UNL     1       0.554  10.201  22.058  0.00  0.00    +0.000 C 
BRANCH  27  28
ATOM     28  C   UNL     1      -0.407   9.530  23.048  0.00  0.00    +0.000 C 
ATOM     29  F   UNL     1      -0.970   8.383  22.633  0.00  0.00    +0.000 F 
ATOM     30  F   UNL     1       0.293   9.206  24.172  0.00  0.00    +0.000 F 
ATOM     31  F   UNL     1      -1.388  10.373  23.437  0.00  0.00    +0.000 F 
ENDBRANCH  27  28
ENDBRANCH  18  27
ENDBRANCH   5  18
TORSDOF 7
ENDMDL
MODEL 5
REMARK VINA RESULT:      -7.4      3.410      8.927
REMARK  Name = 
REMARK  8 active torsions:
REMARK  status: ('A' for Active; 'I' for Inactive)
REMARK    1  A    between atoms: C_1  and  N_2
REMARK    2  A    between atoms: C_6  and  C_7
REMARK    3  A    between atoms: C_7  and  C_8
REMARK    4  A    between atoms: C_8  and  C_9
REMARK    5  A    between atoms: C_13  and  N_14
REMARK    6  A    between atoms: N_14  and  C_15
REMARK    7  A    between atoms: C_15  and  C_16
REMARK    8  A    between atoms: C_20  and  C_22
REMARK                            x       y       z     vdW  Elec       q    Type
REMARK                         _______ _______ _______ _____ _____    ______ ____
ROOT
ATOM      1  C   UNL     1      -1.580  11.351  17.929  0.00  0.00    +0.000 A 
ATOM      2  C   UNL     1      -1.207  12.658  18.291  0.00  0.00    +0.000 A 
ATOM      3  C   UNL     1      -0.021  12.920  18.984  0.00  0.00    +0.000 A 
ATOM      4  C   UNL     1       0.823  11.869  19.363  0.00  0.00    +0.000 A 
ATOM      5  C   UNL     1       0.487  10.557  19.048  0.00  0.00    +0.000 A 
ATOM      6  C   UNL     1      -0.685  10.323  18.306  0.00  0.00    +0.000 A 
ENDROOT
BRANCH   1   7
ATOM      7  C   UNL     1      -2.971  11.016  17.199  0.00  0.00    +0.000 C 
ATOM      8  C   UNL     1      -2.941  10.810  15.658  0.00  0.00    +0.000 C 
ATOM      9  O   UNL     1      -3.503   9.488  15.760  0.00  0.00    +0.000 OA
ATOM     10  C   UNL     1      -3.447   9.535  17.202  0.00  0.00    +0.000 C 
BRANCH   7  11
ATOM     11  C   UNL     1      -4.034  12.064  17.587  0.00  0.00    +0.000 C 
BRANCH  11  17
ATOM     12  C   UNL     1      -4.522  12.754  20.663  0.00  0.00    +0.000 C 
ATOM     13  N   UNL     1      -5.332  11.937  19.800  0.00  0.00    +0.000 N 
ATOM     14  C   UNL     1      -6.522  11.376  20.157  0.00  0.00    +0.000 A 
ATOM     15  N   UNL     1      -6.987  10.659  19.164  0.00  0.00    +0.000 NA
ATOM     16  N   UNL     1      -6.103  10.778  18.120  0.00  0.00    +0.000 NA
ATOM     17  C   UNL     1      -5.118  11.574  18.491  0.00  0.00    +0.000 A 
ENDBRANCH  11  17
ENDBRANCH   7  11
ENDBRANCH   1   7
BRANCH   5  18
ATOM     18  N   UNL     1       1.307   9.457  19.459  0.00  0.00    +0.000 N 
ATOM     19  C   UNL     1       1.910   8.677  18.428  0.00  0.00    +0.000 C 
ATOM     20  O   UNL     1       1.941   9.050  17.254  0.00  0.00    +0.000 OA
BRANCH  19  21
ATOM     21  C   UNL     1       2.638   7.401  18.713  0.00  0.00    +0.000 A 
ATOM     22  C   UNL     1       2.346   6.518  19.761  0.00  0.00    +0.000 A 
ATOM     23  C   UNL     1       3.095   5.347  19.940  0.00  0.00    +0.000 A 
ATOM     24  C   UNL     1       4.085   4.998  19.026  0.00  0.00    +0.000 A 
ATOM     25  C   UNL     1       4.328   5.822  17.930  0.00  0.00    +0.000 A 
ATOM     26  C   UNL     1       3.620   7.014  17.781  0.00  0.00    +0.000 A 
ENDBRANCH  19  21
BRANCH  18  27
ATOM     27  C   UNL     1       1.207   8.971  20.852  0.00  0.00    +0.000 C 
BRANCH  27  28
ATOM     28  C   UNL     1      -0.042   8.970  21.743  0.00  0.00    +0.000 C 
ATOM     29  F   UNL     1      -0.897   7.950  21.556  0.00  0.00    +0.000 F 
ATOM     30  F   UNL     1       0.360   8.873  23.042  0.00  0.00    +0.000 F 
ATOM     31  F   UNL     1      -0.728  10.129  21.639  0.00  0.00    +0.000 F 
ENDBRANCH  27  28
ENDBRANCH  18  27
ENDBRANCH   5  18
TORSDOF 7
ENDMDL
MODEL 6
REMARK VINA RESULT:      -7.4      2.826      4.058
REMARK  Name = 
REMARK  8 active torsions:
REMARK  status: ('A' for Active; 'I' for Inactive)
REMARK    1  A    between atoms: C_1  and  N_2
REMARK    2  A    between atoms: C_6  and  C_7
REMARK    3  A    between atoms: C_7  and  C_8
REMARK    4  A    between atoms: C_8  and  C_9
REMARK    5  A    between atoms: C_13  and  N_14
REMARK    6  A    between atoms: N_14  and  C_15
REMARK    7  A    between atoms: C_15  and  C_16
REMARK    8  A    between atoms: C_20  and  C_22
REMARK                            x       y       z     vdW  Elec       q    Type
REMARK                         _______ _______ _______ _____ _____    ______ ____
ROOT
ATOM      1  C   UNL     1       2.162   7.230  19.434  0.00  0.00    +0.000 A 
ATOM      2  C   UNL     1       1.736   6.885  20.731  0.00  0.00    +0.000 A 
ATOM      3  C   UNL     1       0.990   7.767  21.518  0.00  0.00    +0.000 A 
ATOM      4  C   UNL     1       0.665   9.042  21.040  0.00  0.00    +0.000 A 
ATOM      5  C   UNL     1       1.083   9.437  19.773  0.00  0.00    +0.000 A 
ATOM      6  C   UNL     1       1.788   8.515  18.979  0.00  0.00    +0.000 A 
ENDROOT
BRANCH   1   7
ATOM      7  C   UNL     1       3.083   6.266  18.539  0.00  0.00    +0.000 C 
ATOM      8  C   UNL     1       4.061   6.940  17.534  0.00  0.00    +0.000 C 
ATOM      9  O   UNL     1       5.208   6.296  18.121  0.00  0.00    +0.000 OA
ATOM     10  C   UNL     1       4.398   5.732  19.175  0.00  0.00    +0.000 C 
BRANCH   7  11
ATOM     11  C   UNL     1       2.208   5.217  17.824  0.00  0.00    +0.000 C 
BRANCH  11  17
ATOM     12  C   UNL     1       1.178   3.448  20.270  0.00  0.00    +0.000 C 
ATOM     13  N   UNL     1       2.018   3.041  19.175  0.00  0.00    +0.000 N 
ATOM     14  C   UNL     1       2.454   1.767  18.965  0.00  0.00    +0.000 A 
ATOM     15  N   UNL     1       3.233   1.736  17.913  0.00  0.00    +0.000 NA
ATOM     16  N   UNL     1       3.283   3.007  17.398  0.00  0.00    +0.000 NA
ATOM     17  C   UNL     1       2.526   3.792  18.141  0.00  0.00    +0.000 A 
ENDBRANCH  11  17
ENDBRANCH   7  11
ENDBRANCH   1   7
BRANCH   5  18
ATOM     18  N   UNL     1       0.804  10.750  19.271  0.00  0.00    +0.000 N 
ATOM     19  C   UNL     1       0.983  11.839  20.174  0.00  0.00    +0.000 C 
ATOM     20  O   UNL     1       1.574  11.715  21.248  0.00  0.00    +0.000 OA
BRANCH  19  21
ATOM     21  C   UNL     1       0.557  13.234  19.838  0.00  0.00    +0.000 A 
ATOM     22  C   UNL     1       1.213  14.089  18.943  0.00  0.00    +0.000 A 
ATOM     23  C   UNL     1       0.729  15.382  18.700  0.00  0.00    +0.000 A 
ATOM     24  C   UNL     1      -0.463  15.807  19.280  0.00  0.00    +0.000 A 
ATOM     25  C   UNL     1      -1.173  14.937  20.105  0.00  0.00    +0.000 A 
ATOM     26  C   UNL     1      -0.664  13.670  20.387  0.00  0.00    +0.000 A 
ENDBRANCH  19  21
BRANCH  18  27
ATOM     27  C   UNL     1       0.029  10.888  18.020  0.00  0.00    +0.000 C 
BRANCH  27  28
ATOM     28  C   UNL     1      -1.498  10.916  17.875  0.00  0.00    +0.000 C 
ATOM     29  F   UNL     1      -2.199  10.648  18.990  0.00  0.00    +0.000 F 
ATOM     30  F   UNL     1      -1.870  12.174  17.505  0.00  0.00    +0.000 F 
ATOM     31  F   UNL     1      -1.920  10.087  16.895  0.00  0.00    +0.000 F 
ENDBRANCH  27  28
ENDBRANCH  18  27
ENDBRANCH   5  18
TORSDOF 7
ENDMDL
MODEL 7
REMARK VINA RESULT:      -7.4      3.253      4.605
REMARK  Name = 
REMARK  8 active torsions:
REMARK  status: ('A' for Active; 'I' for Inactive)
REMARK    1  A    between atoms: C_1  and  N_2
REMARK    2  A    between atoms: C_6  and  C_7
REMARK    3  A    between atoms: C_7  and  C_8
REMARK    4  A    between atoms: C_8  and  C_9
REMARK    5  A    between atoms: C_13  and  N_14
REMARK    6  A    between atoms: N_14  and  C_15
REMARK    7  A    between atoms: C_15  and  C_16
REMARK    8  A    between atoms: C_20  and  C_22
REMARK                            x       y       z     vdW  Elec       q    Type
REMARK                         _______ _______ _______ _____ _____    ______ ____
ROOT
ATOM      1  C   UNL     1       2.121   7.436  18.860  0.00  0.00    +0.000 A 
ATOM      2  C   UNL     1       2.930   8.001  17.856  0.00  0.00    +0.000 A 
ATOM      3  C   UNL     1       2.827   9.350  17.502  0.00  0.00    +0.000 A 
ATOM      4  C   UNL     1       1.887  10.177  18.128  0.00  0.00    +0.000 A 
ATOM      5  C   UNL     1       1.050   9.659  19.111  0.00  0.00    +0.000 A 
ATOM      6  C   UNL     1       1.205   8.313  19.486  0.00  0.00    +0.000 A 
ENDROOT
BRANCH   1   7
ATOM      7  C   UNL     1       2.166   5.875  19.233  0.00  0.00    +0.000 C 
ATOM      8  C   UNL     1       3.437   5.348  19.958  0.00  0.00    +0.000 C 
ATOM      9  O   UNL     1       2.673   4.855  21.075  0.00  0.00    +0.000 OA
ATOM     10  C   UNL     1       1.458   5.427  20.543  0.00  0.00    +0.000 C 
BRANCH   7  11
ATOM     11  C   UNL     1       1.864   5.026  17.981  0.00  0.00    +0.000 C 
BRANCH  11  17
ATOM     12  C   UNL     1       4.594   3.872  16.803  0.00  0.00    +0.000 C 
ATOM     13  N   UNL     1       3.585   3.169  17.550  0.00  0.00    +0.000 N 
ATOM     14  C   UNL     1       3.684   1.871  17.954  0.00  0.00    +0.000 A 
ATOM     15  N   UNL     1       2.586   1.518  18.573  0.00  0.00    +0.000 NA
ATOM     16  N   UNL     1       1.761   2.615  18.610  0.00  0.00    +0.000 NA
ATOM     17  C   UNL     1       2.375   3.623  18.019  0.00  0.00    +0.000 A 
ENDBRANCH  11  17
ENDBRANCH   7  11
ENDBRANCH   1   7
BRANCH   5  18
ATOM     18  N   UNL     1       0.048  10.468  19.740  0.00  0.00    +0.000 N 
ATOM     19  C   UNL     1       0.384  11.054  20.996  0.00  0.00    +0.000 C 
ATOM     20  O   UNL     1       1.540  11.083  21.421  0.00  0.00    +0.000 OA
BRANCH  19  21
ATOM     21  C   UNL     1      -0.625  11.767  21.840  0.00  0.00    +0.000 A 
ATOM     22  C   UNL     1      -1.434  11.169  22.815  0.00  0.00    +0.000 A 
ATOM     23  C   UNL     1      -2.352  11.931  23.551  0.00  0.00    +0.000 A 
ATOM     24  C   UNL     1      -2.413  13.312  23.385  0.00  0.00    +0.000 A 
ATOM     25  C   UNL     1      -1.555  13.932  22.481  0.00  0.00    +0.000 A 
ATOM     26  C   UNL     1      -0.678  13.168  21.711  0.00  0.00    +0.000 A 
ENDBRANCH  19  21
BRANCH  18  27
ATOM     27  C   UNL     1      -1.350  10.369  19.270  0.00  0.00    +0.000 C 
BRANCH  27  28
ATOM     28  C   UNL     1      -1.834  10.301  17.816  0.00  0.00    +0.000 C 
ATOM     29  F   UNL     1      -1.171   9.450  17.015  0.00  0.00    +0.000 F 
ATOM     30  F   UNL     1      -3.127   9.869  17.815  0.00  0.00    +0.000 F 
ATOM     31  F   UNL     1      -1.837  11.521  17.235  0.00  0.00    +0.000 F 
ENDBRANCH  27  28
ENDBRANCH  18  27
ENDBRANCH   5  18
TORSDOF 7
ENDMDL
MODEL 8
REMARK VINA RESULT:      -7.3      2.162      3.049
REMARK  Name = 
REMARK  8 active torsions:
REMARK  status: ('A' for Active; 'I' for Inactive)
REMARK    1  A    between atoms: C_1  and  N_2
REMARK    2  A    between atoms: C_6  and  C_7
REMARK    3  A    between atoms: C_7  and  C_8
REMARK    4  A    between atoms: C_8  and  C_9
REMARK    5  A    between atoms: C_13  and  N_14
REMARK    6  A    between atoms: N_14  and  C_15
REMARK    7  A    between atoms: C_15  and  C_16
REMARK    8  A    between atoms: C_20  and  C_22
REMARK                            x       y       z     vdW  Elec       q    Type
REMARK                         _______ _______ _______ _____ _____    ______ ____
ROOT
ATOM      1  C   UNL     1       2.310   7.006  19.444  0.00  0.00    +0.000 A 
ATOM      2  C   UNL     1       1.792   6.652  20.704  0.00  0.00    +0.000 A 
ATOM      3  C   UNL     1       0.971   7.520  21.430  0.00  0.00    +0.000 A 
ATOM      4  C   UNL     1       0.660   8.788  20.927  0.00  0.00    +0.000 A 
ATOM      5  C   UNL     1       1.166   9.192  19.696  0.00  0.00    +0.000 A 
ATOM      6  C   UNL     1       1.949   8.284  18.960  0.00  0.00    +0.000 A 
ENDROOT
BRANCH   1   7
ATOM      7  C   UNL     1       3.316   6.060  18.623  0.00  0.00    +0.000 C 
ATOM      8  C   UNL     1       4.450   5.356  19.422  0.00  0.00    +0.000 C 
ATOM      9  O   UNL     1       4.021   4.048  19.000  0.00  0.00    +0.000 OA
ATOM     10  C   UNL     1       2.862   4.601  18.339  0.00  0.00    +0.000 C 
BRANCH   7  11
ATOM     11  C   UNL     1       3.897   6.830  17.419  0.00  0.00    +0.000 C 
BRANCH  11  17
ATOM     12  C   UNL     1       4.974   4.386  15.677  0.00  0.00    +0.000 C 
ATOM     13  N   UNL     1       5.733   5.460  16.259  0.00  0.00    +0.000 N 
ATOM     14  C   UNL     1       7.072   5.649  16.081  0.00  0.00    +0.000 A 
ATOM     15  N   UNL     1       7.467   6.686  16.775  0.00  0.00    +0.000 NA
ATOM     16  N   UNL     1       6.361   7.213  17.396  0.00  0.00    +0.000 NA
ATOM     17  C   UNL     1       5.307   6.492  17.061  0.00  0.00    +0.000 A 
ENDBRANCH  11  17
ENDBRANCH   7  11
ENDBRANCH   1   7
BRANCH   5  18
ATOM     18  N   UNL     1       0.902  10.500  19.173  0.00  0.00    +0.000 N 
ATOM     19  C   UNL     1       1.064  11.599  20.067  0.00  0.00    +0.000 C 
ATOM     20  O   UNL     1       1.631  11.485  21.155  0.00  0.00    +0.000 OA
BRANCH  19  21
ATOM     21  C   UNL     1       0.649  12.991  19.705  0.00  0.00    +0.000 A 
ATOM     22  C   UNL     1      -0.588  13.573  20.009  0.00  0.00    +0.000 A 
ATOM     23  C   UNL     1      -0.876  14.888  19.620  0.00  0.00    +0.000 A 
ATOM     24  C   UNL     1       0.097  15.668  19.000  0.00  0.00    +0.000 A 
ATOM     25  C   UNL     1       1.361  15.131  18.769  0.00  0.00    +0.000 A 
ATOM     26  C   UNL     1       1.631  13.806  19.109  0.00  0.00    +0.000 A 
ENDBRANCH  19  21
BRANCH  18  27
ATOM     27  C   UNL     1       0.155  10.625  17.904  0.00  0.00    +0.000 C 
BRANCH  27  28
ATOM     28  C   UNL     1      -1.364  10.525  17.710  0.00  0.00    +0.000 C 
ATOM     29  F   UNL     1      -1.783   9.619  16.811  0.00  0.00    +0.000 F 
ATOM     30  F   UNL     1      -1.923  10.148  18.894  0.00  0.00    +0.000 F 
ATOM     31  F   UNL     1      -1.904  11.722  17.395  0.00  0.00    +0.000 F 
ENDBRANCH  27  28
ENDBRANCH  18  27
ENDBRANCH   5  18
TORSDOF 7
ENDMDL
MODEL 9
REMARK VINA RESULT:      -7.3      2.858      3.824
REMARK  Name = 
REMARK  8 active torsions:
REMARK  status: ('A' for Active; 'I' for Inactive)
REMARK    1  A    between atoms: C_1  and  N_2
REMARK    2  A    between atoms: C_6  and  C_7
REMARK    3  A    between atoms: C_7  and  C_8
REMARK    4  A    between atoms: C_8  and  C_9
REMARK    5  A    between atoms: C_13  and  N_14
REMARK    6  A    between atoms: N_14  and  C_15
REMARK    7  A    between atoms: C_15  and  C_16
REMARK    8  A    between atoms: C_20  and  C_22
REMARK                            x       y       z     vdW  Elec       q    Type
REMARK                         _______ _______ _______ _____ _____    ______ ____
ROOT
ATOM      1  C   UNL     1       2.901   6.380  19.157  0.00  0.00    +0.000 A 
ATOM      2  C   UNL     1       2.371   5.730  20.286  0.00  0.00    +0.000 A 
ATOM      3  C   UNL     1       1.403   6.333  21.095  0.00  0.00    +0.000 A 
ATOM      4  C   UNL     1       0.950   7.627  20.811  0.00  0.00    +0.000 A 
ATOM      5  C   UNL     1       1.460   8.319  19.718  0.00  0.00    +0.000 A 
ATOM      6  C   UNL     1       2.396   7.674  18.890  0.00  0.00    +0.000 A 
ENDROOT
BRANCH   1   7
ATOM      7  C   UNL     1       4.068   5.741  18.255  0.00  0.00    +0.000 C 
ATOM      8  C   UNL     1       5.038   6.723  17.538  0.00  0.00    +0.000 C 
ATOM      9  O   UNL     1       6.194   6.141  18.169  0.00  0.00    +0.000 OA
ATOM     10  C   UNL     1       5.364   5.280  18.978  0.00  0.00    +0.000 C 
BRANCH   7  11
ATOM     11  C   UNL     1       3.466   4.739  17.249  0.00  0.00    +0.000 C 
BRANCH  11  17
ATOM     12  C   UNL     1       4.095   2.244  19.133  0.00  0.00    +0.000 C 
ATOM     13  N   UNL     1       2.811   2.712  18.683  0.00  0.00    +0.000 N 
ATOM     14  C   UNL     1       1.614   2.188  19.075  0.00  0.00    +0.000 A 
ATOM     15  N   UNL     1       0.640   2.807  18.456  0.00  0.00    +0.000 NA
ATOM     16  N   UNL     1       1.202   3.780  17.668  0.00  0.00    +0.000 NA
ATOM     17  C   UNL     1       2.512   3.746  17.826  0.00  0.00    +0.000 A 
ENDBRANCH  11  17
ENDBRANCH   7  11
ENDBRANCH   1   7
BRANCH   5  18
ATOM     18  N   UNL     1       1.049   9.661  19.426  0.00  0.00    +0.000 N 
ATOM     19  C   UNL     1       0.938  10.558  20.529  0.00  0.00    +0.000 C 
ATOM     20  O   UNL     1       1.397  10.294  21.641  0.00  0.00    +0.000 OA
BRANCH  19  21
ATOM     21  C   UNL     1       0.349  11.927  20.388  0.00  0.00    +0.000 A 
ATOM     22  C   UNL     1      -0.918  12.314  20.842  0.00  0.00    +0.000 A 
ATOM     23  C   UNL     1      -1.376  13.626  20.657  0.00  0.00    +0.000 A 
ATOM     24  C   UNL     1      -0.542  14.590  20.096  0.00  0.00    +0.000 A 
ATOM     25  C   UNL     1       0.752  14.240  19.718  0.00  0.00    +0.000 A 
ATOM     26  C   UNL     1       1.189  12.923  19.854  0.00  0.00    +0.000 A 
ENDBRANCH  19  21
BRANCH  18  27
ATOM     27  C   UNL     1       0.432   9.950  18.114  0.00  0.00    +0.000 C 
BRANCH  27  28
ATOM     28  C   UNL     1      -1.060  10.144  17.816  0.00  0.00    +0.000 C 
ATOM     29  F   UNL     1      -1.552   9.431  16.789  0.00  0.00    +0.000 F 
ATOM     30  F   UNL     1      -1.770   9.744  18.909  0.00  0.00    +0.000 F 
ATOM     31  F   UNL     1      -1.361  11.445  17.617  0.00  0.00    +0.000 F 
ENDBRANCH  27  28
ENDBRANCH  18  27
ENDBRANCH   5  18
TORSDOF 7
ENDMDL
