MODEL 1
REMARK VINA RESULT:      -7.7      0.000      0.000
REMARK  Name = 
REMARK  5 active torsions:
REMARK  status: ('A' for Active; 'I' for Inactive)
REMARK    1  A    between atoms: C_1  and  C_2
REMARK    2  A    between atoms: C_5  and  C_6
REMARK    3  A    between atoms: C_9  and  C_10
REMARK    4  A    between atoms: N_20  and  C_21
REMARK    5  A    between atoms: C_21  and  C_22
REMARK                            x       y       z     vdW  Elec       q    Type
REMARK                         _______ _______ _______ _____ _____    ______ ____
ROOT
ATOM      1  C   UNL     1      -0.175  11.284  19.385  0.00  0.00    +0.000 C 
ATOM      2  O   UNL     1      -1.341  11.330  18.994  0.00  0.00    +0.000 OA
ATOM      3  N   UNL     1       0.508  12.438  19.887  0.00  0.00    +0.000 N 
ATOM      4  C   UNL     1      -0.508  13.855  19.627  0.00  0.00    +0.000 C 
ATOM      5  C   UNL     1       0.397  15.266  19.220  0.00  0.00    +0.000 C 
ATOM      6  C   UNL     1       1.259  14.578  20.088  0.00  0.00    +0.000 C 
ATOM      7  C   UNL     1       1.504  13.370  18.558  0.00  0.00    +0.000 C 
ATOM      8  C   UNL     1       2.187  12.636  19.524  0.00  0.00    +0.000 C 
ATOM      9  C   UNL     1       3.137  14.188  19.209  0.00  0.00    +0.000 C 
ATOM     10  C   UNL     1       4.267  14.503  18.254  0.00  0.00    +0.000 C 
ATOM     11  N   UNL     1       4.205  16.001  18.045  0.00  0.00    +0.000 NA
ATOM     12  C   UNL     1       2.857  16.600  18.362  0.00  0.00    +0.000 C 
ATOM     13  C   UNL     1       1.929  15.433  18.437  0.00  0.00    +0.000 C 
ENDROOT
BRANCH   1  17
ATOM     14  C   UNL     1       2.190   7.752  18.953  0.00  0.00    +0.000 A 
ATOM     15  C   UNL     1       1.670   8.098  20.209  0.00  0.00    +0.000 A 
ATOM     16  C   UNL     1       0.853   9.225  20.339  0.00  0.00    +0.000 A 
ATOM     17  C   UNL     1       0.537   9.994  19.214  0.00  0.00    +0.000 A 
ATOM     18  C   UNL     1       1.000   9.634  17.958  0.00  0.00    +0.000 A 
ATOM     19  C   UNL     1       1.819   8.516  17.820  0.00  0.00    +0.000 A 
BRANCH  14  24
ATOM     20  C   UNL     1       5.750   4.861  17.074  0.00  0.00    +0.000 C 
ATOM     21  C   UNL     1       4.724   5.367  18.007  0.00  0.00    +0.000 A 
ATOM     22  N   UNL     1       4.378   4.880  19.177  0.00  0.00    +0.000 NA
ATOM     23  N   UNL     1       3.394   5.693  19.700  0.00  0.00    +0.000 NA
ATOM     24  C   UNL     1       3.134   6.648  18.827  0.00  0.00    +0.000 A 
ATOM     25  N   UNL     1       3.974   6.479  17.755  0.00  0.00    +0.000 N 
ATOM     26  H   UNL     1       4.049   7.089  16.956  0.00  0.00    +0.000 HD
ENDBRANCH  14  24
ENDBRANCH   1  17
BRANCH  11  27
ATOM     27  C   UNL     1       5.201  16.757  18.822  0.00  0.00    +0.000 C 
BRANCH  27  28
ATOM     28  C   UNL     1       6.508  16.065  19.106  0.00  0.00    +0.000 A 
ATOM     29  C   UNL     1       7.515  15.915  18.142  0.00  0.00    +0.000 A 
ATOM     30  C   UNL     1       8.712  15.279  18.470  0.00  0.00    +0.000 A 
ATOM     31  C   UNL     1       8.926  14.817  19.770  0.00  0.00    +0.000 A 
ATOM     32  C   UNL     1       7.950  14.999  20.746  0.00  0.00    +0.000 A 
ATOM     33  C   UNL     1       6.747  15.621  20.418  0.00  0.00    +0.000 A 
ENDBRANCH  27  28
ENDBRANCH  11  27
TORSDOF 4
ENDMDL
MODEL 2
REMARK VINA RESULT:      -7.7      1.306      1.987
REMARK  Name = 
REMARK  5 active torsions:
REMARK  status: ('A' for Active; 'I' for Inactive)
REMARK    1  A    between atoms: C_1  and  C_2
REMARK    2  A    between atoms: C_5  and  C_6
REMARK    3  A    between atoms: C_9  and  C_10
REMARK    4  A    between atoms: N_20  and  C_21
REMARK    5  A    between atoms: C_21  and  C_22
REMARK                            x       y       z     vdW  Elec       q    Type
REMARK                         _______ _______ _______ _____ _____    ______ ____
ROOT
ATOM      1  C   UNL     1       0.023  11.523  19.222  0.00  0.00    +0.000 C 
ATOM      2  O   UNL     1      -0.984  11.443  18.519  0.00  0.00    +0.000 OA
ATOM      3  N   UNL     1       0.503  12.773  19.729  0.00  0.00    +0.000 N 
ATOM      4  C   UNL     1      -0.434  14.077  19.001  0.00  0.00    +0.000 C 
ATOM      5  C   UNL     1       0.511  15.481  18.670  0.00  0.00    +0.000 C 
ATOM      6  C   UNL     1       1.108  14.966  19.831  0.00  0.00    +0.000 C 
ATOM      7  C   UNL     1       1.811  13.593  18.615  0.00  0.00    +0.000 C 
ATOM      8  C   UNL     1       2.210  13.033  19.825  0.00  0.00    +0.000 C 
ATOM      9  C   UNL     1       3.168  14.592  19.574  0.00  0.00    +0.000 C 
ATOM     10  C   UNL     1       4.515  14.856  18.939  0.00  0.00    +0.000 C 
ATOM     11  N   UNL     1       4.475  16.309  18.514  0.00  0.00    +0.000 NA
ATOM     12  C   UNL     1       3.077  16.854  18.356  0.00  0.00    +0.000 C 
ATOM     13  C   UNL     1       2.198  15.647  18.330  0.00  0.00    +0.000 C 
ENDROOT
BRANCH   1  17
ATOM     14  C   UNL     1       1.923   7.732  19.741  0.00  0.00    +0.000 A 
ATOM     15  C   UNL     1       2.021   8.403  18.512  0.00  0.00    +0.000 A 
ATOM     16  C   UNL     1       1.443   9.667  18.361  0.00  0.00    +0.000 A 
ATOM     17  C   UNL     1       0.788  10.271  19.439  0.00  0.00    +0.000 A 
ATOM     18  C   UNL     1       0.729   9.643  20.673  0.00  0.00    +0.000 A 
ATOM     19  C   UNL     1       1.297   8.381  20.831  0.00  0.00    +0.000 A 
BRANCH  14  24
ATOM     20  C   UNL     1       2.378   3.083  21.396  0.00  0.00    +0.000 C 
ATOM     21  C   UNL     1       2.620   4.298  20.594  0.00  0.00    +0.000 A 
ATOM     22  N   UNL     1       3.467   4.464  19.604  0.00  0.00    +0.000 NA
ATOM     23  N   UNL     1       3.330   5.755  19.140  0.00  0.00    +0.000 NA
ATOM     24  C   UNL     1       2.421   6.368  19.875  0.00  0.00    +0.000 A 
ATOM     25  N   UNL     1       1.940   5.465  20.789  0.00  0.00    +0.000 N 
ATOM     26  H   UNL     1       1.194   5.626  21.449  0.00  0.00    +0.000 HD
ENDBRANCH  14  24
ENDBRANCH   1  17
BRANCH  11  27
ATOM     27  C   UNL     1       5.187  17.220  19.425  0.00  0.00    +0.000 C 
BRANCH  27  28
ATOM     28  C   UNL     1       6.651  16.946  19.653  0.00  0.00    +0.000 A 
ATOM     29  C   UNL     1       7.165  16.549  20.895  0.00  0.00    +0.000 A 
ATOM     30  C   UNL     1       8.529  16.294  21.042  0.00  0.00    +0.000 A 
ATOM     31  C   UNL     1       9.382  16.401  19.943  0.00  0.00    +0.000 A 
ATOM     32  C   UNL     1       8.874  16.753  18.695  0.00  0.00    +0.000 A 
ATOM     33  C   UNL     1       7.515  17.022  18.549  0.00  0.00    +0.000 A 
ENDBRANCH  27  28
ENDBRANCH  11  27
TORSDOF 4
ENDMDL
MODEL 3
REMARK VINA RESULT:      -7.6      2.927      5.165
REMARK  Name = 
REMARK  5 active torsions:
REMARK  status: ('A' for Active; 'I' for Inactive)
REMARK    1  A    between atoms: C_1  and  C_2
REMARK    2  A    between atoms: C_5  and  C_6
REMARK    3  A    between atoms: C_9  and  C_10
REMARK    4  A    between atoms: N_20  and  C_21
REMARK    5  A    between atoms: C_21  and  C_22
REMARK                            x       y       z     vdW  Elec       q    Type
REMARK                         _______ _______ _______ _____ _____    ______ ____
ROOT
ATOM      1  C   UNL     1       2.012   6.668  20.028  0.00  0.00    +0.000 C 
ATOM      2  O   UNL     1       1.410   5.739  20.566  0.00  0.00    +0.000 OA
ATOM      3  N   UNL     1       1.889   8.022  20.478  0.00  0.00    +0.000 N 
ATOM      4  C   UNL     1       0.623   8.097  21.703  0.00  0.00    +0.000 C 
ATOM      5  C   UNL     1      -0.306   9.548  21.621  0.00  0.00    +0.000 C 
ATOM      6  C   UNL     1       0.971   9.969  21.220  0.00  0.00    +0.000 C 
ATOM      7  C   UNL     1       0.542   9.007  19.561  0.00  0.00    +0.000 C 
ATOM      8  C   UNL     1       1.881   9.292  19.305  0.00  0.00    +0.000 C 
ATOM      9  C   UNL     1       0.951  10.888  19.321  0.00  0.00    +0.000 C 
ATOM     10  C   UNL     1       0.287  11.679  18.216  0.00  0.00    +0.000 C 
ATOM     11  N   UNL     1      -0.765  12.521  18.907  0.00  0.00    +0.000 NA
ATOM     12  C   UNL     1      -1.180  11.983  20.254  0.00  0.00    +0.000 C 
ATOM     13  C   UNL     1      -0.657  10.585  20.284  0.00  0.00    +0.000 C 
ENDROOT
BRANCH   1  17
ATOM     14  C   UNL     1       4.565   5.670  16.751  0.00  0.00    +0.000 A 
ATOM     15  C   UNL     1       3.816   4.668  17.385  0.00  0.00    +0.000 A 
ATOM     16  C   UNL     1       2.942   5.004  18.424  0.00  0.00    +0.000 A 
ATOM     17  C   UNL     1       2.797   6.339  18.813  0.00  0.00    +0.000 A 
ATOM     18  C   UNL     1       3.492   7.346  18.160  0.00  0.00    +0.000 A 
ATOM     19  C   UNL     1       4.369   7.020  17.128  0.00  0.00    +0.000 A 
BRANCH  14  24
ATOM     20  C   UNL     1       6.567   3.693  12.670  0.00  0.00    +0.000 C 
ATOM     21  C   UNL     1       6.456   4.454  13.930  0.00  0.00    +0.000 A 
ATOM     22  N   UNL     1       7.383   5.155  14.542  0.00  0.00    +0.000 NA
ATOM     23  N   UNL     1       6.820   5.710  15.671  0.00  0.00    +0.000 NA
ATOM     24  C   UNL     1       5.563   5.316  15.747  0.00  0.00    +0.000 A 
ATOM     25  N   UNL     1       5.298   4.537  14.649  0.00  0.00    +0.000 N 
ATOM     26  H   UNL     1       4.405   4.140  14.402  0.00  0.00    +0.000 HD
ENDBRANCH  14  24
ENDBRANCH   1  17
BRANCH  11  27
ATOM     27  C   UNL     1      -0.369  13.924  19.111  0.00  0.00    +0.000 C 
BRANCH  27  28
ATOM     28  C   UNL     1       1.053  14.173  19.542  0.00  0.00    +0.000 A 
ATOM     29  C   UNL     1       1.479  14.041  20.870  0.00  0.00    +0.000 A 
ATOM     30  C   UNL     1       2.814  14.270  21.205  0.00  0.00    +0.000 A 
ATOM     31  C   UNL     1       3.738  14.600  20.213  0.00  0.00    +0.000 A 
ATOM     32  C   UNL     1       3.333  14.692  18.884  0.00  0.00    +0.000 A 
ATOM     33  C   UNL     1       1.998  14.478  18.548  0.00  0.00    +0.000 A 
ENDBRANCH  27  28
ENDBRANCH  11  27
TORSDOF 4
ENDMDL
MODEL 4
REMARK VINA RESULT:      -7.6      1.103      1.689
REMARK  Name = 
REMARK  5 active torsions:
REMARK  status: ('A' for Active; 'I' for Inactive)
REMARK    1  A    between atoms: C_1  and  C_2
REMARK    2  A    between atoms: C_5  and  C_6
REMARK    3  A    between atoms: C_9  and  C_10
REMARK    4  A    between atoms: N_20  and  C_21
REMARK    5  A    between atoms: C_21  and  C_22
REMARK                            x       y       z     vdW  Elec       q    Type
REMARK                         _______ _______ _______ _____ _____    ______ ____
ROOT
ATOM      1  C   UNL     1      -0.033  10.819  19.249  0.00  0.00    +0.000 C 
ATOM      2  O   UNL     1      -1.089  10.689  18.630  0.00  0.00    +0.000 OA
ATOM      3  N   UNL     1       0.340  12.053  19.873  0.00  0.00    +0.000 N 
ATOM      4  C   UNL     1      -0.820  13.296  19.406  0.00  0.00    +0.000 C 
ATOM      5  C   UNL     1      -0.093  14.844  19.183  0.00  0.00    +0.000 C 
ATOM      6  C   UNL     1       0.678  14.279  20.210  0.00  0.00    +0.000 C 
ATOM      7  C   UNL     1       1.416  13.168  18.768  0.00  0.00    +0.000 C 
ATOM      8  C   UNL     1       2.003  12.526  19.855  0.00  0.00    +0.000 C 
ATOM      9  C   UNL     1       2.732  14.219  19.730  0.00  0.00    +0.000 C 
ATOM     10  C   UNL     1       3.963  14.736  19.022  0.00  0.00    +0.000 C 
ATOM     11  N   UNL     1       3.702  16.211  18.797  0.00  0.00    +0.000 NA
ATOM     12  C   UNL     1       2.239  16.577  18.833  0.00  0.00    +0.000 C 
ATOM     13  C   UNL     1       1.517  15.275  18.724  0.00  0.00    +0.000 C 
ENDROOT
BRANCH   1  17
ATOM     14  C   UNL     1       2.361   7.284  19.095  0.00  0.00    +0.000 A 
ATOM     15  C   UNL     1       2.256   8.108  17.965  0.00  0.00    +0.000 A 
ATOM     16  C   UNL     1       1.515   9.292  18.032  0.00  0.00    +0.000 A 
ATOM     17  C   UNL     1       0.898   9.664  19.231  0.00  0.00    +0.000 A 
ATOM     18  C   UNL     1       1.037   8.886  20.371  0.00  0.00    +0.000 A 
ATOM     19  C   UNL     1       1.769   7.703  20.310  0.00  0.00    +0.000 A 
BRANCH  14  24
ATOM     20  C   UNL     1       3.222   2.559  17.873  0.00  0.00    +0.000 C 
ATOM     21  C   UNL     1       3.431   3.900  18.451  0.00  0.00    +0.000 A 
ATOM     22  N   UNL     1       4.477   4.350  19.106  0.00  0.00    +0.000 NA
ATOM     23  N   UNL     1       4.237   5.667  19.437  0.00  0.00    +0.000 NA
ATOM     24  C   UNL     1       3.035   5.994  19.002  0.00  0.00    +0.000 A 
ATOM     25  N   UNL     1       2.508   4.902  18.357  0.00  0.00    +0.000 N 
ATOM     26  H   UNL     1       1.626   4.867  17.871  0.00  0.00    +0.000 HD
ENDBRANCH  14  24
ENDBRANCH   1  17
BRANCH  11  27
ATOM     27  C   UNL     1       4.387  17.094  19.756  0.00  0.00    +0.000 C 
BRANCH  27  28
ATOM     28  C   UNL     1       5.873  16.904  19.913  0.00  0.00    +0.000 A 
ATOM     29  C   UNL     1       6.456  16.408  21.087  0.00  0.00    +0.000 A 
ATOM     30  C   UNL     1       7.839  16.239  21.167  0.00  0.00    +0.000 A 
ATOM     31  C   UNL     1       8.644  16.532  20.066  0.00  0.00    +0.000 A 
ATOM     32  C   UNL     1       8.071  16.986  18.881  0.00  0.00    +0.000 A 
ATOM     33  C   UNL     1       6.692  17.169  18.802  0.00  0.00    +0.000 A 
ENDBRANCH  27  28
ENDBRANCH  11  27
TORSDOF 4
ENDMDL
MODEL 5
REMARK VINA RESULT:      -7.6      4.864      9.942
REMARK  Name = 
REMARK  5 active torsions:
REMARK  status: ('A' for Active; 'I' for Inactive)
REMARK    1  A    between atoms: C_1  and  C_2
REMARK    2  A    between atoms: C_5  and  C_6
REMARK    3  A    between atoms: C_9  and  C_10
REMARK    4  A    between atoms: N_20  and  C_21
REMARK    5  A    between atoms: C_21  and  C_22
REMARK                            x       y       z     vdW  Elec       q    Type
REMARK                         _______ _______ _______ _____ _____    ______ ____
ROOT
ATOM      1  C   UNL     1       2.096   5.580  19.609  0.00  0.00    +0.000 C 
ATOM      2  O   UNL     1       1.953   4.792  20.544  0.00  0.00    +0.000 OA
ATOM      3  N   UNL     1       2.558   5.162  18.320  0.00  0.00    +0.000 N 
ATOM      4  C   UNL     1       3.057   3.473  18.419  0.00  0.00    +0.000 C 
ATOM      5  C   UNL     1       4.435   3.121  17.443  0.00  0.00    +0.000 C 
ATOM      6  C   UNL     1       3.770   4.111  16.704  0.00  0.00    +0.000 C 
ATOM      7  C   UNL     1       4.442   5.318  18.101  0.00  0.00    +0.000 C 
ATOM      8  C   UNL     1       3.607   6.209  17.431  0.00  0.00    +0.000 C 
ATOM      9  C   UNL     1       5.003   5.775  16.301  0.00  0.00    +0.000 C 
ATOM     10  C   UNL     1       6.346   6.427  16.062  0.00  0.00    +0.000 C 
ATOM     11  N   UNL     1       7.229   5.328  15.509  0.00  0.00    +0.000 NA
ATOM     12  C   UNL     1       6.743   3.939  15.841  0.00  0.00    +0.000 C 
ATOM     13  C   UNL     1       5.734   4.136  16.923  0.00  0.00    +0.000 C 
ENDROOT
BRANCH   1  17
ATOM     14  C   UNL     1       1.084   9.655  20.401  0.00  0.00    +0.000 A 
ATOM     15  C   UNL     1       1.128   8.727  21.453  0.00  0.00    +0.000 A 
ATOM     16  C   UNL     1       1.510   7.405  21.200  0.00  0.00    +0.000 A 
ATOM     17  C   UNL     1       1.870   7.016  19.906  0.00  0.00    +0.000 A 
ATOM     18  C   UNL     1       1.882   7.935  18.868  0.00  0.00    +0.000 A 
ATOM     19  C   UNL     1       1.497   9.251  19.109  0.00  0.00    +0.000 A 
BRANCH  14  24
ATOM     20  C   UNL     1      -2.023  13.516  20.453  0.00  0.00    +0.000 C 
ATOM     21  C   UNL     1      -0.801  12.718  20.673  0.00  0.00    +0.000 A 
ATOM     22  N   UNL     1       0.312  13.080  21.271  0.00  0.00    +0.000 NA
ATOM     23  N   UNL     1       1.169  12.001  21.262  0.00  0.00    +0.000 NA
ATOM     24  C   UNL     1       0.578  11.003  20.633  0.00  0.00    +0.000 A 
ATOM     25  N   UNL     1      -0.677  11.420  20.266  0.00  0.00    +0.000 N 
ATOM     26  H   UNL     1      -1.385  10.858  19.820  0.00  0.00    +0.000 HD
ENDBRANCH  14  24
ENDBRANCH   1  17
BRANCH  11  27
ATOM     27  C   UNL     1       7.406   5.380  14.048  0.00  0.00    +0.000 C 
BRANCH  27  28
ATOM     28  C   UNL     1       6.656   4.357  13.236  0.00  0.00    +0.000 A 
ATOM     29  C   UNL     1       5.266   4.197  13.311  0.00  0.00    +0.000 A 
ATOM     30  C   UNL     1       4.625   3.243  12.521  0.00  0.00    +0.000 A 
ATOM     31  C   UNL     1       5.363   2.465  11.627  0.00  0.00    +0.000 A 
ATOM     32  C   UNL     1       6.739   2.645  11.514  0.00  0.00    +0.000 A 
ATOM     33  C   UNL     1       7.383   3.588  12.312  0.00  0.00    +0.000 A 
ENDBRANCH  27  28
ENDBRANCH  11  27
TORSDOF 4
ENDMDL
MODEL 6
REMARK VINA RESULT:      -7.6      0.587      1.213
REMARK  Name = 
REMARK  5 active torsions:
REMARK  status: ('A' for Active; 'I' for Inactive)
REMARK    1  A    between atoms: C_1  and  C_2
REMARK    2  A    between atoms: C_5  and  C_6
REMARK    3  A    between atoms: C_9  and  C_10
REMARK    4  A    between atoms: N_20  and  C_21
REMARK    5  A    between atoms: C_21  and  C_22
REMARK                            x       y       z     vdW  Elec       q    Type
REMARK                         _______ _______ _______ _____ _____    ______ ____
ROOT
ATOM      1  C   UNL     1      -0.148  11.226  19.561  0.00  0.00    +0.000 C 
ATOM      2  O   UNL     1      -1.337  11.270  19.248  0.00  0.00    +0.000 OA
ATOM      3  N   UNL     1       0.558  12.374  20.044  0.00  0.00    +0.000 N 
ATOM      4  C   UNL     1      -0.483  13.788  19.882  0.00  0.00    +0.000 C 
ATOM      5  C   UNL     1       0.384  15.215  19.449  0.00  0.00    +0.000 C 
ATOM      6  C   UNL     1       1.306  14.516  20.244  0.00  0.00    +0.000 C 
ATOM      7  C   UNL     1       1.459  13.343  18.675  0.00  0.00    +0.000 C 
ATOM      8  C   UNL     1       2.209  12.594  19.578  0.00  0.00    +0.000 C 
ATOM      9  C   UNL     1       3.125  14.161  19.237  0.00  0.00    +0.000 C 
ATOM     10  C   UNL     1       4.189  14.506  18.219  0.00  0.00    +0.000 C 
ATOM     11  N   UNL     1       4.102  16.008  18.047  0.00  0.00    +0.000 NA
ATOM     12  C   UNL     1       2.774  16.588  18.465  0.00  0.00    +0.000 C 
ATOM     13  C   UNL     1       1.861  15.412  18.573  0.00  0.00    +0.000 C 
ENDROOT
BRANCH   1  17
ATOM     14  C   UNL     1       2.208   7.721  18.913  0.00  0.00    +0.000 A 
ATOM     15  C   UNL     1       1.723   8.011  20.197  0.00  0.00    +0.000 A 
ATOM     16  C   UNL     1       0.909   9.130  20.398  0.00  0.00    +0.000 A 
ATOM     17  C   UNL     1       0.560   9.945  19.316  0.00  0.00    +0.000 A 
ATOM     18  C   UNL     1       0.989   9.641  18.033  0.00  0.00    +0.000 A 
ATOM     19  C   UNL     1       1.805   8.532  17.825  0.00  0.00    +0.000 A 
BRANCH  14  24
ATOM     20  C   UNL     1       4.452   3.344  19.519  0.00  0.00    +0.000 C 
ATOM     21  C   UNL     1       4.142   4.677  18.967  0.00  0.00    +0.000 A 
ATOM     22  N   UNL     1       4.715   5.294  17.959  0.00  0.00    +0.000 NA
ATOM     23  N   UNL     1       4.082   6.507  17.788  0.00  0.00    +0.000 NA
ATOM     24  C   UNL     1       3.150   6.625  18.714  0.00  0.00    +0.000 A 
ATOM     25  N   UNL     1       3.150   5.474  19.462  0.00  0.00    +0.000 N 
ATOM     26  H   UNL     1       2.509   5.248  20.207  0.00  0.00    +0.000 HD
ENDBRANCH  14  24
ENDBRANCH   1  17
BRANCH  11  27
ATOM     27  C   UNL     1       5.141  16.754  18.775  0.00  0.00    +0.000 C 
BRANCH  27  28
ATOM     28  C   UNL     1       6.388  15.996  19.149  0.00  0.00    +0.000 A 
ATOM     29  C   UNL     1       6.559  15.381  20.397  0.00  0.00    +0.000 A 
ATOM     30  C   UNL     1       7.730  14.678  20.679  0.00  0.00    +0.000 A 
ATOM     31  C   UNL     1       8.724  14.555  19.707  0.00  0.00    +0.000 A 
ATOM     32  C   UNL     1       8.545  15.125  18.449  0.00  0.00    +0.000 A 
ATOM     33  C   UNL     1       7.383  15.840  18.169  0.00  0.00    +0.000 A 
ENDBRANCH  27  28
ENDBRANCH  11  27
TORSDOF 4
ENDMDL
MODEL 7
REMARK VINA RESULT:      -7.5      3.558      4.821
REMARK  Name = 
REMARK  5 active torsions:
REMARK  status: ('A' for Active; 'I' for Inactive)
REMARK    1  A    between atoms: C_1  and  C_2
REMARK    2  A    between atoms: C_5  and  C_6
REMARK    3  A    between atoms: C_9  and  C_10
REMARK    4  A    between atoms: N_20  and  C_21
REMARK    5  A    between atoms: C_21  and  C_22
REMARK                            x       y       z     vdW  Elec       q    Type
REMARK                         _______ _______ _______ _____ _____    ______ ____
ROOT
ATOM      1  C   UNL     1       0.792   8.436  20.934  0.00  0.00    +0.000 C 
ATOM      2  O   UNL     1      -0.064   7.606  21.238  0.00  0.00    +0.000 OA
ATOM      3  N   UNL     1       0.737   9.793  21.389  0.00  0.00    +0.000 N 
ATOM      4  C   UNL     1      -0.804  10.054  22.205  0.00  0.00    +0.000 C 
ATOM      5  C   UNL     1      -1.455  11.626  21.925  0.00  0.00    +0.000 C 
ATOM      6  C   UNL     1      -0.071  11.854  21.922  0.00  0.00    +0.000 C 
ATOM      7  C   UNL     1      -0.134  10.967  20.171  0.00  0.00    +0.000 C 
ATOM      8  C   UNL     1       1.248  11.051  20.319  0.00  0.00    +0.000 C 
ATOM      9  C   UNL     1       0.587  12.767  20.138  0.00  0.00    +0.000 C 
ATOM     10  C   UNL     1       0.389  13.648  18.926  0.00  0.00    +0.000 C 
ATOM     11  N   UNL     1      -0.687  14.636  19.324  0.00  0.00    +0.000 NA
ATOM     12  C   UNL     1      -1.544  14.165  20.472  0.00  0.00    +0.000 C 
ATOM     13  C   UNL     1      -1.255  12.705  20.590  0.00  0.00    +0.000 C 
ENDROOT
BRANCH   1  17
ATOM     14  C   UNL     1       3.547   6.969  18.017  0.00  0.00    +0.000 A 
ATOM     15  C   UNL     1       2.867   8.176  17.794  0.00  0.00    +0.000 A 
ATOM     16  C   UNL     1       2.005   8.681  18.772  0.00  0.00    +0.000 A 
ATOM     17  C   UNL     1       1.840   7.996  19.980  0.00  0.00    +0.000 A 
ATOM     18  C   UNL     1       2.545   6.830  20.236  0.00  0.00    +0.000 A 
ATOM     19  C   UNL     1       3.401   6.317  19.264  0.00  0.00    +0.000 A 
BRANCH  14  24
ATOM     20  C   UNL     1       5.878   3.536  15.307  0.00  0.00    +0.000 C 
ATOM     21  C   UNL     1       5.382   4.857  15.742  0.00  0.00    +0.000 A 
ATOM     22  N   UNL     1       5.548   6.021  15.156  0.00  0.00    +0.000 NA
ATOM     23  N   UNL     1       4.890   6.971  15.908  0.00  0.00    +0.000 NA
ATOM     24  C   UNL     1       4.357   6.377  16.958  0.00  0.00    +0.000 A 
ATOM     25  N   UNL     1       4.635   5.035  16.870  0.00  0.00    +0.000 N 
ATOM     26  H   UNL     1       4.309   4.317  17.498  0.00  0.00    +0.000 HD
ENDBRANCH  14  24
ENDBRANCH   1  17
BRANCH  11  27
ATOM     27  C   UNL     1      -0.173  15.965  19.694  0.00  0.00    +0.000 C 
BRANCH  27  28
ATOM     28  C   UNL     1       0.207  16.886  18.563  0.00  0.00    +0.000 A 
ATOM     29  C   UNL     1       1.521  17.009  18.092  0.00  0.00    +0.000 A 
ATOM     30  C   UNL     1       1.808  17.867  17.030  0.00  0.00    +0.000 A 
ATOM     31  C   UNL     1       0.782  18.582  16.411  0.00  0.00    +0.000 A 
ATOM     32  C   UNL     1      -0.533  18.434  16.844  0.00  0.00    +0.000 A 
ATOM     33  C   UNL     1      -0.821  17.589  17.913  0.00  0.00    +0.000 A 
ENDBRANCH  27  28
ENDBRANCH  11  27
TORSDOF 4
ENDMDL
MODEL 8
REMARK VINA RESULT:      -7.5      3.420      5.315
REMARK  Name = 
REMARK  5 active torsions:
REMARK  status: ('A' for Active; 'I' for Inactive)
REMARK    1  A    between atoms: C_1  and  C_2
REMARK    2  A    between atoms: C_5  and  C_6
REMARK    3  A    between atoms: C_9  and  C_10
REMARK    4  A    between atoms: N_20  and  C_21
REMARK    5  A    between atoms: C_21  and  C_22
REMARK                            x       y       z     vdW  Elec       q    Type
REMARK                         _______ _______ _______ _____ _____    ______ ____
ROOT
ATOM      1  C   UNL     1       1.731   6.959  20.302  0.00  0.00    +0.000 C 
ATOM      2  O   UNL     1       0.929   6.035  20.435  0.00  0.00    +0.000 OA
ATOM      3  N   UNL     1       1.551   8.227  20.941  0.00  0.00    +0.000 N 
ATOM      4  C   UNL     1      -0.042   8.257  21.697  0.00  0.00    +0.000 C 
ATOM      5  C   UNL     1      -0.800   9.804  21.607  0.00  0.00    +0.000 C 
ATOM      6  C   UNL     1       0.561  10.126  21.716  0.00  0.00    +0.000 C 
ATOM      7  C   UNL     1       0.648   9.504  19.855  0.00  0.00    +0.000 C 
ATOM      8  C   UNL     1       2.011   9.661  20.092  0.00  0.00    +0.000 C 
ATOM      9  C   UNL     1       1.229  11.335  20.120  0.00  0.00    +0.000 C 
ATOM     10  C   UNL     1       1.019  12.368  19.036  0.00  0.00    +0.000 C 
ATOM     11  N   UNL     1      -0.148  13.209  19.509  0.00  0.00    +0.000 NA
ATOM     12  C   UNL     1      -1.018  12.516  20.528  0.00  0.00    +0.000 C 
ATOM     13  C   UNL     1      -0.623  11.078  20.452  0.00  0.00    +0.000 C 
ENDROOT
BRANCH   1  17
ATOM     14  C   UNL     1       4.751   6.063  17.415  0.00  0.00    +0.000 A 
ATOM     15  C   UNL     1       3.818   7.080  17.160  0.00  0.00    +0.000 A 
ATOM     16  C   UNL     1       2.863   7.407  18.128  0.00  0.00    +0.000 A 
ATOM     17  C   UNL     1       2.853   6.737  19.356  0.00  0.00    +0.000 A 
ATOM     18  C   UNL     1       3.801   5.767  19.642  0.00  0.00    +0.000 A 
ATOM     19  C   UNL     1       4.753   5.431  18.681  0.00  0.00    +0.000 A 
BRANCH  14  24
ATOM     20  C   UNL     1       6.437   3.887  13.294  0.00  0.00    +0.000 C 
ATOM     21  C   UNL     1       6.429   4.687  14.535  0.00  0.00    +0.000 A 
ATOM     22  N   UNL     1       7.419   5.360  15.076  0.00  0.00    +0.000 NA
ATOM     23  N   UNL     1       6.943   5.970  16.216  0.00  0.00    +0.000 NA
ATOM     24  C   UNL     1       5.676   5.637  16.371  0.00  0.00    +0.000 A 
ATOM     25  N   UNL     1       5.317   4.842  15.311  0.00  0.00    +0.000 N 
ATOM     26  H   UNL     1       4.395   4.480  15.124  0.00  0.00    +0.000 HD
ENDBRANCH  14  24
ENDBRANCH   1  17
BRANCH  11  27
ATOM     27  C   UNL     1       0.245  14.502  20.093  0.00  0.00    +0.000 C 
BRANCH  27  28
ATOM     28  C   UNL     1       0.452  15.646  19.135  0.00  0.00    +0.000 A 
ATOM     29  C   UNL     1      -0.605  16.413  18.626  0.00  0.00    +0.000 A 
ATOM     30  C   UNL     1      -0.349  17.470  17.754  0.00  0.00    +0.000 A 
ATOM     31  C   UNL     1       0.965  17.791  17.410  0.00  0.00    +0.000 A 
ATOM     32  C   UNL     1       2.025  17.063  17.944  0.00  0.00    +0.000 A 
ATOM     33  C   UNL     1       1.771  15.997  18.804  0.00  0.00    +0.000 A 
ENDBRANCH  27  28
ENDBRANCH  11  27
TORSDOF 4
ENDMDL
MODEL 9
REMARK VINA RESULT:      -7.4      2.885      5.021
REMARK  Name = 
REMARK  5 active torsions:
REMARK  status: ('A' for Active; 'I' for Inactive)
REMARK    1  A    between atoms: C_1  and  C_2
REMARK    2  A    between atoms: C_5  and  C_6
REMARK    3  A    between atoms: C_9  and  C_10
REMARK    4  A    between atoms: N_20  and  C_21
REMARK    5  A    between atoms: C_21  and  C_22
REMARK                            x       y       z     vdW  Elec       q    Type
REMARK                         _______ _______ _______ _____ _____    ______ ____
ROOT
ATOM      1  C   UNL     1       2.016   6.807  20.243  0.00  0.00    +0.000 C 
ATOM      2  O   UNL     1       1.331   5.830  20.545  0.00  0.00    +0.000 OA
ATOM      3  N   UNL     1       1.736   8.120  20.739  0.00  0.00    +0.000 N 
ATOM      4  C   UNL     1       0.200   8.082  21.605  0.00  0.00    +0.000 C 
ATOM      5  C   UNL     1      -0.729   9.519  21.390  0.00  0.00    +0.000 C 
ATOM      6  C   UNL     1       0.593   9.991  21.356  0.00  0.00    +0.000 C 
ATOM      7  C   UNL     1       0.631   9.151  19.581  0.00  0.00    +0.000 C 
ATOM      8  C   UNL     1       1.980   9.476  19.694  0.00  0.00    +0.000 C 
ATOM      9  C   UNL     1       1.020  11.051  19.583  0.00  0.00    +0.000 C 
ATOM     10  C   UNL     1       0.630  11.912  18.404  0.00  0.00    +0.000 C 
ATOM     11  N   UNL     1      -0.591  12.683  18.861  0.00  0.00    +0.000 NA
ATOM     12  C   UNL     1      -1.314  12.037  20.018  0.00  0.00    +0.000 C 
ATOM     13  C   UNL     1      -0.767  10.650  20.083  0.00  0.00    +0.000 C 
ENDROOT
BRANCH   1  17
ATOM     14  C   UNL     1       4.902   5.910  17.222  0.00  0.00    +0.000 A 
ATOM     15  C   UNL     1       3.963   6.932  17.013  0.00  0.00    +0.000 A 
ATOM     16  C   UNL     1       3.053   7.260  18.023  0.00  0.00    +0.000 A 
ATOM     17  C   UNL     1       3.094   6.585  19.248  0.00  0.00    +0.000 A 
ATOM     18  C   UNL     1       4.049   5.609  19.487  0.00  0.00    +0.000 A 
ATOM     19  C   UNL     1       4.956   5.273  18.484  0.00  0.00    +0.000 A 
BRANCH  14  24
ATOM     20  C   UNL     1       6.393   3.746  13.020  0.00  0.00    +0.000 C 
ATOM     21  C   UNL     1       6.444   4.539  14.264  0.00  0.00    +0.000 A 
ATOM     22  N   UNL     1       7.460   5.204  14.765  0.00  0.00    +0.000 NA
ATOM     23  N   UNL     1       7.039   5.811  15.928  0.00  0.00    +0.000 NA
ATOM     24  C   UNL     1       5.777   5.484  16.136  0.00  0.00    +0.000 A 
ATOM     25  N   UNL     1       5.368   4.697  15.090  0.00  0.00    +0.000 N 
ATOM     26  H   UNL     1       4.436   4.341  14.941  0.00  0.00    +0.000 HD
ENDBRANCH  14  24
ENDBRANCH   1  17
BRANCH  11  27
ATOM     27  C   UNL     1      -0.309  14.072  19.256  0.00  0.00    +0.000 C 
BRANCH  27  28
ATOM     28  C   UNL     1       1.107  14.390  19.660  0.00  0.00    +0.000 A 
ATOM     29  C   UNL     1       2.063  14.879  18.758  0.00  0.00    +0.000 A 
ATOM     30  C   UNL     1       3.355  15.171  19.194  0.00  0.00    +0.000 A 
ATOM     31  C   UNL     1       3.693  15.009  20.539  0.00  0.00    +0.000 A 
ATOM     32  C   UNL     1       2.739  14.565  21.451  0.00  0.00    +0.000 A 
ATOM     33  C   UNL     1       1.452  14.259  21.015  0.00  0.00    +0.000 A 
ENDBRANCH  27  28
ENDBRANCH  11  27
TORSDOF 4
ENDMDL
