MODEL 1
REMARK VINA RESULT:      -8.4      0.000      0.000
REMARK  Name = 
REMARK  5 active torsions:
REMARK  status: ('A' for Active; 'I' for Inactive)
REMARK    1  A    between atoms: C_2  and  C_14
REMARK    2  A    between atoms: N_3  and  C_4
REMARK    3  A    between atoms: C_4  and  C_5
REMARK    4  A    between atoms: C_16  and  C_17
REMARK    5  A    between atoms: C_22  and  O_23
REMARK                            x       y       z     vdW  Elec       q    Type
REMARK                         _______ _______ _______ _____ _____    ______ ____
ROOT
ATOM      1  O   UNL     1       7.718   6.689  16.310  0.00  0.00    +0.000 OA
ATOM      2  C   UNL     1       7.315   7.007  17.423  0.00  0.00    +0.000 C 
ATOM      3  N   UNL     1       7.611   8.217  18.010  0.00  0.00    +0.000 N 
ATOM      4  H   UNL     1       7.419   8.339  18.993  0.00  0.00    +0.000 HD
ENDROOT
BRANCH   2   5
ATOM      5  C   UNL     1       6.496   6.137  18.221  0.00  0.00    +0.000 A 
ATOM      6  C   UNL     1       5.148   5.854  18.200  0.00  0.00    +0.000 A 
ATOM      7  C   UNL     1       4.909   4.929  19.250  0.00  0.00    +0.000 A 
ATOM      8  N   UNL     1       6.067   4.607  19.855  0.00  0.00    +0.000 NA
ATOM      9  N   UNL     1       6.991   5.355  19.229  0.00  0.00    +0.000 N 
ATOM     10  H   UNL     1       7.961   5.294  19.529  0.00  0.00    +0.000 HD
BRANCH   7  11
ATOM     11  C   UNL     1       3.620   4.349  19.644  0.00  0.00    +0.000 A 
ATOM     12  C   UNL     1       2.580   5.194  20.066  0.00  0.00    +0.000 A 
ATOM     13  C   UNL     1       1.351   4.669  20.476  0.00  0.00    +0.000 A 
ATOM     14  C   UNL     1       1.139   3.293  20.461  0.00  0.00    +0.000 A 
ATOM     15  C   UNL     1       2.155   2.438  20.040  0.00  0.00    +0.000 A 
ATOM     16  C   UNL     1       3.386   2.963  19.636  0.00  0.00    +0.000 A 
BRANCH  16  17
ATOM     17  O   UNL     1       4.360   2.090  19.220  0.00  0.00    +0.000 OA
ATOM     18  H   UNL     1       4.228   1.236  19.661  0.00  0.00    +0.000 HD
ENDBRANCH  16  17
ENDBRANCH   7  11
ENDBRANCH   2   5
BRANCH   3  19
ATOM     19  C   UNL     1       8.471   9.184  17.373  0.00  0.00    +0.000 C 
BRANCH  19  20
ATOM     20  C   UNL     1       8.857  10.297  18.318  0.00  0.00    +0.000 A 
ATOM     21  C   UNL     1       9.196  10.004  19.662  0.00  0.00    +0.000 A 
ATOM     22  C   UNL     1       9.486  11.023  20.575  0.00  0.00    +0.000 A 
ATOM     23  C   UNL     1       9.429  12.323  20.126  0.00  0.00    +0.000 A 
ATOM     24  C   UNL     1       9.108  12.621  18.822  0.00  0.00    +0.000 A 
ATOM     25  C   UNL     1       8.822  11.638  17.896  0.00  0.00    +0.000 A 
ATOM     26  O   UNL     1       9.095  13.962  18.587  0.00  0.00    +0.000 OA
ATOM     27  C   UNL     1       9.415  14.471  19.899  0.00  0.00    +0.000 C 
ATOM     28  O   UNL     1       9.656  13.436  20.874  0.00  0.00    +0.000 OA
ENDBRANCH  19  20
ENDBRANCH   3  19
TORSDOF 5
ENDMDL
MODEL 2
REMARK VINA RESULT:      -8.3      5.258      7.419
REMARK  Name = 
REMARK  5 active torsions:
REMARK  status: ('A' for Active; 'I' for Inactive)
REMARK    1  A    between atoms: C_2  and  C_14
REMARK    2  A    between atoms: N_3  and  C_4
REMARK    3  A    between atoms: C_4  and  C_5
REMARK    4  A    between atoms: C_16  and  C_17
REMARK    5  A    between atoms: C_22  and  O_23
REMARK                            x       y       z     vdW  Elec       q    Type
REMARK                         _______ _______ _______ _____ _____    ______ ____
ROOT
ATOM      1  O   UNL     1       5.681   5.550  19.866  0.00  0.00    +0.000 OA
ATOM      2  C   UNL     1       5.094   5.349  18.808  0.00  0.00    +0.000 C 
ATOM      3  N   UNL     1       3.726   5.440  18.681  0.00  0.00    +0.000 N 
ATOM      4  H   UNL     1       3.291   5.075  17.847  0.00  0.00    +0.000 HD
ENDROOT
BRANCH   2   5
ATOM      5  C   UNL     1       5.787   4.992  17.601  0.00  0.00    +0.000 A 
ATOM      6  C   UNL     1       5.405   4.990  16.278  0.00  0.00    +0.000 A 
ATOM      7  C   UNL     1       6.515   4.513  15.533  0.00  0.00    +0.000 A 
ATOM      8  N   UNL     1       7.559   4.287  16.353  0.00  0.00    +0.000 NA
ATOM      9  N   UNL     1       7.088   4.567  17.580  0.00  0.00    +0.000 N 
ATOM     10  H   UNL     1       7.702   4.455  18.382  0.00  0.00    +0.000 HD
BRANCH   7  11
ATOM     11  C   UNL     1       6.587   4.306  14.083  0.00  0.00    +0.000 A 
ATOM     12  C   UNL     1       5.672   3.440  13.460  0.00  0.00    +0.000 A 
ATOM     13  C   UNL     1       5.734   3.199  12.084  0.00  0.00    +0.000 A 
ATOM     14  C   UNL     1       6.705   3.827  11.309  0.00  0.00    +0.000 A 
ATOM     15  C   UNL     1       7.617   4.696  11.904  0.00  0.00    +0.000 A 
ATOM     16  C   UNL     1       7.559   4.931  13.281  0.00  0.00    +0.000 A 
BRANCH  16  17
ATOM     17  O   UNL     1       8.468   5.797  13.832  0.00  0.00    +0.000 OA
ATOM     18  H   UNL     1       8.751   6.432  13.154  0.00  0.00    +0.000 HD
ENDBRANCH  16  17
ENDBRANCH   7  11
ENDBRANCH   2   5
BRANCH   3  19
ATOM     19  C   UNL     1       2.872   5.730  19.807  0.00  0.00    +0.000 C 
BRANCH  19  20
ATOM     20  C   UNL     1       2.202   7.076  19.670  0.00  0.00    +0.000 A 
ATOM     21  C   UNL     1       2.256   7.775  18.439  0.00  0.00    +0.000 A 
ATOM     22  C   UNL     1       1.706   9.054  18.307  0.00  0.00    +0.000 A 
ATOM     23  C   UNL     1       1.113   9.615  19.416  0.00  0.00    +0.000 A 
ATOM     24  C   UNL     1       1.048   8.945  20.615  0.00  0.00    +0.000 A 
ATOM     25  C   UNL     1       1.576   7.679  20.774  0.00  0.00    +0.000 A 
ATOM     26  O   UNL     1       0.434   9.677  21.583  0.00  0.00    +0.000 OA
ATOM     27  C   UNL     1       0.147  10.895  20.863  0.00  0.00    +0.000 C 
ATOM     28  O   UNL     1       0.550  10.851  19.479  0.00  0.00    +0.000 OA
ENDBRANCH  19  20
ENDBRANCH   3  19
TORSDOF 5
ENDMDL
MODEL 3
REMARK VINA RESULT:      -8.2      2.123      9.176
REMARK  Name = 
REMARK  5 active torsions:
REMARK  status: ('A' for Active; 'I' for Inactive)
REMARK    1  A    between atoms: C_2  and  C_14
REMARK    2  A    between atoms: N_3  and  C_4
REMARK    3  A    between atoms: C_4  and  C_5
REMARK    4  A    between atoms: C_16  and  C_17
REMARK    5  A    between atoms: C_22  and  O_23
REMARK                            x       y       z     vdW  Elec       q    Type
REMARK                         _______ _______ _______ _____ _____    ______ ____
ROOT
ATOM      1  O   UNL     1       7.914   6.487  18.342  0.00  0.00    +0.000 OA
ATOM      2  C   UNL     1       7.574   7.577  17.894  0.00  0.00    +0.000 C 
ATOM      3  N   UNL     1       6.494   7.739  17.057  0.00  0.00    +0.000 N 
ATOM      4  H   UNL     1       6.385   8.616  16.569  0.00  0.00    +0.000 HD
ENDROOT
BRANCH   2   5
ATOM      5  C   UNL     1       8.283   8.789  18.202  0.00  0.00    +0.000 A 
ATOM      6  C   UNL     1       8.351  10.010  17.569  0.00  0.00    +0.000 A 
ATOM      7  C   UNL     1       9.235  10.817  18.333  0.00  0.00    +0.000 A 
ATOM      8  N   UNL     1       9.649  10.144  19.423  0.00  0.00    +0.000 NA
ATOM      9  N   UNL     1       9.076   8.934  19.308  0.00  0.00    +0.000 N 
ATOM     10  H   UNL     1       9.257   8.232  20.021  0.00  0.00    +0.000 HD
BRANCH   7  11
ATOM     11  C   UNL     1       9.650  12.194  18.046  0.00  0.00    +0.000 A 
ATOM     12  C   UNL     1       8.738  13.246  18.235  0.00  0.00    +0.000 A 
ATOM     13  C   UNL     1       9.095  14.566  17.942  0.00  0.00    +0.000 A 
ATOM     14  C   UNL     1      10.370  14.855  17.464  0.00  0.00    +0.000 A 
ATOM     15  C   UNL     1      11.292  13.828  17.277  0.00  0.00    +0.000 A 
ATOM     16  C   UNL     1      10.933  12.507  17.564  0.00  0.00    +0.000 A 
BRANCH  16  17
ATOM     17  O   UNL     1      11.869  11.523  17.374  0.00  0.00    +0.000 OA
ATOM     18  H   UNL     1      12.142  11.522  16.443  0.00  0.00    +0.000 HD
ENDBRANCH  16  17
ENDBRANCH   7  11
ENDBRANCH   2   5
BRANCH   3  19
ATOM     19  C   UNL     1       5.708   6.619  16.599  0.00  0.00    +0.000 C 
BRANCH  19  20
ATOM     20  C   UNL     1       4.582   6.299  17.552  0.00  0.00    +0.000 A 
ATOM     21  C   UNL     1       3.522   7.221  17.737  0.00  0.00    +0.000 A 
ATOM     22  C   UNL     1       2.506   6.981  18.668  0.00  0.00    +0.000 A 
ATOM     23  C   UNL     1       2.571   5.818  19.402  0.00  0.00    +0.000 A 
ATOM     24  C   UNL     1       3.589   4.911  19.228  0.00  0.00    +0.000 A 
ATOM     25  C   UNL     1       4.603   5.118  18.314  0.00  0.00    +0.000 A 
ATOM     26  O   UNL     1       3.474   3.839  20.058  0.00  0.00    +0.000 OA
ATOM     27  C   UNL     1       2.283   4.191  20.793  0.00  0.00    +0.000 C 
ATOM     28  O   UNL     1       1.688   5.432  20.362  0.00  0.00    +0.000 OA
ENDBRANCH  19  20
ENDBRANCH   3  19
TORSDOF 5
ENDMDL
MODEL 4
REMARK VINA RESULT:      -8.1      1.818      9.100
REMARK  Name = 
REMARK  5 active torsions:
REMARK  status: ('A' for Active; 'I' for Inactive)
REMARK    1  A    between atoms: C_2  and  C_14
REMARK    2  A    between atoms: N_3  and  C_4
REMARK    3  A    between atoms: C_4  and  C_5
REMARK    4  A    between atoms: C_16  and  C_17
REMARK    5  A    between atoms: C_22  and  O_23
REMARK                            x       y       z     vdW  Elec       q    Type
REMARK                         _______ _______ _______ _____ _____    ______ ____
ROOT
ATOM      1  O   UNL     1       6.003   6.808  15.874  0.00  0.00    +0.000 OA
ATOM      2  C   UNL     1       6.476   6.495  16.961  0.00  0.00    +0.000 C 
ATOM      3  N   UNL     1       6.214   5.292  17.575  0.00  0.00    +0.000 N 
ATOM      4  H   UNL     1       6.470   5.175  18.544  0.00  0.00    +0.000 HD
ENDROOT
BRANCH   2   5
ATOM      5  C   UNL     1       7.350   7.367  17.697  0.00  0.00    +0.000 A 
ATOM      6  C   UNL     1       7.620   8.713  17.595  0.00  0.00    +0.000 A 
ATOM      7  C   UNL     1       8.593   9.011  18.584  0.00  0.00    +0.000 A 
ATOM      8  N   UNL     1       8.870   7.909  19.306  0.00  0.00    +0.000 NA
ATOM      9  N   UNL     1       8.125   6.944  18.744  0.00  0.00    +0.000 N 
ATOM     10  H   UNL     1       8.178   5.999  19.116  0.00  0.00    +0.000 HD
BRANCH   7  11
ATOM     11  C   UNL     1       9.218  10.311  18.850  0.00  0.00    +0.000 A 
ATOM     12  C   UNL     1       9.651  11.105  17.774  0.00  0.00    +0.000 A 
ATOM     13  C   UNL     1      10.278  12.335  17.996  0.00  0.00    +0.000 A 
ATOM     14  C   UNL     1      10.472  12.795  19.296  0.00  0.00    +0.000 A 
ATOM     15  C   UNL     1      10.044  12.027  20.377  0.00  0.00    +0.000 A 
ATOM     16  C   UNL     1       9.424  10.794  20.154  0.00  0.00    +0.000 A 
BRANCH  16  17
ATOM     17  O   UNL     1       9.010  10.069  21.243  0.00  0.00    +0.000 OA
ATOM     18  H   UNL     1       8.288   9.479  20.974  0.00  0.00    +0.000 HD
ENDBRANCH  16  17
ENDBRANCH   7  11
ENDBRANCH   2   5
BRANCH   3  19
ATOM     19  C   UNL     1       5.310   4.324  17.002  0.00  0.00    +0.000 C 
BRANCH  19  20
ATOM     20  C   UNL     1       4.118   4.075  17.895  0.00  0.00    +0.000 A 
ATOM     21  C   UNL     1       2.849   4.605  17.553  0.00  0.00    +0.000 A 
ATOM     22  C   UNL     1       1.747   4.450  18.399  0.00  0.00    +0.000 A 
ATOM     23  C   UNL     1       1.935   3.769  19.580  0.00  0.00    +0.000 A 
ATOM     24  C   UNL     1       3.159   3.244  19.922  0.00  0.00    +0.000 A 
ATOM     25  C   UNL     1       4.265   3.375  19.105  0.00  0.00    +0.000 A 
ATOM     26  O   UNL     1       3.135   2.621  21.132  0.00  0.00    +0.000 OA
ATOM     27  C   UNL     1       1.763   2.841  21.523  0.00  0.00    +0.000 C 
ATOM     28  O   UNL     1       0.989   3.544  20.530  0.00  0.00    +0.000 OA
ENDBRANCH  19  20
ENDBRANCH   3  19
TORSDOF 5
ENDMDL
MODEL 5
REMARK VINA RESULT:      -8.0      1.954      9.246
REMARK  Name = 
REMARK  5 active torsions:
REMARK  status: ('A' for Active; 'I' for Inactive)
REMARK    1  A    between atoms: C_2  and  C_14
REMARK    2  A    between atoms: N_3  and  C_4
REMARK    3  A    between atoms: C_4  and  C_5
REMARK    4  A    between atoms: C_16  and  C_17
REMARK    5  A    between atoms: C_22  and  O_23
REMARK                            x       y       z     vdW  Elec       q    Type
REMARK                         _______ _______ _______ _____ _____    ______ ____
ROOT
ATOM      1  O   UNL     1       7.738   5.349  19.166  0.00  0.00    +0.000 OA
ATOM      2  C   UNL     1       7.430   6.158  18.297  0.00  0.00    +0.000 C 
ATOM      3  N   UNL     1       6.608   5.846  17.239  0.00  0.00    +0.000 N 
ATOM      4  H   UNL     1       6.551   6.487  16.462  0.00  0.00    +0.000 HD
ENDROOT
BRANCH   2   5
ATOM      5  C   UNL     1       7.908   7.513  18.306  0.00  0.00    +0.000 A 
ATOM      6  C   UNL     1       8.751   8.195  19.155  0.00  0.00    +0.000 A 
ATOM      7  C   UNL     1       8.836   9.525  18.666  0.00  0.00    +0.000 A 
ATOM      8  N   UNL     1       8.124   9.646  17.530  0.00  0.00    +0.000 NA
ATOM      9  N   UNL     1       7.572   8.434  17.350  0.00  0.00    +0.000 N 
ATOM     10  H   UNL     1       6.966   8.282  16.548  0.00  0.00    +0.000 HD
BRANCH   7  11
ATOM     11  C   UNL     1       9.593  10.637  19.249  0.00  0.00    +0.000 A 
ATOM     12  C   UNL     1       9.356  11.015  20.582  0.00  0.00    +0.000 A 
ATOM     13  C   UNL     1      10.041  12.091  21.156  0.00  0.00    +0.000 A 
ATOM     14  C   UNL     1      10.980  12.798  20.410  0.00  0.00    +0.000 A 
ATOM     15  C   UNL     1      11.237  12.435  19.090  0.00  0.00    +0.000 A 
ATOM     16  C   UNL     1      10.547  11.364  18.514  0.00  0.00    +0.000 A 
BRANCH  16  17
ATOM     17  O   UNL     1      10.831  11.032  17.214  0.00  0.00    +0.000 OA
ATOM     18  H   UNL     1      11.688  11.415  16.970  0.00  0.00    +0.000 HD
ENDBRANCH  16  17
ENDBRANCH   7  11
ENDBRANCH   2   5
BRANCH   3  19
ATOM     19  C   UNL     1       6.087   4.514  17.044  0.00  0.00    +0.000 C 
BRANCH  19  20
ATOM     20  C   UNL     1       4.716   4.354  17.656  0.00  0.00    +0.000 A 
ATOM     21  C   UNL     1       3.713   5.325  17.418  0.00  0.00    +0.000 A 
ATOM     22  C   UNL     1       2.459   5.238  18.031  0.00  0.00    +0.000 A 
ATOM     23  C   UNL     1       2.232   4.178  18.879  0.00  0.00    +0.000 A 
ATOM     24  C   UNL     1       3.194   3.224  19.114  0.00  0.00    +0.000 A 
ATOM     25  C   UNL     1       4.439   3.280  18.519  0.00  0.00    +0.000 A 
ATOM     26  O   UNL     1       2.774   2.271  19.989  0.00  0.00    +0.000 OA
ATOM     27  C   UNL     1       1.449   2.751  20.299  0.00  0.00    +0.000 C 
ATOM     28  O   UNL     1       1.088   3.946  19.576  0.00  0.00    +0.000 OA
ENDBRANCH  19  20
ENDBRANCH   3  19
TORSDOF 5
ENDMDL
MODEL 6
REMARK VINA RESULT:      -8.0      1.906      9.190
REMARK  Name = 
REMARK  5 active torsions:
REMARK  status: ('A' for Active; 'I' for Inactive)
REMARK    1  A    between atoms: C_2  and  C_14
REMARK    2  A    between atoms: N_3  and  C_4
REMARK    3  A    between atoms: C_4  and  C_5
REMARK    4  A    between atoms: C_16  and  C_17
REMARK    5  A    between atoms: C_22  and  O_23
REMARK                            x       y       z     vdW  Elec       q    Type
REMARK                         _______ _______ _______ _____ _____    ______ ____
ROOT
ATOM      1  O   UNL     1       7.750   5.325  19.310  0.00  0.00    +0.000 OA
ATOM      2  C   UNL     1       7.350   6.077  18.428  0.00  0.00    +0.000 C 
ATOM      3  N   UNL     1       6.442   5.692  17.468  0.00  0.00    +0.000 N 
ATOM      4  H   UNL     1       6.305   6.286  16.664  0.00  0.00    +0.000 HD
ENDROOT
BRANCH   2   5
ATOM      5  C   UNL     1       7.803   7.437  18.315  0.00  0.00    +0.000 A 
ATOM      6  C   UNL     1       8.771   8.151  18.985  0.00  0.00    +0.000 A 
ATOM      7  C   UNL     1       8.750   9.467  18.451  0.00  0.00    +0.000 A 
ATOM      8  N   UNL     1       7.850   9.546  17.454  0.00  0.00    +0.000 NA
ATOM      9  N   UNL     1       7.292   8.325  17.407  0.00  0.00    +0.000 N 
ATOM     10  H   UNL     1       6.558   8.143  16.727  0.00  0.00    +0.000 HD
BRANCH   7  11
ATOM     11  C   UNL     1       9.581  10.603  18.862  0.00  0.00    +0.000 A 
ATOM     12  C   UNL     1      10.257  11.356  17.888  0.00  0.00    +0.000 A 
ATOM     13  C   UNL     1      11.080  12.426  18.251  0.00  0.00    +0.000 A 
ATOM     14  C   UNL     1      11.233  12.766  19.593  0.00  0.00    +0.000 A 
ATOM     15  C   UNL     1      10.566  12.037  20.575  0.00  0.00    +0.000 A 
ATOM     16  C   UNL     1       9.748  10.963  20.212  0.00  0.00    +0.000 A 
BRANCH  16  17
ATOM     17  O   UNL     1       9.102  10.273  21.206  0.00  0.00    +0.000 OA
ATOM     18  H   UNL     1       8.245  10.695  21.378  0.00  0.00    +0.000 HD
ENDBRANCH  16  17
ENDBRANCH   7  11
ENDBRANCH   2   5
BRANCH   3  19
ATOM     19  C   UNL     1       5.930   4.345  17.399  0.00  0.00    +0.000 C 
BRANCH  19  20
ATOM     20  C   UNL     1       4.593   4.218  18.088  0.00  0.00    +0.000 A 
ATOM     21  C   UNL     1       3.468   4.925  17.596  0.00  0.00    +0.000 A 
ATOM     22  C   UNL     1       2.237   4.881  18.259  0.00  0.00    +0.000 A 
ATOM     23  C   UNL     1       2.155   4.131  19.411  0.00  0.00    +0.000 A 
ATOM     24  C   UNL     1       3.237   3.435  19.896  0.00  0.00    +0.000 A 
ATOM     25  C   UNL     1       4.463   3.454  19.261  0.00  0.00    +0.000 A 
ATOM     26  O   UNL     1       2.949   2.770  21.048  0.00  0.00    +0.000 OA
ATOM     27  C   UNL     1       1.571   3.152  21.245  0.00  0.00    +0.000 C 
ATOM     28  O   UNL     1       1.053   3.993  20.194  0.00  0.00    +0.000 OA
ENDBRANCH  19  20
ENDBRANCH   3  19
TORSDOF 5
ENDMDL
MODEL 7
REMARK VINA RESULT:      -8.0      6.204      8.625
REMARK  Name = 
REMARK  5 active torsions:
REMARK  status: ('A' for Active; 'I' for Inactive)
REMARK    1  A    between atoms: C_2  and  C_14
REMARK    2  A    between atoms: N_3  and  C_4
REMARK    3  A    between atoms: C_4  and  C_5
REMARK    4  A    between atoms: C_16  and  C_17
REMARK    5  A    between atoms: C_22  and  O_23
REMARK                            x       y       z     vdW  Elec       q    Type
REMARK                         _______ _______ _______ _____ _____    ______ ____
ROOT
ATOM      1  O   UNL     1       0.556   8.341  21.500  0.00  0.00    +0.000 OA
ATOM      2  C   UNL     1       1.136   8.560  20.443  0.00  0.00    +0.000 C 
ATOM      3  N   UNL     1       0.999   9.736  19.742  0.00  0.00    +0.000 N 
ATOM      4  H   UNL     1       1.340   9.779  18.793  0.00  0.00    +0.000 HD
ENDROOT
BRANCH   2   5
ATOM      5  C   UNL     1       2.013   7.597  19.835  0.00  0.00    +0.000 A 
ATOM      6  C   UNL     1       2.567   7.510  18.577  0.00  0.00    +0.000 A 
ATOM      7  C   UNL     1       3.336   6.318  18.551  0.00  0.00    +0.000 A 
ATOM      8  N   UNL     1       3.308   5.723  19.758  0.00  0.00    +0.000 NA
ATOM      9  N   UNL     1       2.499   6.502  20.496  0.00  0.00    +0.000 N 
ATOM     10  H   UNL     1       2.309   6.242  21.461  0.00  0.00    +0.000 HD
BRANCH   7  11
ATOM     11  C   UNL     1       4.096   5.778  17.418  0.00  0.00    +0.000 A 
ATOM     12  C   UNL     1       4.735   6.658  16.529  0.00  0.00    +0.000 A 
ATOM     13  C   UNL     1       5.441   6.174  15.424  0.00  0.00    +0.000 A 
ATOM     14  C   UNL     1       5.527   4.803  15.196  0.00  0.00    +0.000 A 
ATOM     15  C   UNL     1       4.907   3.912  16.069  0.00  0.00    +0.000 A 
ATOM     16  C   UNL     1       4.196   4.397  17.170  0.00  0.00    +0.000 A 
BRANCH  16  17
ATOM     17  O   UNL     1       3.604   3.490  18.012  0.00  0.00    +0.000 OA
ATOM     18  H   UNL     1       3.178   2.798  17.483  0.00  0.00    +0.000 HD
ENDBRANCH  16  17
ENDBRANCH   7  11
ENDBRANCH   2   5
BRANCH   3  19
ATOM     19  C   UNL     1       0.112  10.787  20.179  0.00  0.00    +0.000 C 
BRANCH  19  20
ATOM     20  C   UNL     1      -1.021  11.004  19.204  0.00  0.00    +0.000 A 
ATOM     21  C   UNL     1      -2.102  11.852  19.547  0.00  0.00    +0.000 A 
ATOM     22  C   UNL     1      -3.198  12.013  18.693  0.00  0.00    +0.000 A 
ATOM     23  C   UNL     1      -3.193  11.315  17.506  0.00  0.00    +0.000 A 
ATOM     24  C   UNL     1      -2.147  10.493  17.157  0.00  0.00    +0.000 A 
ATOM     25  C   UNL     1      -1.049  10.319  17.977  0.00  0.00    +0.000 A 
ATOM     26  O   UNL     1      -2.344   9.889  15.954  0.00  0.00    +0.000 OA
ATOM     27  C   UNL     1      -3.646  10.403  15.601  0.00  0.00    +0.000 C 
ATOM     28  O   UNL     1      -4.178  11.330  16.569  0.00  0.00    +0.000 OA
ENDBRANCH  19  20
ENDBRANCH   3  19
TORSDOF 5
ENDMDL
MODEL 8
REMARK VINA RESULT:      -8.0      0.634      1.340
REMARK  Name = 
REMARK  5 active torsions:
REMARK  status: ('A' for Active; 'I' for Inactive)
REMARK    1  A    between atoms: C_2  and  C_14
REMARK    2  A    between atoms: N_3  and  C_4
REMARK    3  A    between atoms: C_4  and  C_5
REMARK    4  A    between atoms: C_16  and  C_17
REMARK    5  A    between atoms: C_22  and  O_23
REMARK                            x       y       z     vdW  Elec       q    Type
REMARK                         _______ _______ _______ _____ _____    ______ ____
ROOT
ATOM      1  O   UNL     1       7.825   6.787  16.329  0.00  0.00    +0.000 OA
ATOM      2  C   UNL     1       7.478   7.085  17.467  0.00  0.00    +0.000 C 
ATOM      3  N   UNL     1       7.833   8.269  18.073  0.00  0.00    +0.000 N 
ATOM      4  H   UNL     1       7.686   8.370  19.066  0.00  0.00    +0.000 HD
ENDROOT
BRANCH   2   5
ATOM      5  C   UNL     1       6.668   6.217  18.276  0.00  0.00    +0.000 A 
ATOM      6  C   UNL     1       5.329   5.899  18.242  0.00  0.00    +0.000 A 
ATOM      7  C   UNL     1       5.096   4.996  19.313  0.00  0.00    +0.000 A 
ATOM      8  N   UNL     1       6.253   4.720  19.944  0.00  0.00    +0.000 NA
ATOM      9  N   UNL     1       7.168   5.474  19.312  0.00  0.00    +0.000 N 
ATOM     10  H   UNL     1       8.134   5.446  19.627  0.00  0.00    +0.000 HD
BRANCH   7  11
ATOM     11  C   UNL     1       3.817   4.395  19.703  0.00  0.00    +0.000 A 
ATOM     12  C   UNL     1       2.704   5.221  19.933  0.00  0.00    +0.000 A 
ATOM     13  C   UNL     1       1.478   4.679  20.335  0.00  0.00    +0.000 A 
ATOM     14  C   UNL     1       1.345   3.304  20.504  0.00  0.00    +0.000 A 
ATOM     15  C   UNL     1       2.434   2.466  20.274  0.00  0.00    +0.000 A 
ATOM     16  C   UNL     1       3.660   3.008  19.879  0.00  0.00    +0.000 A 
BRANCH  16  17
ATOM     17  O   UNL     1       4.708   2.151  19.655  0.00  0.00    +0.000 OA
ATOM     18  H   UNL     1       4.611   1.757  18.774  0.00  0.00    +0.000 HD
ENDBRANCH  16  17
ENDBRANCH   7  11
ENDBRANCH   2   5
BRANCH   3  19
ATOM     19  C   UNL     1       8.693   9.230  17.426  0.00  0.00    +0.000 C 
BRANCH  19  20
ATOM     20  C   UNL     1       8.808  10.505  18.225  0.00  0.00    +0.000 A 
ATOM     21  C   UNL     1       8.519  11.754  17.621  0.00  0.00    +0.000 A 
ATOM     22  C   UNL     1       8.689  12.954  18.318  0.00  0.00    +0.000 A 
ATOM     23  C   UNL     1       9.151  12.884  19.613  0.00  0.00    +0.000 A 
ATOM     24  C   UNL     1       9.429  11.679  20.215  0.00  0.00    +0.000 A 
ATOM     25  C   UNL     1       9.266  10.477  19.554  0.00  0.00    +0.000 A 
ATOM     26  O   UNL     1       9.884  11.830  21.488  0.00  0.00    +0.000 OA
ATOM     27  C   UNL     1       9.888  13.269  21.607  0.00  0.00    +0.000 C 
ATOM     28  O   UNL     1       9.396  13.943  20.430  0.00  0.00    +0.000 OA
ENDBRANCH  19  20
ENDBRANCH   3  19
TORSDOF 5
ENDMDL
MODEL 9
REMARK VINA RESULT:      -8.0      5.368      7.341
REMARK  Name = 
REMARK  5 active torsions:
REMARK  status: ('A' for Active; 'I' for Inactive)
REMARK    1  A    between atoms: C_2  and  C_14
REMARK    2  A    between atoms: N_3  and  C_4
REMARK    3  A    between atoms: C_4  and  C_5
REMARK    4  A    between atoms: C_16  and  C_17
REMARK    5  A    between atoms: C_22  and  O_23
REMARK                            x       y       z     vdW  Elec       q    Type
REMARK                         _______ _______ _______ _____ _____    ______ ____
ROOT
ATOM      1  O   UNL     1       4.274   3.483  19.809  0.00  0.00    +0.000 OA
ATOM      2  C   UNL     1       4.270   4.358  18.950  0.00  0.00    +0.000 C 
ATOM      3  N   UNL     1       3.445   5.459  19.005  0.00  0.00    +0.000 N 
ATOM      4  H   UNL     1       3.347   6.034  18.182  0.00  0.00    +0.000 HD
ENDROOT
BRANCH   2   5
ATOM      5  C   UNL     1       5.130   4.310  17.800  0.00  0.00    +0.000 A 
ATOM      6  C   UNL     1       4.872   4.316  16.447  0.00  0.00    +0.000 A 
ATOM      7  C   UNL     1       6.128   4.227  15.792  0.00  0.00    +0.000 A 
ATOM      8  N   UNL     1       7.124   4.225  16.699  0.00  0.00    +0.000 NA
ATOM      9  N   UNL     1       6.496   4.260  17.886  0.00  0.00    +0.000 N 
ATOM     10  H   UNL     1       7.050   4.252  18.738  0.00  0.00    +0.000 HD
BRANCH   7  11
ATOM     11  C   UNL     1       6.372   4.172  14.347  0.00  0.00    +0.000 A 
ATOM     12  C   UNL     1       5.571   3.347  13.539  0.00  0.00    +0.000 A 
ATOM     13  C   UNL     1       5.798   3.251  12.163  0.00  0.00    +0.000 A 
ATOM     14  C   UNL     1       6.823   3.985  11.572  0.00  0.00    +0.000 A 
ATOM     15  C   UNL     1       7.625   4.815  12.352  0.00  0.00    +0.000 A 
ATOM     16  C   UNL     1       7.401   4.905  13.730  0.00  0.00    +0.000 A 
BRANCH  16  17
ATOM     17  O   UNL     1       8.206   5.738  14.465  0.00  0.00    +0.000 OA
ATOM     18  H   UNL     1       8.141   5.494  15.402  0.00  0.00    +0.000 HD
ENDBRANCH  16  17
ENDBRANCH   7  11
ENDBRANCH   2   5
BRANCH   3  19
ATOM     19  C   UNL     1       2.476   5.635  20.060  0.00  0.00    +0.000 C 
BRANCH  19  20
ATOM     20  C   UNL     1       1.950   7.049  20.105  0.00  0.00    +0.000 A 
ATOM     21  C   UNL     1       1.218   7.501  21.231  0.00  0.00    +0.000 A 
ATOM     22  C   UNL     1       0.657   8.782  21.266  0.00  0.00    +0.000 A 
ATOM     23  C   UNL     1       0.836   9.590  20.166  0.00  0.00    +0.000 A 
ATOM     24  C   UNL     1       1.549   9.168  19.069  0.00  0.00    +0.000 A 
ATOM     25  C   UNL     1       2.120   7.911  19.008  0.00  0.00    +0.000 A 
ATOM     26  O   UNL     1       1.598  10.110  18.089  0.00  0.00    +0.000 OA
ATOM     27  C   UNL     1       0.809  11.162  18.685  0.00  0.00    +0.000 C 
ATOM     28  O   UNL     1       0.346  10.849  20.015  0.00  0.00    +0.000 OA
ENDBRANCH  19  20
ENDBRANCH   3  19
TORSDOF 5
ENDMDL
