MODEL 1
REMARK VINA RESULT:      -8.0      0.000      0.000
REMARK  Name = 
REMARK  3 active torsions:
REMARK  status: ('A' for Active; 'I' for Inactive)
REMARK    1  A    between atoms: C_1  and  C_2
REMARK    2  A    between atoms: C_7  and  C_8
REMARK    3  A    between atoms: C_16  and  C_17
REMARK                            x       y       z     vdW  Elec       q    Type
REMARK                         _______ _______ _______ _____ _____    ______ ____
ROOT
ATOM      1  C   UNL     1      -1.283  12.537  22.632  0.00  0.00    +0.000 C 
ATOM      2  C   UNL     1      -0.724  11.175  22.453  0.00  0.00    +0.000 A 
ATOM      3  N   UNL     1      -0.771  10.311  23.476  0.00  0.00    +0.000 NA
ATOM      4  O   UNL     1      -0.132   9.167  23.034  0.00  0.00    +0.000 OA
ATOM      5  C   UNL     1       0.303   9.350  21.758  0.00  0.00    +0.000 A 
ATOM      6  N   UNL     1       1.004   8.422  21.079  0.00  0.00    +0.000 NA
ATOM      7  C   UNL     1       1.380   8.788  19.833  0.00  0.00    +0.000 A 
ATOM      8  C   UNL     1       1.036  10.021  19.269  0.00  0.00    +0.000 A 
ATOM      9  C   UNL     1       0.315  10.961  20.025  0.00  0.00    +0.000 A 
ATOM     10  C   UNL     1      -0.064  10.611  21.328  0.00  0.00    +0.000 A 
ENDROOT
BRANCH   9  11
ATOM     11  C   UNL     1      -0.061  12.271  19.450  0.00  0.00    +0.000 C 
ATOM     12  O   UNL     1      -1.143  12.363  18.880  0.00  0.00    +0.000 OA
ATOM     13  N   UNL     1       0.834  13.339  19.562  0.00  0.00    +0.000 N 
ATOM     14  C   UNL     1       0.452  14.613  18.950  0.00  0.00    +0.000 C 
ATOM     15  C   UNL     1       1.636  15.560  18.677  0.00  0.00    +0.000 C 
ATOM     16  C   UNL     1       2.843  15.349  19.560  0.00  0.00    +0.000 A 
ATOM     17  C   UNL     1       3.986  16.144  19.390  0.00  0.00    +0.000 A 
ATOM     18  C   UNL     1       5.128  15.912  20.160  0.00  0.00    +0.000 A 
ATOM     19  C   UNL     1       5.139  14.893  21.110  0.00  0.00    +0.000 A 
ATOM     20  C   UNL     1       4.009  14.105  21.291  0.00  0.00    +0.000 A 
ATOM     21  C   UNL     1       2.860  14.323  20.520  0.00  0.00    +0.000 A 
ATOM     22  C   UNL     1       1.639  13.490  20.765  0.00  0.00    +0.000 C 
ENDBRANCH   9  11
BRANCH   7  23
ATOM     23  C   UNL     1       2.225   7.789  19.136  0.00  0.00    +0.000 A 
ATOM     24  C   UNL     1       2.456   6.520  19.712  0.00  0.00    +0.000 A 
ATOM     25  C   UNL     1       3.303   5.583  19.110  0.00  0.00    +0.000 A 
ATOM     26  C   UNL     1       3.937   5.906  17.920  0.00  0.00    +0.000 A 
ATOM     27  F   UNL     1       4.771   5.024  17.354  0.00  0.00    +0.000 F 
ATOM     28  C   UNL     1       3.729   7.138  17.316  0.00  0.00    +0.000 A 
ATOM     29  C   UNL     1       2.878   8.074  17.917  0.00  0.00    +0.000 A 
ENDBRANCH   7  23
TORSDOF 2
ENDMDL
MODEL 2
REMARK VINA RESULT:      -7.4      0.943      1.392
REMARK  Name = 
REMARK  3 active torsions:
REMARK  status: ('A' for Active; 'I' for Inactive)
REMARK    1  A    between atoms: C_1  and  C_2
REMARK    2  A    between atoms: C_7  and  C_8
REMARK    3  A    between atoms: C_16  and  C_17
REMARK                            x       y       z     vdW  Elec       q    Type
REMARK                         _______ _______ _______ _____ _____    ______ ____
ROOT
ATOM      1  C   UNL     1      -1.210  13.764  22.263  0.00  0.00    +0.000 C 
ATOM      2  C   UNL     1      -0.938  12.306  22.303  0.00  0.00    +0.000 A 
ATOM      3  N   UNL     1      -1.322  11.600  23.375  0.00  0.00    +0.000 NA
ATOM      4  O   UNL     1      -0.887  10.306  23.151  0.00  0.00    +0.000 OA
ATOM      5  C   UNL     1      -0.237  10.242  21.957  0.00  0.00    +0.000 A 
ATOM      6  N   UNL     1       0.340   9.118  21.493  0.00  0.00    +0.000 NA
ATOM      7  C   UNL     1       0.967   9.248  20.303  0.00  0.00    +0.000 A 
ATOM      8  C   UNL     1       0.986  10.446  19.582  0.00  0.00    +0.000 A 
ATOM      9  C   UNL     1       0.380  11.596  20.117  0.00  0.00    +0.000 A 
ATOM     10  C   UNL     1      -0.255  11.489  21.362  0.00  0.00    +0.000 A 
ENDROOT
BRANCH   9  11
ATOM     11  C   UNL     1       0.385  12.874  19.372  0.00  0.00    +0.000 C 
ATOM     12  O   UNL     1      -0.556  13.110  18.622  0.00  0.00    +0.000 OA
ATOM     13  N   UNL     1       1.464  13.746  19.540  0.00  0.00    +0.000 N 
ATOM     14  C   UNL     1       1.461  14.987  18.761  0.00  0.00    +0.000 C 
ATOM     15  C   UNL     1       2.850  15.637  18.609  0.00  0.00    +0.000 C 
ATOM     16  C   UNL     1       3.840  15.298  19.698  0.00  0.00    +0.000 A 
ATOM     17  C   UNL     1       5.140  15.822  19.654  0.00  0.00    +0.000 A 
ATOM     18  C   UNL     1       6.080  15.462  20.622  0.00  0.00    +0.000 A 
ATOM     19  C   UNL     1       5.730  14.585  21.647  0.00  0.00    +0.000 A 
ATOM     20  C   UNL     1       4.442  14.067  21.705  0.00  0.00    +0.000 A 
ATOM     21  C   UNL     1       3.494  14.415  20.734  0.00  0.00    +0.000 A 
ATOM     22  C   UNL     1       2.098  13.879  20.842  0.00  0.00    +0.000 C 
ENDBRANCH   9  11
BRANCH   7  23
ATOM     23  C   UNL     1       1.671   8.022  19.851  0.00  0.00    +0.000 A 
ATOM     24  C   UNL     1       2.333   7.997  18.604  0.00  0.00    +0.000 A 
ATOM     25  C   UNL     1       2.946   6.835  18.122  0.00  0.00    +0.000 A 
ATOM     26  C   UNL     1       2.900   5.677  18.882  0.00  0.00    +0.000 A 
ATOM     27  F   UNL     1       3.461   4.554  18.413  0.00  0.00    +0.000 F 
ATOM     28  C   UNL     1       2.269   5.663  20.118  0.00  0.00    +0.000 A 
ATOM     29  C   UNL     1       1.658   6.827  20.602  0.00  0.00    +0.000 A 
ENDBRANCH   7  23
TORSDOF 2
ENDMDL
MODEL 3
REMARK VINA RESULT:      -7.3      2.345      3.717
REMARK  Name = 
REMARK  3 active torsions:
REMARK  status: ('A' for Active; 'I' for Inactive)
REMARK    1  A    between atoms: C_1  and  C_2
REMARK    2  A    between atoms: C_7  and  C_8
REMARK    3  A    between atoms: C_16  and  C_17
REMARK                            x       y       z     vdW  Elec       q    Type
REMARK                         _______ _______ _______ _____ _____    ______ ____
ROOT
ATOM      1  C   UNL     1      -3.118  12.354  19.534  0.00  0.00    +0.000 C 
ATOM      2  C   UNL     1      -2.263  11.452  18.725  0.00  0.00    +0.000 A 
ATOM      3  N   UNL     1      -2.646  11.132  17.482  0.00  0.00    +0.000 NA
ATOM      4  O   UNL     1      -1.693  10.247  17.009  0.00  0.00    +0.000 OA
ATOM      5  C   UNL     1      -0.753  10.031  17.969  0.00  0.00    +0.000 A 
ATOM      6  N   UNL     1       0.275   9.176  17.813  0.00  0.00    +0.000 NA
ATOM      7  C   UNL     1       1.094   9.066  18.882  0.00  0.00    +0.000 A 
ATOM      8  C   UNL     1       0.917   9.811  20.053  0.00  0.00    +0.000 A 
ATOM      9  C   UNL     1      -0.180  10.681  20.171  0.00  0.00    +0.000 A 
ATOM     10  C   UNL     1      -1.056  10.792  19.083  0.00  0.00    +0.000 A 
ENDROOT
BRANCH   9  11
ATOM     11  C   UNL     1      -0.388  11.481  21.398  0.00  0.00    +0.000 C 
ATOM     12  O   UNL     1      -0.492  10.885  22.465  0.00  0.00    +0.000 OA
ATOM     13  N   UNL     1      -0.474  12.871  21.289  0.00  0.00    +0.000 N 
ATOM     14  C   UNL     1      -0.718  13.634  22.516  0.00  0.00    +0.000 C 
ATOM     15  C   UNL     1      -1.284  15.048  22.275  0.00  0.00    +0.000 C 
ATOM     16  C   UNL     1      -0.956  15.649  20.929  0.00  0.00    +0.000 A 
ATOM     17  C   UNL     1      -1.431  16.925  20.595  0.00  0.00    +0.000 A 
ATOM     18  C   UNL     1      -1.186  17.461  19.329  0.00  0.00    +0.000 A 
ATOM     19  C   UNL     1      -0.458  16.735  18.389  0.00  0.00    +0.000 A 
ATOM     20  C   UNL     1       0.024  15.472  18.713  0.00  0.00    +0.000 A 
ATOM     21  C   UNL     1      -0.223  14.922  19.977  0.00  0.00    +0.000 A 
ATOM     22  C   UNL     1       0.347  13.578  20.319  0.00  0.00    +0.000 C 
ENDBRANCH   9  11
BRANCH   7  23
ATOM     23  C   UNL     1       2.169   8.056  18.723  0.00  0.00    +0.000 A 
ATOM     24  C   UNL     1       3.029   8.096  17.603  0.00  0.00    +0.000 A 
ATOM     25  C   UNL     1       4.005   7.117  17.392  0.00  0.00    +0.000 A 
ATOM     26  C   UNL     1       4.133   6.077  18.300  0.00  0.00    +0.000 A 
ATOM     27  F   UNL     1       5.047   5.122  18.088  0.00  0.00    +0.000 F 
ATOM     28  C   UNL     1       3.315   6.007  19.419  0.00  0.00    +0.000 A 
ATOM     29  C   UNL     1       2.340   6.989  19.632  0.00  0.00    +0.000 A 
ENDBRANCH   7  23
TORSDOF 2
ENDMDL
MODEL 4
REMARK VINA RESULT:      -7.3      3.261      6.234
REMARK  Name = 
REMARK  3 active torsions:
REMARK  status: ('A' for Active; 'I' for Inactive)
REMARK    1  A    between atoms: C_1  and  C_2
REMARK    2  A    between atoms: C_7  and  C_8
REMARK    3  A    between atoms: C_16  and  C_17
REMARK                            x       y       z     vdW  Elec       q    Type
REMARK                         _______ _______ _______ _____ _____    ______ ____
ROOT
ATOM      1  C   UNL     1      -1.141  16.041  20.369  0.00  0.00    +0.000 C 
ATOM      2  C   UNL     1      -0.203  15.044  19.795  0.00  0.00    +0.000 A 
ATOM      3  N   UNL     1       0.643  15.426  18.829  0.00  0.00    +0.000 NA
ATOM      4  O   UNL     1       1.335  14.286  18.461  0.00  0.00    +0.000 OA
ATOM      5  C   UNL     1       0.897  13.228  19.196  0.00  0.00    +0.000 A 
ATOM      6  N   UNL     1       1.355  11.973  19.025  0.00  0.00    +0.000 NA
ATOM      7  C   UNL     1       0.784  11.043  19.823  0.00  0.00    +0.000 A 
ATOM      8  C   UNL     1      -0.181  11.358  20.785  0.00  0.00    +0.000 A 
ATOM      9  C   UNL     1      -0.636  12.682  20.915  0.00  0.00    +0.000 A 
ATOM     10  C   UNL     1      -0.075  13.658  20.080  0.00  0.00    +0.000 A 
ENDROOT
BRANCH   9  11
ATOM     11  C   UNL     1      -1.655  13.040  21.925  0.00  0.00    +0.000 C 
ATOM     12  O   UNL     1      -1.269  13.438  23.019  0.00  0.00    +0.000 OA
ATOM     13  N   UNL     1      -3.007  12.893  21.601  0.00  0.00    +0.000 N 
ATOM     14  C   UNL     1      -3.992  13.218  22.633  0.00  0.00    +0.000 C 
ATOM     15  C   UNL     1      -5.378  12.584  22.403  0.00  0.00    +0.000 C 
ATOM     16  C   UNL     1      -5.703  12.259  20.964  0.00  0.00    +0.000 A 
ATOM     17  C   UNL     1      -6.931  11.665  20.639  0.00  0.00    +0.000 A 
ATOM     18  C   UNL     1      -7.212  11.303  19.320  0.00  0.00    +0.000 A 
ATOM     19  C   UNL     1      -6.277  11.538  18.313  0.00  0.00    +0.000 A 
ATOM     20  C   UNL     1      -5.061  12.134  18.625  0.00  0.00    +0.000 A 
ATOM     21  C   UNL     1      -4.765  12.493  19.945  0.00  0.00    +0.000 A 
ATOM     22  C   UNL     1      -3.466  13.176  20.249  0.00  0.00    +0.000 C 
ENDBRANCH   9  11
BRANCH   7  23
ATOM     23  C   UNL     1       1.238   9.656  19.559  0.00  0.00    +0.000 A 
ATOM     24  C   UNL     1       1.263   8.701  20.600  0.00  0.00    +0.000 A 
ATOM     25  C   UNL     1       1.750   7.405  20.396  0.00  0.00    +0.000 A 
ATOM     26  C   UNL     1       2.226   7.047  19.144  0.00  0.00    +0.000 A 
ATOM     27  F   UNL     1       2.719   5.817  18.950  0.00  0.00    +0.000 F 
ATOM     28  C   UNL     1       2.209   7.952  18.092  0.00  0.00    +0.000 A 
ATOM     29  C   UNL     1       1.717   9.248  18.296  0.00  0.00    +0.000 A 
ENDBRANCH   7  23
TORSDOF 2
ENDMDL
MODEL 5
REMARK VINA RESULT:      -7.3      4.552      9.136
REMARK  Name = 
REMARK  3 active torsions:
REMARK  status: ('A' for Active; 'I' for Inactive)
REMARK    1  A    between atoms: C_1  and  C_2
REMARK    2  A    between atoms: C_7  and  C_8
REMARK    3  A    between atoms: C_16  and  C_17
REMARK                            x       y       z     vdW  Elec       q    Type
REMARK                         _______ _______ _______ _____ _____    ______ ____
ROOT
ATOM      1  C   UNL     1       4.553   1.985  19.879  0.00  0.00    +0.000 C 
ATOM      2  C   UNL     1       3.434   2.945  20.041  0.00  0.00    +0.000 A 
ATOM      3  N   UNL     1       2.230   2.488  20.408  0.00  0.00    +0.000 NA
ATOM      4  O   UNL     1       1.394   3.590  20.417  0.00  0.00    +0.000 OA
ATOM      5  C   UNL     1       2.093   4.698  20.047  0.00  0.00    +0.000 A 
ATOM      6  N   UNL     1       1.531   5.914  19.918  0.00  0.00    +0.000 NA
ATOM      7  C   UNL     1       2.371   6.892  19.511  0.00  0.00    +0.000 A 
ATOM      8  C   UNL     1       3.733   6.673  19.278  0.00  0.00    +0.000 A 
ATOM      9  C   UNL     1       4.269   5.381  19.414  0.00  0.00    +0.000 A 
ATOM     10  C   UNL     1       3.410   4.348  19.811  0.00  0.00    +0.000 A 
ENDROOT
BRANCH   9  11
ATOM     11  C   UNL     1       5.706   5.126  19.175  0.00  0.00    +0.000 C 
ATOM     12  O   UNL     1       6.478   5.236  20.122  0.00  0.00    +0.000 OA
ATOM     13  N   UNL     1       6.125   4.790  17.885  0.00  0.00    +0.000 N 
ATOM     14  C   UNL     1       7.558   4.580  17.669  0.00  0.00    +0.000 C 
ATOM     15  C   UNL     1       7.999   4.707  16.198  0.00  0.00    +0.000 C 
ATOM     16  C   UNL     1       6.918   4.431  15.179  0.00  0.00    +0.000 A 
ATOM     17  C   UNL     1       7.202   4.532  13.809  0.00  0.00    +0.000 A 
ATOM     18  C   UNL     1       6.192   4.341  12.864  0.00  0.00    +0.000 A 
ATOM     19  C   UNL     1       4.895   4.040  13.273  0.00  0.00    +0.000 A 
ATOM     20  C   UNL     1       4.606   3.930  14.628  0.00  0.00    +0.000 A 
ATOM     21  C   UNL     1       5.609   4.127  15.586  0.00  0.00    +0.000 A 
ATOM     22  C   UNL     1       5.282   3.959  17.039  0.00  0.00    +0.000 C 
ENDBRANCH   9  11
BRANCH   7  23
ATOM     23  C   UNL     1       1.714   8.203  19.290  0.00  0.00    +0.000 A 
ATOM     24  C   UNL     1       1.793   8.841  18.032  0.00  0.00    +0.000 A 
ATOM     25  C   UNL     1       1.242  10.108  17.815  0.00  0.00    +0.000 A 
ATOM     26  C   UNL     1       0.606  10.761  18.860  0.00  0.00    +0.000 A 
ATOM     27  F   UNL     1       0.102  11.986  18.666  0.00  0.00    +0.000 F 
ATOM     28  C   UNL     1       0.497  10.165  20.109  0.00  0.00    +0.000 A 
ATOM     29  C   UNL     1       1.045   8.894  20.324  0.00  0.00    +0.000 A 
ENDBRANCH   7  23
TORSDOF 2
ENDMDL
MODEL 6
REMARK VINA RESULT:      -7.3      1.072      1.287
REMARK  Name = 
REMARK  3 active torsions:
REMARK  status: ('A' for Active; 'I' for Inactive)
REMARK    1  A    between atoms: C_1  and  C_2
REMARK    2  A    between atoms: C_7  and  C_8
REMARK    3  A    between atoms: C_16  and  C_17
REMARK                            x       y       z     vdW  Elec       q    Type
REMARK                         _______ _______ _______ _____ _____    ______ ____
ROOT
ATOM      1  C   UNL     1      -0.976  11.404  22.230  0.00  0.00    +0.000 C 
ATOM      2  C   UNL     1      -0.205  10.162  21.979  0.00  0.00    +0.000 A 
ATOM      3  N   UNL     1       0.094   9.360  23.010  0.00  0.00    +0.000 NA
ATOM      4  O   UNL     1       0.855   8.333  22.482  0.00  0.00    +0.000 OA
ATOM      5  C   UNL     1       1.019   8.526  21.145  0.00  0.00    +0.000 A 
ATOM      6  N   UNL     1       1.757   7.710  20.369  0.00  0.00    +0.000 NA
ATOM      7  C   UNL     1       1.833   8.073  19.069  0.00  0.00    +0.000 A 
ATOM      8  C   UNL     1       1.165   9.189  18.553  0.00  0.00    +0.000 A 
ATOM      9  C   UNL     1       0.418  10.017  19.408  0.00  0.00    +0.000 A 
ATOM     10  C   UNL     1       0.346   9.672  20.764  0.00  0.00    +0.000 A 
ENDROOT
BRANCH   9  11
ATOM     11  C   UNL     1      -0.298  11.201  18.885  0.00  0.00    +0.000 C 
ATOM     12  O   UNL     1      -1.403  11.032  18.382  0.00  0.00    +0.000 OA
ATOM     13  N   UNL     1       0.320  12.452  18.969  0.00  0.00    +0.000 N 
ATOM     14  C   UNL     1      -0.396  13.601  18.409  0.00  0.00    +0.000 C 
ATOM     15  C   UNL     1       0.506  14.808  18.088  0.00  0.00    +0.000 C 
ATOM     16  C   UNL     1       1.781  14.889  18.894  0.00  0.00    +0.000 A 
ATOM     17  C   UNL     1       2.686  15.938  18.675  0.00  0.00    +0.000 A 
ATOM     18  C   UNL     1       3.895  15.983  19.371  0.00  0.00    +0.000 A 
ATOM     19  C   UNL     1       4.210  14.990  20.296  0.00  0.00    +0.000 A 
ATOM     20  C   UNL     1       3.317  13.950  20.526  0.00  0.00    +0.000 A 
ATOM     21  C   UNL     1       2.104  13.890  19.828  0.00  0.00    +0.000 A 
ATOM     22  C   UNL     1       1.137  12.784  20.125  0.00  0.00    +0.000 C 
ENDBRANCH   9  11
BRANCH   7  23
ATOM     23  C   UNL     1       2.721   7.212  18.249  0.00  0.00    +0.000 A 
ATOM     24  C   UNL     1       2.595   5.806  18.295  0.00  0.00    +0.000 A 
ATOM     25  C   UNL     1       3.462   4.968  17.586  0.00  0.00    +0.000 A 
ATOM     26  C   UNL     1       4.475   5.528  16.822  0.00  0.00    +0.000 A 
ATOM     27  F   UNL     1       5.326   4.730  16.164  0.00  0.00    +0.000 F 
ATOM     28  C   UNL     1       4.626   6.905  16.742  0.00  0.00    +0.000 A 
ATOM     29  C   UNL     1       3.755   7.744  17.450  0.00  0.00    +0.000 A 
ENDBRANCH   7  23
TORSDOF 2
ENDMDL
MODEL 7
REMARK VINA RESULT:      -7.2      1.996      2.922
REMARK  Name = 
REMARK  3 active torsions:
REMARK  status: ('A' for Active; 'I' for Inactive)
REMARK    1  A    between atoms: C_1  and  C_2
REMARK    2  A    between atoms: C_7  and  C_8
REMARK    3  A    between atoms: C_16  and  C_17
REMARK                            x       y       z     vdW  Elec       q    Type
REMARK                         _______ _______ _______ _____ _____    ______ ____
ROOT
ATOM      1  C   UNL     1      -2.474  12.554  19.278  0.00  0.00    +0.000 C 
ATOM      2  C   UNL     1      -1.788  11.449  18.565  0.00  0.00    +0.000 A 
ATOM      3  N   UNL     1      -2.357  10.926  17.471  0.00  0.00    +0.000 NA
ATOM      4  O   UNL     1      -1.527   9.895  17.069  0.00  0.00    +0.000 OA
ATOM      5  C   UNL     1      -0.473   9.795  17.925  0.00  0.00    +0.000 A 
ATOM      6  N   UNL     1       0.478   8.849  17.815  0.00  0.00    +0.000 NA
ATOM      7  C   UNL     1       1.432   8.884  18.771  0.00  0.00    +0.000 A 
ATOM      8  C   UNL     1       1.459   9.852  19.780  0.00  0.00    +0.000 A 
ATOM      9  C   UNL     1       0.435  10.811  19.860  0.00  0.00    +0.000 A 
ATOM     10  C   UNL     1      -0.578  10.778  18.892  0.00  0.00    +0.000 A 
ENDROOT
BRANCH   9  11
ATOM     11  C   UNL     1       0.443  11.846  20.917  0.00  0.00    +0.000 C 
ATOM     12  O   UNL     1      -0.062  11.570  21.999  0.00  0.00    +0.000 OA
ATOM     13  N   UNL     1       1.006  13.094  20.633  0.00  0.00    +0.000 N 
ATOM     14  C   UNL     1       0.965  14.111  21.686  0.00  0.00    +0.000 C 
ATOM     15  C   UNL     1       1.133  15.554  21.173  0.00  0.00    +0.000 C 
ATOM     16  C   UNL     1       1.877  15.687  19.865  0.00  0.00    +0.000 A 
ATOM     17  C   UNL     1       2.076  16.953  19.295  0.00  0.00    +0.000 A 
ATOM     18  C   UNL     1       2.706  17.078  18.055  0.00  0.00    +0.000 A 
ATOM     19  C   UNL     1       3.151  15.945  17.377  0.00  0.00    +0.000 A 
ATOM     20  C   UNL     1       2.967  14.687  17.937  0.00  0.00    +0.000 A 
ATOM     21  C   UNL     1       2.328  14.549  19.176  0.00  0.00    +0.000 A 
ATOM     22  C   UNL     1       2.181  13.186  19.781  0.00  0.00    +0.000 C 
ENDBRANCH   9  11
BRANCH   7  23
ATOM     23  C   UNL     1       2.420   7.781  18.683  0.00  0.00    +0.000 A 
ATOM     24  C   UNL     1       3.331   7.720  17.605  0.00  0.00    +0.000 A 
ATOM     25  C   UNL     1       4.227   6.656  17.461  0.00  0.00    +0.000 A 
ATOM     26  C   UNL     1       4.221   5.631  18.394  0.00  0.00    +0.000 A 
ATOM     27  F   UNL     1       5.058   4.595  18.245  0.00  0.00    +0.000 F 
ATOM     28  C   UNL     1       3.350   5.658  19.474  0.00  0.00    +0.000 A 
ATOM     29  C   UNL     1       2.455   6.726  19.620  0.00  0.00    +0.000 A 
ENDBRANCH   7  23
TORSDOF 2
ENDMDL
MODEL 8
REMARK VINA RESULT:      -7.2      2.959      5.647
REMARK  Name = 
REMARK  3 active torsions:
REMARK  status: ('A' for Active; 'I' for Inactive)
REMARK    1  A    between atoms: C_1  and  C_2
REMARK    2  A    between atoms: C_7  and  C_8
REMARK    3  A    between atoms: C_16  and  C_17
REMARK                            x       y       z     vdW  Elec       q    Type
REMARK                         _______ _______ _______ _____ _____    ______ ____
ROOT
ATOM      1  C   UNL     1       0.549  14.726  19.205  0.00  0.00    +0.000 C 
ATOM      2  C   UNL     1       1.297  13.506  18.813  0.00  0.00    +0.000 A 
ATOM      3  N   UNL     1       2.211  13.587  17.837  0.00  0.00    +0.000 NA
ATOM      4  O   UNL     1       2.689  12.301  17.660  0.00  0.00    +0.000 OA
ATOM      5  C   UNL     1       2.057  11.455  18.519  0.00  0.00    +0.000 A 
ATOM      6  N   UNL     1       2.282  10.128  18.544  0.00  0.00    +0.000 NA
ATOM      7  C   UNL     1       1.542   9.440  19.442  0.00  0.00    +0.000 A 
ATOM      8  C   UNL     1       0.638  10.058  20.312  0.00  0.00    +0.000 A 
ATOM      9  C   UNL     1       0.429  11.446  20.237  0.00  0.00    +0.000 A 
ATOM     10  C   UNL     1       1.169  12.175  19.295  0.00  0.00    +0.000 A 
ENDROOT
BRANCH   9  11
ATOM     11  C   UNL     1      -0.521  12.122  21.147  0.00  0.00    +0.000 C 
ATOM     12  O   UNL     1      -0.095  12.544  22.216  0.00  0.00    +0.000 OA
ATOM     13  N   UNL     1      -1.859  12.235  20.760  0.00  0.00    +0.000 N 
ATOM     14  C   UNL     1      -2.784  12.876  21.698  0.00  0.00    +0.000 C 
ATOM     15  C   UNL     1      -4.267  12.534  21.451  0.00  0.00    +0.000 C 
ATOM     16  C   UNL     1      -4.605  12.132  20.035  0.00  0.00    +0.000 A 
ATOM     17  C   UNL     1      -5.922  11.785  19.698  0.00  0.00    +0.000 A 
ATOM     18  C   UNL     1      -6.229  11.352  18.407  0.00  0.00    +0.000 A 
ATOM     19  C   UNL     1      -5.231  11.269  17.438  0.00  0.00    +0.000 A 
ATOM     20  C   UNL     1      -3.925  11.620  17.760  0.00  0.00    +0.000 A 
ATOM     21  C   UNL     1      -3.604  12.048  19.054  0.00  0.00    +0.000 A 
ATOM     22  C   UNL     1      -2.197  12.463  19.364  0.00  0.00    +0.000 C 
ENDBRANCH   9  11
BRANCH   7  23
ATOM     23  C   UNL     1       1.740   7.971  19.393  0.00  0.00    +0.000 A 
ATOM     24  C   UNL     1       1.556   7.185  20.552  0.00  0.00    +0.000 A 
ATOM     25  C   UNL     1       1.801   5.808  20.553  0.00  0.00    +0.000 A 
ATOM     26  C   UNL     1       2.242   5.196  19.389  0.00  0.00    +0.000 A 
ATOM     27  F   UNL     1       2.506   3.883  19.391  0.00  0.00    +0.000 F 
ATOM     28  C   UNL     1       2.426   5.930  18.226  0.00  0.00    +0.000 A 
ATOM     29  C   UNL     1       2.176   7.308  18.225  0.00  0.00    +0.000 A 
ENDBRANCH   7  23
TORSDOF 2
ENDMDL
MODEL 9
REMARK VINA RESULT:      -7.0      1.413      1.931
REMARK  Name = 
REMARK  3 active torsions:
REMARK  status: ('A' for Active; 'I' for Inactive)
REMARK    1  A    between atoms: C_1  and  C_2
REMARK    2  A    between atoms: C_7  and  C_8
REMARK    3  A    between atoms: C_16  and  C_17
REMARK                            x       y       z     vdW  Elec       q    Type
REMARK                         _______ _______ _______ _____ _____    ______ ____
ROOT
ATOM      1  C   UNL     1      -0.883  15.015  22.529  0.00  0.00    +0.000 C 
ATOM      2  C   UNL     1      -0.767  13.538  22.454  0.00  0.00    +0.000 A 
ATOM      3  N   UNL     1      -1.207  12.797  23.480  0.00  0.00    +0.000 NA
ATOM      4  O   UNL     1      -0.916  11.485  23.150  0.00  0.00    +0.000 OA
ATOM      5  C   UNL     1      -0.297  11.445  21.939  0.00  0.00    +0.000 A 
ATOM      6  N   UNL     1       0.149  10.305  21.379  0.00  0.00    +0.000 NA
ATOM      7  C   UNL     1       0.767  10.458  20.186  0.00  0.00    +0.000 A 
ATOM      8  C   UNL     1       0.901  11.699  19.556  0.00  0.00    +0.000 A 
ATOM      9  C   UNL     1       0.430  12.862  20.189  0.00  0.00    +0.000 A 
ATOM     10  C   UNL     1      -0.192  12.729  21.438  0.00  0.00    +0.000 A 
ENDROOT
BRANCH   9  11
ATOM     11  C   UNL     1       0.559  14.186  19.542  0.00  0.00    +0.000 C 
ATOM     12  O   UNL     1      -0.406  14.624  18.925  0.00  0.00    +0.000 OA
ATOM     13  N   UNL     1       1.774  14.870  19.643  0.00  0.00    +0.000 N 
ATOM     14  C   UNL     1       1.886  16.161  18.960  0.00  0.00    +0.000 C 
ATOM     15  C   UNL     1       3.336  16.608  18.693  0.00  0.00    +0.000 C 
ATOM     16  C   UNL     1       4.369  16.031  19.633  0.00  0.00    +0.000 A 
ATOM     17  C   UNL     1       5.723  16.357  19.475  0.00  0.00    +0.000 A 
ATOM     18  C   UNL     1       6.690  15.778  20.299  0.00  0.00    +0.000 A 
ATOM     19  C   UNL     1       6.315  14.876  21.293  0.00  0.00    +0.000 A 
ATOM     20  C   UNL     1       4.974  14.552  21.463  0.00  0.00    +0.000 A 
ATOM     21  C   UNL     1       3.997  15.121  20.637  0.00  0.00    +0.000 A 
ATOM     22  C   UNL     1       2.553  14.792  20.869  0.00  0.00    +0.000 C 
ENDBRANCH   9  11
BRANCH   7  23
ATOM     23  C   UNL     1       1.328   9.204  19.627  0.00  0.00    +0.000 A 
ATOM     24  C   UNL     1       1.587   8.099  20.468  0.00  0.00    +0.000 A 
ATOM     25  C   UNL     1       2.178   6.928  19.981  0.00  0.00    +0.000 A 
ATOM     26  C   UNL     1       2.525   6.849  18.641  0.00  0.00    +0.000 A 
ATOM     27  F   UNL     1       3.118   5.742  18.176  0.00  0.00    +0.000 F 
ATOM     28  C   UNL     1       2.278   7.908  17.779  0.00  0.00    +0.000 A 
ATOM     29  C   UNL     1       1.682   9.078  18.267  0.00  0.00    +0.000 A 
ENDBRANCH   7  23
TORSDOF 2
ENDMDL
