MODEL 1
REMARK VINA RESULT:      -8.2      0.000      0.000
REMARK  Name = 
REMARK  6 active torsions:
REMARK  status: ('A' for Active; 'I' for Inactive)
REMARK    1  A    between atoms: C_1  and  C_2
REMARK    2  A    between atoms: C_4  and  N_5
REMARK    3  A    between atoms: C_6  and  C_8
REMARK    4  A    between atoms: C_11  and  C_12
REMARK    5  A    between atoms: C_16  and  C_17
REMARK    6  A    between atoms: N_23  and  C_24
REMARK                            x       y       z     vdW  Elec       q    Type
REMARK                         _______ _______ _______ _____ _____    ______ ____
ROOT
ATOM      1  C   UNL     1       3.492   5.121  19.275  0.00  0.00    +0.000 A 
ATOM      2  C   UNL     1       2.767   4.418  20.223  0.00  0.00    +0.000 A 
ATOM      3  C   UNL     1       1.874   5.340  20.821  0.00  0.00    +0.000 A 
ATOM      4  C   UNL     1       2.080   6.552  20.198  0.00  0.00    +0.000 A 
ATOM      5  O   UNL     1       3.060   6.423  19.250  0.00  0.00    +0.000 OA
ENDROOT
BRANCH   4   6
ATOM      6  C   UNL     1       1.481   7.872  20.347  0.00  0.00    +0.000 A 
ATOM      7  C   UNL     1       1.480   8.769  19.268  0.00  0.00    +0.000 A 
ATOM      8  C   UNL     1       0.966  10.057  19.411  0.00  0.00    +0.000 A 
ATOM      9  C   UNL     1       0.420  10.459  20.630  0.00  0.00    +0.000 A 
ATOM     10  C   UNL     1       0.367   9.565  21.711  0.00  0.00    +0.000 A 
ATOM     11  C   UNL     1       0.912   8.282  21.560  0.00  0.00    +0.000 A 
BRANCH  10  12
ATOM     12  C   UNL     1      -0.291   9.971  23.008  0.00  0.00    +0.000 C 
ATOM     13  F   UNL     1       0.418   9.597  24.107  0.00  0.00    +0.000 F 
ATOM     14  F   UNL     1      -0.451  11.321  23.104  0.00  0.00    +0.000 F 
ATOM     15  F   UNL     1      -1.536   9.442  23.161  0.00  0.00    +0.000 F 
ENDBRANCH  10  12
ENDBRANCH   4   6
BRANCH   1  17
ATOM     16  N   UNL     1       4.537   5.382  17.108  0.00  0.00    +0.000 N 
ATOM     17  C   UNL     1       4.570   4.733  18.399  0.00  0.00    +0.000 C 
ATOM     18  O   UNL     1       5.462   3.944  18.692  0.00  0.00    +0.000 OA
ATOM     19  H   UNL     1       3.785   6.043  16.956  0.00  0.00    +0.000 HD
BRANCH  16  23
ATOM     20  C   UNL     1       6.929   3.908  12.963  0.00  0.00    +0.000 C 
ATOM     21  C   UNL     1       6.556   4.524  14.261  0.00  0.00    +0.000 A 
ATOM     22  C   UNL     1       5.319   4.447  14.938  0.00  0.00    +0.000 A 
ATOM     23  C   UNL     1       5.474   5.170  16.098  0.00  0.00    +0.000 A 
ATOM     24  N   UNL     1       6.770   5.637  16.050  0.00  0.00    +0.000 N 
ATOM     25  C   UNL     1       7.482   6.444  17.010  0.00  0.00    +0.000 C 
ATOM     26  N   UNL     1       7.436   5.259  14.942  0.00  0.00    +0.000 NA
ENDBRANCH  16  23
ENDBRANCH   1  17
TORSDOF 4
ENDMDL
MODEL 2
REMARK VINA RESULT:      -8.1      5.534      8.976
REMARK  Name = 
REMARK  6 active torsions:
REMARK  status: ('A' for Active; 'I' for Inactive)
REMARK    1  A    between atoms: C_1  and  C_2
REMARK    2  A    between atoms: C_4  and  N_5
REMARK    3  A    between atoms: C_6  and  C_8
REMARK    4  A    between atoms: C_11  and  C_12
REMARK    5  A    between atoms: C_16  and  C_17
REMARK    6  A    between atoms: N_23  and  C_24
REMARK                            x       y       z     vdW  Elec       q    Type
REMARK                         _______ _______ _______ _____ _____    ______ ____
ROOT
ATOM      1  C   UNL     1       2.908   4.346  18.813  0.00  0.00    +0.000 A 
ATOM      2  C   UNL     1       2.966   2.962  18.797  0.00  0.00    +0.000 A 
ATOM      3  C   UNL     1       3.895   2.604  17.790  0.00  0.00    +0.000 A 
ATOM      4  C   UNL     1       4.375   3.780  17.258  0.00  0.00    +0.000 A 
ATOM      5  O   UNL     1       3.782   4.845  17.882  0.00  0.00    +0.000 OA
ENDROOT
BRANCH   4   6
ATOM      6  C   UNL     1       5.345   4.088  16.214  0.00  0.00    +0.000 A 
ATOM      7  C   UNL     1       6.500   4.823  16.523  0.00  0.00    +0.000 A 
ATOM      8  C   UNL     1       7.407   5.179  15.526  0.00  0.00    +0.000 A 
ATOM      9  C   UNL     1       7.187   4.781  14.208  0.00  0.00    +0.000 A 
ATOM     10  C   UNL     1       6.064   4.005  13.881  0.00  0.00    +0.000 A 
ATOM     11  C   UNL     1       5.145   3.678  14.889  0.00  0.00    +0.000 A 
BRANCH  10  12
ATOM     12  C   UNL     1       5.861   3.509  12.469  0.00  0.00    +0.000 C 
ATOM     13  F   UNL     1       6.041   2.167  12.344  0.00  0.00    +0.000 F 
ATOM     14  F   UNL     1       4.604   3.766  12.009  0.00  0.00    +0.000 F 
ATOM     15  F   UNL     1       6.706   4.090  11.575  0.00  0.00    +0.000 F 
ENDBRANCH  10  12
ENDBRANCH   4   6
BRANCH   1  17
ATOM     16  N   UNL     1       2.441   6.658  19.350  0.00  0.00    +0.000 N 
ATOM     17  C   UNL     1       2.109   5.270  19.579  0.00  0.00    +0.000 C 
ATOM     18  O   UNL     1       1.208   4.950  20.348  0.00  0.00    +0.000 OA
ATOM     19  H   UNL     1       3.176   6.840  18.678  0.00  0.00    +0.000 HD
BRANCH  16  23
ATOM     20  C   UNL     1       0.146   9.691  22.608  0.00  0.00    +0.000 C 
ATOM     21  C   UNL     1       0.780   9.095  21.406  0.00  0.00    +0.000 A 
ATOM     22  C   UNL     1       1.369   7.817  21.275  0.00  0.00    +0.000 A 
ATOM     23  C   UNL     1       1.804   7.731  19.972  0.00  0.00    +0.000 A 
ATOM     24  N   UNL     1       1.464   8.941  19.407  0.00  0.00    +0.000 N 
ATOM     25  C   UNL     1       1.666   9.404  18.057  0.00  0.00    +0.000 C 
ATOM     26  N   UNL     1       0.848   9.779  20.264  0.00  0.00    +0.000 NA
ENDBRANCH  16  23
ENDBRANCH   1  17
TORSDOF 4
ENDMDL
MODEL 3
REMARK VINA RESULT:      -7.9      4.757      8.701
REMARK  Name = 
REMARK  6 active torsions:
REMARK  status: ('A' for Active; 'I' for Inactive)
REMARK    1  A    between atoms: C_1  and  C_2
REMARK    2  A    between atoms: C_4  and  N_5
REMARK    3  A    between atoms: C_6  and  C_8
REMARK    4  A    between atoms: C_11  and  C_12
REMARK    5  A    between atoms: C_16  and  C_17
REMARK    6  A    between atoms: N_23  and  C_24
REMARK                            x       y       z     vdW  Elec       q    Type
REMARK                         _______ _______ _______ _____ _____    ______ ____
ROOT
ATOM      1  C   UNL     1       1.263   9.216  18.962  0.00  0.00    +0.000 A 
ATOM      2  C   UNL     1       1.977   9.458  17.800  0.00  0.00    +0.000 A 
ATOM      3  C   UNL     1       2.816   8.336  17.595  0.00  0.00    +0.000 A 
ATOM      4  C   UNL     1       2.559   7.456  18.624  0.00  0.00    +0.000 A 
ATOM      5  O   UNL     1       1.609   7.984  19.456  0.00  0.00    +0.000 OA
ENDROOT
BRANCH   4   6
ATOM      6  C   UNL     1       3.078   6.140  18.972  0.00  0.00    +0.000 A 
ATOM      7  C   UNL     1       4.388   5.783  18.616  0.00  0.00    +0.000 A 
ATOM      8  C   UNL     1       4.878   4.507  18.887  0.00  0.00    +0.000 A 
ATOM      9  C   UNL     1       4.076   3.576  19.546  0.00  0.00    +0.000 A 
ATOM     10  C   UNL     1       2.778   3.923  19.955  0.00  0.00    +0.000 A 
ATOM     11  C   UNL     1       2.288   5.201  19.650  0.00  0.00    +0.000 A 
BRANCH  10  12
ATOM     12  C   UNL     1       1.934   2.943  20.733  0.00  0.00    +0.000 C 
ATOM     13  F   UNL     1       2.499   2.569  21.912  0.00  0.00    +0.000 F 
ATOM     14  F   UNL     1       0.710   3.455  21.048  0.00  0.00    +0.000 F 
ATOM     15  F   UNL     1       1.686   1.793  20.049  0.00  0.00    +0.000 F 
ENDBRANCH  10  12
ENDBRANCH   4   6
BRANCH   1  17
ATOM     16  N   UNL     1       0.901  10.853  20.706  0.00  0.00    +0.000 N 
ATOM     17  C   UNL     1       0.307  10.011  19.693  0.00  0.00    +0.000 C 
ATOM     18  O   UNL     1      -0.903  10.016  19.489  0.00  0.00    +0.000 OA
ATOM     19  H   UNL     1       1.908  10.813  20.790  0.00  0.00    +0.000 HD
BRANCH  16  23
ATOM     20  C   UNL     1      -1.178  14.851  22.892  0.00  0.00    +0.000 C 
ATOM     21  C   UNL     1      -0.754  13.478  22.523  0.00  0.00    +0.000 A 
ATOM     22  C   UNL     1       0.074  13.081  21.448  0.00  0.00    +0.000 A 
ATOM     23  C   UNL     1       0.179  11.712  21.535  0.00  0.00    +0.000 A 
ATOM     24  N   UNL     1      -0.582  11.370  22.632  0.00  0.00    +0.000 N 
ATOM     25  C   UNL     1      -0.823  10.067  23.201  0.00  0.00    +0.000 C 
ATOM     26  N   UNL     1      -1.157  12.427  23.237  0.00  0.00    +0.000 NA
ENDBRANCH  16  23
ENDBRANCH   1  17
TORSDOF 4
ENDMDL
MODEL 4
REMARK VINA RESULT:      -7.9      1.830      2.404
REMARK  Name = 
REMARK  6 active torsions:
REMARK  status: ('A' for Active; 'I' for Inactive)
REMARK    1  A    between atoms: C_1  and  C_2
REMARK    2  A    between atoms: C_4  and  N_5
REMARK    3  A    between atoms: C_6  and  C_8
REMARK    4  A    between atoms: C_11  and  C_12
REMARK    5  A    between atoms: C_16  and  C_17
REMARK    6  A    between atoms: N_23  and  C_24
REMARK                            x       y       z     vdW  Elec       q    Type
REMARK                         _______ _______ _______ _____ _____    ______ ____
ROOT
ATOM      1  C   UNL     1       3.353   5.172  19.411  0.00  0.00    +0.000 A 
ATOM      2  C   UNL     1       2.533   4.420  20.236  0.00  0.00    +0.000 A 
ATOM      3  C   UNL     1       1.656   5.327  20.879  0.00  0.00    +0.000 A 
ATOM      4  C   UNL     1       1.965   6.582  20.401  0.00  0.00    +0.000 A 
ATOM      5  O   UNL     1       2.994   6.493  19.501  0.00  0.00    +0.000 OA
ENDROOT
BRANCH   4   6
ATOM      6  C   UNL     1       1.431   7.914  20.656  0.00  0.00    +0.000 A 
ATOM      7  C   UNL     1       0.863   8.217  21.903  0.00  0.00    +0.000 A 
ATOM      8  C   UNL     1       0.293   9.466  22.142  0.00  0.00    +0.000 A 
ATOM      9  C   UNL     1       0.307  10.442  21.147  0.00  0.00    +0.000 A 
ATOM     10  C   UNL     1       0.910  10.180  19.907  0.00  0.00    +0.000 A 
ATOM     11  C   UNL     1       1.455   8.910  19.670  0.00  0.00    +0.000 A 
BRANCH  10  12
ATOM     12  C   UNL     1       0.994  11.259  18.853  0.00  0.00    +0.000 C 
ATOM     13  F   UNL     1       1.965  11.029  17.929  0.00  0.00    +0.000 F 
ATOM     14  F   UNL     1      -0.170  11.387  18.154  0.00  0.00    +0.000 F 
ATOM     15  F   UNL     1       1.248  12.491  19.373  0.00  0.00    +0.000 F 
ENDBRANCH  10  12
ENDBRANCH   4   6
BRANCH   1  17
ATOM     16  N   UNL     1       4.433   5.450  17.264  0.00  0.00    +0.000 N 
ATOM     17  C   UNL     1       4.460   4.812  18.561  0.00  0.00    +0.000 C 
ATOM     18  O   UNL     1       5.371   4.054  18.878  0.00  0.00    +0.000 OA
ATOM     19  H   UNL     1       3.664   6.085  17.092  0.00  0.00    +0.000 HD
BRANCH  16  23
ATOM     20  C   UNL     1       6.952   4.036  13.173  0.00  0.00    +0.000 C 
ATOM     21  C   UNL     1       6.536   4.642  14.463  0.00  0.00    +0.000 A 
ATOM     22  C   UNL     1       5.285   4.535  15.111  0.00  0.00    +0.000 A 
ATOM     23  C   UNL     1       5.398   5.261  16.275  0.00  0.00    +0.000 A 
ATOM     24  N   UNL     1       6.683   5.757  16.257  0.00  0.00    +0.000 N 
ATOM     25  C   UNL     1       7.355   6.578  17.234  0.00  0.00    +0.000 C 
ATOM     26  N   UNL     1       7.383   5.395  15.164  0.00  0.00    +0.000 NA
ENDBRANCH  16  23
ENDBRANCH   1  17
TORSDOF 4
ENDMDL
MODEL 5
REMARK VINA RESULT:      -7.9      3.049      3.804
REMARK  Name = 
REMARK  6 active torsions:
REMARK  status: ('A' for Active; 'I' for Inactive)
REMARK    1  A    between atoms: C_1  and  C_2
REMARK    2  A    between atoms: C_4  and  N_5
REMARK    3  A    between atoms: C_6  and  C_8
REMARK    4  A    between atoms: C_11  and  C_12
REMARK    5  A    between atoms: C_16  and  C_17
REMARK    6  A    between atoms: N_23  and  C_24
REMARK                            x       y       z     vdW  Elec       q    Type
REMARK                         _______ _______ _______ _____ _____    ______ ____
ROOT
ATOM      1  C   UNL     1       2.504   7.221  18.859  0.00  0.00    +0.000 A 
ATOM      2  C   UNL     1       2.214   7.239  20.213  0.00  0.00    +0.000 A 
ATOM      3  C   UNL     1       1.385   8.365  20.438  0.00  0.00    +0.000 A 
ATOM      4  C   UNL     1       1.190   8.965  19.213  0.00  0.00    +0.000 A 
ATOM      5  O   UNL     1       1.864   8.268  18.246  0.00  0.00    +0.000 OA
ENDROOT
BRANCH   4   6
ATOM      6  C   UNL     1       0.440  10.135  18.776  0.00  0.00    +0.000 A 
ATOM      7  C   UNL     1       0.901  11.423  19.089  0.00  0.00    +0.000 A 
ATOM      8  C   UNL     1       0.164  12.551  18.732  0.00  0.00    +0.000 A 
ATOM      9  C   UNL     1      -1.032  12.410  18.029  0.00  0.00    +0.000 A 
ATOM     10  C   UNL     1      -1.491  11.135  17.663  0.00  0.00    +0.000 A 
ATOM     11  C   UNL     1      -0.754  10.008  18.054  0.00  0.00    +0.000 A 
BRANCH  10  12
ATOM     12  C   UNL     1      -2.747  10.982  16.838  0.00  0.00    +0.000 C 
ATOM     13  F   UNL     1      -2.546  11.205  15.512  0.00  0.00    +0.000 F 
ATOM     14  F   UNL     1      -3.276   9.729  16.935  0.00  0.00    +0.000 F 
ATOM     15  F   UNL     1      -3.740  11.831  17.220  0.00  0.00    +0.000 F 
ENDBRANCH  10  12
ENDBRANCH   4   6
BRANCH   1  17
ATOM     16  N   UNL     1       4.462   7.023  17.452  0.00  0.00    +0.000 N 
ATOM     17  C   UNL     1       3.334   6.354  18.060  0.00  0.00    +0.000 C 
ATOM     18  O   UNL     1       3.148   5.152  17.903  0.00  0.00    +0.000 OA
ATOM     19  H   UNL     1       4.563   8.010  17.655  0.00  0.00    +0.000 HD
BRANCH  16  23
ATOM     20  C   UNL     1       6.792   4.491  13.813  0.00  0.00    +0.000 C 
ATOM     21  C   UNL     1       6.461   5.268  15.034  0.00  0.00    +0.000 A 
ATOM     22  C   UNL     1       5.196   5.744  15.446  0.00  0.00    +0.000 A 
ATOM     23  C   UNL     1       5.405   6.393  16.641  0.00  0.00    +0.000 A 
ATOM     24  N   UNL     1       6.760   6.278  16.871  0.00  0.00    +0.000 N 
ATOM     25  C   UNL     1       7.538   6.762  17.984  0.00  0.00    +0.000 C 
ATOM     26  N   UNL     1       7.413   5.605  15.904  0.00  0.00    +0.000 NA
ENDBRANCH  16  23
ENDBRANCH   1  17
TORSDOF 4
ENDMDL
MODEL 6
REMARK VINA RESULT:      -7.8      2.014      2.510
REMARK  Name = 
REMARK  6 active torsions:
REMARK  status: ('A' for Active; 'I' for Inactive)
REMARK    1  A    between atoms: C_1  and  C_2
REMARK    2  A    between atoms: C_4  and  N_5
REMARK    3  A    between atoms: C_6  and  C_8
REMARK    4  A    between atoms: C_11  and  C_12
REMARK    5  A    between atoms: C_16  and  C_17
REMARK    6  A    between atoms: N_23  and  C_24
REMARK                            x       y       z     vdW  Elec       q    Type
REMARK                         _______ _______ _______ _____ _____    ______ ____
ROOT
ATOM      1  C   UNL     1       2.892   6.495  19.049  0.00  0.00    +0.000 A 
ATOM      2  C   UNL     1       2.475   5.533  19.954  0.00  0.00    +0.000 A 
ATOM      3  C   UNL     1       1.616   6.183  20.874  0.00  0.00    +0.000 A 
ATOM      4  C   UNL     1       1.532   7.499  20.475  0.00  0.00    +0.000 A 
ATOM      5  O   UNL     1       2.302   7.693  19.360  0.00  0.00    +0.000 OA
ENDROOT
BRANCH   4   6
ATOM      6  C   UNL     1       0.814   8.659  20.987  0.00  0.00    +0.000 A 
ATOM      7  C   UNL     1       0.674   8.846  22.371  0.00  0.00    +0.000 A 
ATOM      8  C   UNL     1      -0.061   9.917  22.875  0.00  0.00    +0.000 A 
ATOM      9  C   UNL     1      -0.645  10.835  22.004  0.00  0.00    +0.000 A 
ATOM     10  C   UNL     1      -0.481  10.697  20.616  0.00  0.00    +0.000 A 
ATOM     11  C   UNL     1       0.238   9.599  20.122  0.00  0.00    +0.000 A 
BRANCH  10  12
ATOM     12  C   UNL     1      -1.049  11.730  19.672  0.00  0.00    +0.000 C 
ATOM     13  F   UNL     1      -0.225  12.797  19.489  0.00  0.00    +0.000 F 
ATOM     14  F   UNL     1      -1.285  11.218  18.431  0.00  0.00    +0.000 F 
ATOM     15  F   UNL     1      -2.239  12.238  20.093  0.00  0.00    +0.000 F 
ENDBRANCH  10  12
ENDBRANCH   4   6
BRANCH   1  17
ATOM     16  N   UNL     1       4.404   5.141  17.732  0.00  0.00    +0.000 N 
ATOM     17  C   UNL     1       3.804   6.441  17.934  0.00  0.00    +0.000 C 
ATOM     18  O   UNL     1       4.059   7.382  17.189  0.00  0.00    +0.000 OA
ATOM     19  H   UNL     1       4.119   4.410  18.370  0.00  0.00    +0.000 HD
BRANCH  16  23
ATOM     20  C   UNL     1       6.569   3.921  13.383  0.00  0.00    +0.000 C 
ATOM     21  C   UNL     1       6.295   4.302  14.792  0.00  0.00    +0.000 A 
ATOM     22  C   UNL     1       5.042   4.529  15.405  0.00  0.00    +0.000 A 
ATOM     23  C   UNL     1       5.313   4.845  16.716  0.00  0.00    +0.000 A 
ATOM     24  N   UNL     1       6.687   4.798  16.813  0.00  0.00    +0.000 N 
ATOM     25  C   UNL     1       7.527   5.032  17.962  0.00  0.00    +0.000 C 
ATOM     26  N   UNL     1       7.296   4.476  15.655  0.00  0.00    +0.000 NA
ENDBRANCH  16  23
ENDBRANCH   1  17
TORSDOF 4
ENDMDL
MODEL 7
REMARK VINA RESULT:      -7.8      5.558      9.079
REMARK  Name = 
REMARK  6 active torsions:
REMARK  status: ('A' for Active; 'I' for Inactive)
REMARK    1  A    between atoms: C_1  and  C_2
REMARK    2  A    between atoms: C_4  and  N_5
REMARK    3  A    between atoms: C_6  and  C_8
REMARK    4  A    between atoms: C_11  and  C_12
REMARK    5  A    between atoms: C_16  and  C_17
REMARK    6  A    between atoms: N_23  and  C_24
REMARK                            x       y       z     vdW  Elec       q    Type
REMARK                         _______ _______ _______ _____ _____    ______ ____
ROOT
ATOM      1  C   UNL     1       2.454   7.861  18.637  0.00  0.00    +0.000 A 
ATOM      2  C   UNL     1       2.152   6.897  19.585  0.00  0.00    +0.000 A 
ATOM      3  C   UNL     1       3.085   5.846  19.410  0.00  0.00    +0.000 A 
ATOM      4  C   UNL     1       3.923   6.226  18.385  0.00  0.00    +0.000 A 
ATOM      5  O   UNL     1       3.548   7.456  17.914  0.00  0.00    +0.000 OA
ENDROOT
BRANCH   4   6
ATOM      6  C   UNL     1       5.073   5.601  17.743  0.00  0.00    +0.000 A 
ATOM      7  C   UNL     1       6.219   5.299  18.495  0.00  0.00    +0.000 A 
ATOM      8  C   UNL     1       7.349   4.758  17.885  0.00  0.00    +0.000 A 
ATOM      9  C   UNL     1       7.341   4.484  16.518  0.00  0.00    +0.000 A 
ATOM     10  C   UNL     1       6.191   4.734  15.752  0.00  0.00    +0.000 A 
ATOM     11  C   UNL     1       5.071   5.304  16.374  0.00  0.00    +0.000 A 
BRANCH  10  12
ATOM     12  C   UNL     1       6.153   4.370  14.287  0.00  0.00    +0.000 C 
ATOM     13  F   UNL     1       7.056   5.060  13.541  0.00  0.00    +0.000 F 
ATOM     14  F   UNL     1       6.419   3.049  14.078  0.00  0.00    +0.000 F 
ATOM     15  F   UNL     1       4.938   4.594  13.716  0.00  0.00    +0.000 F 
ENDBRANCH  10  12
ENDBRANCH   4   6
BRANCH   1  17
ATOM     16  N   UNL     1       0.829   9.544  19.253  0.00  0.00    +0.000 N 
ATOM     17  C   UNL     1       1.827   9.114  18.300  0.00  0.00    +0.000 C 
ATOM     18  O   UNL     1       2.100   9.794  17.315  0.00  0.00    +0.000 OA
ATOM     19  H   UNL     1       0.684   8.942  20.055  0.00  0.00    +0.000 HD
BRANCH  16  23
ATOM     20  C   UNL     1      -0.953  14.197  19.756  0.00  0.00    +0.000 C 
ATOM     21  C   UNL     1      -0.716  12.788  19.353  0.00  0.00    +0.000 A 
ATOM     22  C   UNL     1       0.304  11.916  19.796  0.00  0.00    +0.000 A 
ATOM     23  C   UNL     1       0.094  10.723  19.143  0.00  0.00    +0.000 A 
ATOM     24  N   UNL     1      -1.015  10.945  18.355  0.00  0.00    +0.000 N 
ATOM     25  C   UNL     1      -1.694  10.037  17.463  0.00  0.00    +0.000 C 
ATOM     26  N   UNL     1      -1.513  12.192  18.467  0.00  0.00    +0.000 NA
ENDBRANCH  16  23
ENDBRANCH   1  17
TORSDOF 4
ENDMDL
MODEL 8
REMARK VINA RESULT:      -7.8      0.829      1.221
REMARK  Name = 
REMARK  6 active torsions:
REMARK  status: ('A' for Active; 'I' for Inactive)
REMARK    1  A    between atoms: C_1  and  C_2
REMARK    2  A    between atoms: C_4  and  N_5
REMARK    3  A    between atoms: C_6  and  C_8
REMARK    4  A    between atoms: C_11  and  C_12
REMARK    5  A    between atoms: C_16  and  C_17
REMARK    6  A    between atoms: N_23  and  C_24
REMARK                            x       y       z     vdW  Elec       q    Type
REMARK                         _______ _______ _______ _____ _____    ______ ____
ROOT
ATOM      1  C   UNL     1       3.086   5.691  19.351  0.00  0.00    +0.000 A 
ATOM      2  C   UNL     1       2.396   5.180  20.438  0.00  0.00    +0.000 A 
ATOM      3  C   UNL     1       1.570   6.223  20.924  0.00  0.00    +0.000 A 
ATOM      4  C   UNL     1       1.777   7.309  20.101  0.00  0.00    +0.000 A 
ATOM      5  O   UNL     1       2.695   6.988  19.136  0.00  0.00    +0.000 OA
ENDROOT
BRANCH   4   6
ATOM      6  C   UNL     1       1.231   8.659  20.064  0.00  0.00    +0.000 A 
ATOM      7  C   UNL     1       1.347   9.432  18.898  0.00  0.00    +0.000 A 
ATOM      8  C   UNL     1       0.885  10.747  18.866  0.00  0.00    +0.000 A 
ATOM      9  C   UNL     1       0.273  11.300  19.990  0.00  0.00    +0.000 A 
ATOM     10  C   UNL     1       0.102  10.532  21.153  0.00  0.00    +0.000 A 
ATOM     11  C   UNL     1       0.597   9.220  21.181  0.00  0.00    +0.000 A 
BRANCH  10  12
ATOM     12  C   UNL     1      -0.626  11.102  22.346  0.00  0.00    +0.000 C 
ATOM     13  F   UNL     1      -1.974  11.164  22.170  0.00  0.00    +0.000 F 
ATOM     14  F   UNL     1      -0.426  10.362  23.473  0.00  0.00    +0.000 F 
ATOM     15  F   UNL     1      -0.227  12.365  22.660  0.00  0.00    +0.000 F 
ENDBRANCH  10  12
ENDBRANCH   4   6
BRANCH   1  17
ATOM     16  N   UNL     1       4.423   5.943  17.350  0.00  0.00    +0.000 N 
ATOM     17  C   UNL     1       4.096   5.122  18.494  0.00  0.00    +0.000 C 
ATOM     18  O   UNL     1       4.665   4.053  18.693  0.00  0.00    +0.000 OA
ATOM     19  H   UNL     1       3.932   6.825  17.275  0.00  0.00    +0.000 HD
BRANCH  16  23
ATOM     20  C   UNL     1       6.803   4.118  13.340  0.00  0.00    +0.000 C 
ATOM     21  C   UNL     1       6.449   4.801  14.609  0.00  0.00    +0.000 A 
ATOM     22  C   UNL     1       5.184   4.878  15.233  0.00  0.00    +0.000 A 
ATOM     23  C   UNL     1       5.372   5.605  16.386  0.00  0.00    +0.000 A 
ATOM     24  N   UNL     1       6.713   5.922  16.386  0.00  0.00    +0.000 N 
ATOM     25  C   UNL     1       7.472   6.665  17.362  0.00  0.00    +0.000 C 
ATOM     26  N   UNL     1       7.377   5.447  15.315  0.00  0.00    +0.000 NA
ENDBRANCH  16  23
ENDBRANCH   1  17
TORSDOF 4
ENDMDL
MODEL 9
REMARK VINA RESULT:      -7.8      2.180      3.239
REMARK  Name = 
REMARK  6 active torsions:
REMARK  status: ('A' for Active; 'I' for Inactive)
REMARK    1  A    between atoms: C_1  and  C_2
REMARK    2  A    between atoms: C_4  and  N_5
REMARK    3  A    between atoms: C_6  and  C_8
REMARK    4  A    between atoms: C_11  and  C_12
REMARK    5  A    between atoms: C_16  and  C_17
REMARK    6  A    between atoms: N_23  and  C_24
REMARK                            x       y       z     vdW  Elec       q    Type
REMARK                         _______ _______ _______ _____ _____    ______ ____
ROOT
ATOM      1  C   UNL     1       2.183   8.374  18.359  0.00  0.00    +0.000 A 
ATOM      2  C   UNL     1       2.017   9.583  17.702  0.00  0.00    +0.000 A 
ATOM      3  C   UNL     1       1.270  10.419  18.567  0.00  0.00    +0.000 A 
ATOM      4  C   UNL     1       1.036   9.693  19.715  0.00  0.00    +0.000 A 
ATOM      5  O   UNL     1       1.596   8.449  19.596  0.00  0.00    +0.000 OA
ENDROOT
BRANCH   4   6
ATOM      6  C   UNL     1       0.345   9.985  20.965  0.00  0.00    +0.000 A 
ATOM      7  C   UNL     1       0.596   9.206  22.105  0.00  0.00    +0.000 A 
ATOM      8  C   UNL     1      -0.101   9.433  23.291  0.00  0.00    +0.000 A 
ATOM      9  C   UNL     1      -1.039  10.462  23.363  0.00  0.00    +0.000 A 
ATOM     10  C   UNL     1      -1.274  11.286  22.251  0.00  0.00    +0.000 A 
ATOM     11  C   UNL     1      -0.586  11.028  21.056  0.00  0.00    +0.000 A 
BRANCH  10  12
ATOM     12  C   UNL     1      -2.234  12.448  22.347  0.00  0.00    +0.000 C 
ATOM     13  F   UNL     1      -1.758  13.472  23.106  0.00  0.00    +0.000 F 
ATOM     14  F   UNL     1      -2.519  12.983  21.127  0.00  0.00    +0.000 F 
ATOM     15  F   UNL     1      -3.435  12.102  22.887  0.00  0.00    +0.000 F 
ENDBRANCH  10  12
ENDBRANCH   4   6
BRANCH   1  17
ATOM     16  N   UNL     1       4.111   7.302  17.365  0.00  0.00    +0.000 N 
ATOM     17  C   UNL     1       2.804   7.136  17.961  0.00  0.00    +0.000 C 
ATOM     18  O   UNL     1       2.312   6.022  18.115  0.00  0.00    +0.000 OA
ATOM     19  H   UNL     1       4.459   8.250  17.302  0.00  0.00    +0.000 HD
BRANCH  16  23
ATOM     20  C   UNL     1       6.576   3.974  14.550  0.00  0.00    +0.000 C 
ATOM     21  C   UNL     1       6.008   4.760  15.673  0.00  0.00    +0.000 A 
ATOM     22  C   UNL     1       5.166   5.893  15.605  0.00  0.00    +0.000 A 
ATOM     23  C   UNL     1       4.905   6.251  16.908  0.00  0.00    +0.000 A 
ATOM     24  N   UNL     1       5.596   5.334  17.670  0.00  0.00    +0.000 N 
ATOM     25  C   UNL     1       5.675   5.219  19.105  0.00  0.00    +0.000 C 
ATOM     26  N   UNL     1       6.273   4.429  16.937  0.00  0.00    +0.000 NA
ENDBRANCH  16  23
ENDBRANCH   1  17
TORSDOF 4
ENDMDL
