MODEL 1
REMARK VINA RESULT:      -8.4      0.000      0.000
REMARK  Name = 
REMARK  7 active torsions:
REMARK  status: ('A' for Active; 'I' for Inactive)
REMARK    1  A    between atoms: C_1  and  C_2
REMARK    2  A    between atoms: C_4  and  C_5
REMARK    3  A    between atoms: N_6  and  C_7
REMARK    4  A    between atoms: C_10  and  C_11
REMARK    5  A    between atoms: N_13  and  C_14
REMARK    6  A    between atoms: C_19  and  O_20
REMARK    7  A    between atoms: O_20  and  C_21
REMARK                            x       y       z     vdW  Elec       q    Type
REMARK                         _______ _______ _______ _____ _____    ______ ____
ROOT
ATOM      1  C   UNL     1       2.044   6.564  19.618  0.00  0.00    +0.000 C 
ATOM      2  O   UNL     1       2.290   6.098  20.720  0.00  0.00    +0.000 OA
ATOM      3  N   UNL     1       2.151   5.900  18.403  0.00  0.00    +0.000 N 
ATOM      4  H   UNL     1       2.172   6.450  17.557  0.00  0.00    +0.000 HD
ENDROOT
BRANCH   1   8
ATOM      5  C   UNL     1       1.105  10.726  19.175  0.00  0.00    +0.000 A 
ATOM      6  C   UNL     1       1.692  10.006  18.125  0.00  0.00    +0.000 A 
ATOM      7  C   UNL     1       2.014   8.656  18.291  0.00  0.00    +0.000 A 
ATOM      8  C   UNL     1       1.738   8.010  19.500  0.00  0.00    +0.000 A 
ATOM      9  C   UNL     1       1.187   8.725  20.559  0.00  0.00    +0.000 A 
ATOM     10  C   UNL     1       0.883  10.078  20.397  0.00  0.00    +0.000 A 
ATOM     11  F   UNL     1       0.302  10.701  21.433  0.00  0.00    +0.000 F 
BRANCH   5  17
ATOM     12  C   UNL     1       2.000  15.442  18.868  0.00  0.00    +0.000 C 
ATOM     13  C   UNL     1       1.197  14.197  18.845  0.00  0.00    +0.000 A 
ATOM     14  C   UNL     1      -0.155  14.039  18.496  0.00  0.00    +0.000 A 
ATOM     15  C   UNL     1      -0.424  12.695  18.661  0.00  0.00    +0.000 A 
ATOM     16  C   UNL     1      -1.741  12.011  18.592  0.00  0.00    +0.000 C 
ATOM     17  N   UNL     1       0.783  12.103  19.026  0.00  0.00    +0.000 N 
ATOM     18  N   UNL     1       1.747  13.038  19.208  0.00  0.00    +0.000 NA
ENDBRANCH   5  17
ENDBRANCH   1   8
BRANCH   3  19
ATOM     19  C   UNL     1       2.560   4.559  18.271  0.00  0.00    +0.000 A 
ATOM     20  C   UNL     1       1.664   3.521  18.562  0.00  0.00    +0.000 A 
ATOM     21  C   UNL     1       2.021   2.191  18.337  0.00  0.00    +0.000 A 
ATOM     22  C   UNL     1       3.289   1.887  17.850  0.00  0.00    +0.000 A 
ATOM     23  C   UNL     1       4.194   2.914  17.569  0.00  0.00    +0.000 A 
ATOM     24  C   UNL     1       3.838   4.252  17.771  0.00  0.00    +0.000 A 
BRANCH  24  25
ATOM     25  O   UNL     1       4.776   5.179  17.381  0.00  0.00    +0.000 OA
BRANCH  25  26
ATOM     26  C   UNL     1       6.152   4.796  17.560  0.00  0.00    +0.000 C 
ATOM     27  C   UNL     1       6.731   5.655  18.670  0.00  0.00    +0.000 C 
ATOM     28  C   UNL     1       7.604   6.690  17.989  0.00  0.00    +0.000 C 
ATOM     29  O   UNL     1       7.503   6.503  16.581  0.00  0.00    +0.000 OA
ATOM     30  C   UNL     1       6.981   5.191  16.342  0.00  0.00    +0.000 C 
ENDBRANCH  25  26
ENDBRANCH  24  25
ENDBRANCH   3  19
TORSDOF 5
ENDMDL
MODEL 2
REMARK VINA RESULT:      -8.3      3.308      8.896
REMARK  Name = 
REMARK  7 active torsions:
REMARK  status: ('A' for Active; 'I' for Inactive)
REMARK    1  A    between atoms: C_1  and  C_2
REMARK    2  A    between atoms: C_4  and  C_5
REMARK    3  A    between atoms: N_6  and  C_7
REMARK    4  A    between atoms: C_10  and  C_11
REMARK    5  A    between atoms: N_13  and  C_14
REMARK    6  A    between atoms: C_19  and  O_20
REMARK    7  A    between atoms: O_20  and  C_21
REMARK                            x       y       z     vdW  Elec       q    Type
REMARK                         _______ _______ _______ _____ _____    ______ ____
ROOT
ATOM      1  C   UNL     1       0.764  10.494  19.528  0.00  0.00    +0.000 C 
ATOM      2  O   UNL     1       1.315  11.578  19.402  0.00  0.00    +0.000 OA
ATOM      3  N   UNL     1      -0.457  10.261  20.145  0.00  0.00    +0.000 N 
ATOM      4  H   UNL     1      -0.684   9.315  20.416  0.00  0.00    +0.000 HD
ENDROOT
BRANCH   1   8
ATOM      5  C   UNL     1       2.965   7.009  18.341  0.00  0.00    +0.000 A 
ATOM      6  C   UNL     1       2.805   8.091  17.464  0.00  0.00    +0.000 A 
ATOM      7  C   UNL     1       2.066   9.211  17.856  0.00  0.00    +0.000 A 
ATOM      8  C   UNL     1       1.494   9.266  19.131  0.00  0.00    +0.000 A 
ATOM      9  C   UNL     1       1.618   8.183  19.995  0.00  0.00    +0.000 A 
ATOM     10  C   UNL     1       2.342   7.058  19.594  0.00  0.00    +0.000 A 
ATOM     11  F   UNL     1       2.476   6.068  20.490  0.00  0.00    +0.000 F 
BRANCH   5  17
ATOM     12  C   UNL     1       6.915   4.430  17.398  0.00  0.00    +0.000 C 
ATOM     13  C   UNL     1       5.470   4.704  17.579  0.00  0.00    +0.000 A 
ATOM     14  C   UNL     1       4.401   3.791  17.558  0.00  0.00    +0.000 A 
ATOM     15  C   UNL     1       3.265   4.551  17.753  0.00  0.00    +0.000 A 
ATOM     16  C   UNL     1       1.847   4.116  17.653  0.00  0.00    +0.000 C 
ATOM     17  N   UNL     1       3.704   5.858  17.953  0.00  0.00    +0.000 N 
ATOM     18  N   UNL     1       5.043   5.952  17.771  0.00  0.00    +0.000 NA
ENDBRANCH   5  17
ENDBRANCH   1   8
BRANCH   3  19
ATOM     19  C   UNL     1      -1.257  11.269  20.717  0.00  0.00    +0.000 A 
ATOM     20  C   UNL     1      -1.167  11.541  22.089  0.00  0.00    +0.000 A 
ATOM     21  C   UNL     1      -1.876  12.604  22.650  0.00  0.00    +0.000 A 
ATOM     22  C   UNL     1      -2.707  13.383  21.849  0.00  0.00    +0.000 A 
ATOM     23  C   UNL     1      -2.814  13.111  20.483  0.00  0.00    +0.000 A 
ATOM     24  C   UNL     1      -2.090  12.061  19.907  0.00  0.00    +0.000 A 
BRANCH  24  25
ATOM     25  O   UNL     1      -2.207  11.940  18.542  0.00  0.00    +0.000 OA
BRANCH  25  26
ATOM     26  C   UNL     1      -3.005  10.837  18.074  0.00  0.00    +0.000 C 
ATOM     27  C   UNL     1      -2.180  10.067  17.058  0.00  0.00    +0.000 C 
ATOM     28  C   UNL     1      -2.741  10.429  15.698  0.00  0.00    +0.000 C 
ATOM     29  O   UNL     1      -3.777  11.390  15.883  0.00  0.00    +0.000 OA
ATOM     30  C   UNL     1      -4.189  11.342  17.254  0.00  0.00    +0.000 C 
ENDBRANCH  25  26
ENDBRANCH  24  25
ENDBRANCH   3  19
TORSDOF 5
ENDMDL
MODEL 3
REMARK VINA RESULT:      -8.1      1.297      1.299
REMARK  Name = 
REMARK  7 active torsions:
REMARK  status: ('A' for Active; 'I' for Inactive)
REMARK    1  A    between atoms: C_1  and  C_2
REMARK    2  A    between atoms: C_4  and  C_5
REMARK    3  A    between atoms: N_6  and  C_7
REMARK    4  A    between atoms: C_10  and  C_11
REMARK    5  A    between atoms: N_13  and  C_14
REMARK    6  A    between atoms: C_19  and  O_20
REMARK    7  A    between atoms: O_20  and  C_21
REMARK                            x       y       z     vdW  Elec       q    Type
REMARK                         _______ _______ _______ _____ _____    ______ ____
ROOT
ATOM      1  C   UNL     1       2.311   6.781  18.750  0.00  0.00    +0.000 C 
ATOM      2  O   UNL     1       1.915   6.133  17.793  0.00  0.00    +0.000 OA
ATOM      3  N   UNL     1       2.986   6.283  19.856  0.00  0.00    +0.000 N 
ATOM      4  H   UNL     1       3.033   6.855  20.686  0.00  0.00    +0.000 HD
ENDROOT
BRANCH   1   8
ATOM      5  C   UNL     1       1.180  10.914  18.944  0.00  0.00    +0.000 A 
ATOM      6  C   UNL     1       1.907  10.418  17.852  0.00  0.00    +0.000 A 
ATOM      7  C   UNL     1       2.288   9.074  17.813  0.00  0.00    +0.000 A 
ATOM      8  C   UNL     1       1.935   8.211  18.855  0.00  0.00    +0.000 A 
ATOM      9  C   UNL     1       1.244   8.702  19.958  0.00  0.00    +0.000 A 
ATOM     10  C   UNL     1       0.879  10.049  20.003  0.00  0.00    +0.000 A 
ATOM     11  F   UNL     1       0.165  10.453  21.065  0.00  0.00    +0.000 F 
BRANCH   5  17
ATOM     12  C   UNL     1       1.832  15.644  19.529  0.00  0.00    +0.000 C 
ATOM     13  C   UNL     1       1.104  14.390  19.221  0.00  0.00    +0.000 A 
ATOM     14  C   UNL     1      -0.204  14.241  18.730  0.00  0.00    +0.000 A 
ATOM     15  C   UNL     1      -0.409  12.879  18.638  0.00  0.00    +0.000 A 
ATOM     16  C   UNL     1      -1.677  12.164  18.335  0.00  0.00    +0.000 C 
ATOM     17  N   UNL     1       0.795  12.281  19.004  0.00  0.00    +0.000 N 
ATOM     18  N   UNL     1       1.687  13.210  19.429  0.00  0.00    +0.000 NA
ENDBRANCH   5  17
ENDBRANCH   1   8
BRANCH   3  19
ATOM     19  C   UNL     1       3.326   4.927  20.028  0.00  0.00    +0.000 A 
ATOM     20  C   UNL     1       2.615   4.137  20.941  0.00  0.00    +0.000 A 
ATOM     21  C   UNL     1       2.871   2.770  21.048  0.00  0.00    +0.000 A 
ATOM     22  C   UNL     1       3.864   2.188  20.265  0.00  0.00    +0.000 A 
ATOM     23  C   UNL     1       4.588   2.970  19.360  0.00  0.00    +0.000 A 
ATOM     24  C   UNL     1       4.323   4.338  19.231  0.00  0.00    +0.000 A 
BRANCH  24  25
ATOM     25  O   UNL     1       5.036   4.988  18.251  0.00  0.00    +0.000 OA
BRANCH  25  26
ATOM     26  C   UNL     1       6.451   4.722  18.221  0.00  0.00    +0.000 C 
ATOM     27  C   UNL     1       7.139   5.778  19.067  0.00  0.00    +0.000 C 
ATOM     28  C   UNL     1       7.783   6.744  18.093  0.00  0.00    +0.000 C 
ATOM     29  O   UNL     1       7.451   6.332  16.770  0.00  0.00    +0.000 OA
ATOM     30  C   UNL     1       7.013   4.970  16.825  0.00  0.00    +0.000 C 
ENDBRANCH  25  26
ENDBRANCH  24  25
ENDBRANCH   3  19
TORSDOF 5
ENDMDL
MODEL 4
REMARK VINA RESULT:      -8.1      2.206      2.619
REMARK  Name = 
REMARK  7 active torsions:
REMARK  status: ('A' for Active; 'I' for Inactive)
REMARK    1  A    between atoms: C_1  and  C_2
REMARK    2  A    between atoms: C_4  and  C_5
REMARK    3  A    between atoms: N_6  and  C_7
REMARK    4  A    between atoms: C_10  and  C_11
REMARK    5  A    between atoms: N_13  and  C_14
REMARK    6  A    between atoms: C_19  and  O_20
REMARK    7  A    between atoms: O_20  and  C_21
REMARK                            x       y       z     vdW  Elec       q    Type
REMARK                         _______ _______ _______ _____ _____    ______ ____
ROOT
ATOM      1  C   UNL     1       2.240   7.033  19.382  0.00  0.00    +0.000 C 
ATOM      2  O   UNL     1       2.289   6.923  18.166  0.00  0.00    +0.000 OA
ATOM      3  N   UNL     1       2.565   6.053  20.309  0.00  0.00    +0.000 N 
ATOM      4  H   UNL     1       2.244   6.167  21.260  0.00  0.00    +0.000 HD
ENDROOT
BRANCH   1   8
ATOM      5  C   UNL     1       0.440  10.576  21.000  0.00  0.00    +0.000 A 
ATOM      6  C   UNL     1       0.668  10.449  19.622  0.00  0.00    +0.000 A 
ATOM      7  C   UNL     1       1.276   9.299  19.111  0.00  0.00    +0.000 A 
ATOM      8  C   UNL     1       1.648   8.259  19.969  0.00  0.00    +0.000 A 
ATOM      9  C   UNL     1       1.459   8.390  21.341  0.00  0.00    +0.000 A 
ATOM     10  C   UNL     1       0.867   9.548  21.850  0.00  0.00    +0.000 A 
ATOM     11  F   UNL     1       0.657   9.594  23.175  0.00  0.00    +0.000 F 
BRANCH   5  17
ATOM     12  C   UNL     1      -2.876  13.103  23.397  0.00  0.00    +0.000 C 
ATOM     13  C   UNL     1      -1.624  12.855  22.644  0.00  0.00    +0.000 A 
ATOM     14  C   UNL     1      -0.573  13.751  22.383  0.00  0.00    +0.000 A 
ATOM     15  C   UNL     1       0.338  13.039  21.629  0.00  0.00    +0.000 A 
ATOM     16  C   UNL     1       1.553  13.550  20.941  0.00  0.00    +0.000 C 
ATOM     17  N   UNL     1      -0.166  11.744  21.535  0.00  0.00    +0.000 N 
ATOM     18  N   UNL     1      -1.398  11.663  22.094  0.00  0.00    +0.000 NA
ENDBRANCH   5  17
ENDBRANCH   1   8
BRANCH   3  19
ATOM     19  C   UNL     1       3.018   4.764  19.968  0.00  0.00    +0.000 A 
ATOM     20  C   UNL     1       2.145   3.671  20.046  0.00  0.00    +0.000 A 
ATOM     21  C   UNL     1       2.548   2.407  19.614  0.00  0.00    +0.000 A 
ATOM     22  C   UNL     1       3.841   2.220  19.131  0.00  0.00    +0.000 A 
ATOM     23  C   UNL     1       4.723   3.301  19.062  0.00  0.00    +0.000 A 
ATOM     24  C   UNL     1       4.321   4.576  19.473  0.00  0.00    +0.000 A 
BRANCH  24  25
ATOM     25  O   UNL     1       5.243   5.578  19.281  0.00  0.00    +0.000 OA
BRANCH  25  26
ATOM     26  C   UNL     1       6.227   5.339  18.258  0.00  0.00    +0.000 C 
ATOM     27  C   UNL     1       7.510   6.035  18.678  0.00  0.00    +0.000 C 
ATOM     28  C   UNL     1       7.614   7.280  17.819  0.00  0.00    +0.000 C 
ATOM     29  O   UNL     1       6.453   7.354  16.997  0.00  0.00    +0.000 OA
ATOM     30  C   UNL     1       5.844   6.058  16.968  0.00  0.00    +0.000 C 
ENDBRANCH  25  26
ENDBRANCH  24  25
ENDBRANCH   3  19
TORSDOF 5
ENDMDL
MODEL 5
REMARK VINA RESULT:      -8.1      2.021      3.582
REMARK  Name = 
REMARK  7 active torsions:
REMARK  status: ('A' for Active; 'I' for Inactive)
REMARK    1  A    between atoms: C_1  and  C_2
REMARK    2  A    between atoms: C_4  and  C_5
REMARK    3  A    between atoms: N_6  and  C_7
REMARK    4  A    between atoms: C_10  and  C_11
REMARK    5  A    between atoms: N_13  and  C_14
REMARK    6  A    between atoms: C_19  and  O_20
REMARK    7  A    between atoms: O_20  and  C_21
REMARK                            x       y       z     vdW  Elec       q    Type
REMARK                         _______ _______ _______ _____ _____    ______ ____
ROOT
ATOM      1  C   UNL     1       3.233   6.920  18.731  0.00  0.00    +0.000 C 
ATOM      2  O   UNL     1       3.591   6.235  19.679  0.00  0.00    +0.000 OA
ATOM      3  N   UNL     1       3.803   6.932  17.466  0.00  0.00    +0.000 N 
ATOM      4  H   UNL     1       3.596   7.709  16.855  0.00  0.00    +0.000 HD
ENDROOT
BRANCH   1   8
ATOM      5  C   UNL     1       0.168   9.876  19.248  0.00  0.00    +0.000 A 
ATOM      6  C   UNL     1       0.840   9.743  18.024  0.00  0.00    +0.000 A 
ATOM      7  C   UNL     1       1.853   8.791  17.877  0.00  0.00    +0.000 A 
ATOM      8  C   UNL     1       2.192   7.953  18.945  0.00  0.00    +0.000 A 
ATOM      9  C   UNL     1       1.555   8.101  20.173  0.00  0.00    +0.000 A 
ATOM     10  C   UNL     1       0.556   9.066  20.322  0.00  0.00    +0.000 A 
ATOM     11  F   UNL     1      -0.062   9.124  21.511  0.00  0.00    +0.000 F 
BRANCH   5  17
ATOM     12  C   UNL     1      -1.813  13.929  20.916  0.00  0.00    +0.000 C 
ATOM     13  C   UNL     1      -1.713  12.678  20.128  0.00  0.00    +0.000 A 
ATOM     14  C   UNL     1      -2.608  12.181  19.165  0.00  0.00    +0.000 A 
ATOM     15  C   UNL     1      -2.070  10.980  18.748  0.00  0.00    +0.000 A 
ATOM     16  C   UNL     1      -2.691   9.958  17.865  0.00  0.00    +0.000 C 
ATOM     17  N   UNL     1      -0.855  10.848  19.417  0.00  0.00    +0.000 N 
ATOM     18  N   UNL     1      -0.683  11.853  20.311  0.00  0.00    +0.000 NA
ENDBRANCH   5  17
ENDBRANCH   1   8
BRANCH   3  19
ATOM     19  C   UNL     1       4.895   6.129  17.084  0.00  0.00    +0.000 A 
ATOM     20  C   UNL     1       6.169   6.696  16.952  0.00  0.00    +0.000 A 
ATOM     21  C   UNL     1       7.278   5.895  16.675  0.00  0.00    +0.000 A 
ATOM     22  C   UNL     1       7.114   4.524  16.497  0.00  0.00    +0.000 A 
ATOM     23  C   UNL     1       5.846   3.951  16.614  0.00  0.00    +0.000 A 
ATOM     24  C   UNL     1       4.731   4.743  16.911  0.00  0.00    +0.000 A 
BRANCH  24  25
ATOM     25  O   UNL     1       3.550   4.061  17.086  0.00  0.00    +0.000 OA
BRANCH  25  26
ATOM     26  C   UNL     1       3.650   2.793  17.761  0.00  0.00    +0.000 C 
ATOM     27  C   UNL     1       2.278   2.144  17.733  0.00  0.00    +0.000 C 
ATOM     28  C   UNL     1       1.708   2.303  19.129  0.00  0.00    +0.000 C 
ATOM     29  O   UNL     1       2.640   3.044  19.910  0.00  0.00    +0.000 OA
ATOM     30  C   UNL     1       3.911   2.998  19.250  0.00  0.00    +0.000 C 
ENDBRANCH  25  26
ENDBRANCH  24  25
ENDBRANCH   3  19
TORSDOF 5
ENDMDL
MODEL 6
REMARK VINA RESULT:      -8.1      1.693      1.724
REMARK  Name = 
REMARK  7 active torsions:
REMARK  status: ('A' for Active; 'I' for Inactive)
REMARK    1  A    between atoms: C_1  and  C_2
REMARK    2  A    between atoms: C_4  and  C_5
REMARK    3  A    between atoms: N_6  and  C_7
REMARK    4  A    between atoms: C_10  and  C_11
REMARK    5  A    between atoms: N_13  and  C_14
REMARK    6  A    between atoms: C_19  and  O_20
REMARK    7  A    between atoms: O_20  and  C_21
REMARK                            x       y       z     vdW  Elec       q    Type
REMARK                         _______ _______ _______ _____ _____    ______ ____
ROOT
ATOM      1  C   UNL     1       2.298   7.113  19.077  0.00  0.00    +0.000 C 
ATOM      2  O   UNL     1       2.302   6.841  17.885  0.00  0.00    +0.000 OA
ATOM      3  N   UNL     1       2.619   6.251  20.116  0.00  0.00    +0.000 N 
ATOM      4  H   UNL     1       2.334   6.501  21.052  0.00  0.00    +0.000 HD
ENDROOT
BRANCH   1   8
ATOM      5  C   UNL     1       0.697  10.918  20.241  0.00  0.00    +0.000 A 
ATOM      6  C   UNL     1       1.162  10.703  18.936  0.00  0.00    +0.000 A 
ATOM      7  C   UNL     1       1.702   9.465  18.577  0.00  0.00    +0.000 A 
ATOM      8  C   UNL     1       1.768   8.427  19.513  0.00  0.00    +0.000 A 
ATOM      9  C   UNL     1       1.342   8.643  20.819  0.00  0.00    +0.000 A 
ATOM     10  C   UNL     1       0.819   9.886  21.180  0.00  0.00    +0.000 A 
ATOM     11  F   UNL     1       0.371  10.018  22.438  0.00  0.00    +0.000 F 
BRANCH   5  17
ATOM     12  C   UNL     1       0.746  15.312  22.196  0.00  0.00    +0.000 C 
ATOM     13  C   UNL     1       0.201  14.149  21.458  0.00  0.00    +0.000 A 
ATOM     14  C   UNL     1      -1.022  14.047  20.773  0.00  0.00    +0.000 A 
ATOM     15  C   UNL     1      -1.061  12.758  20.281  0.00  0.00    +0.000 A 
ATOM     16  C   UNL     1      -2.200  12.065  19.624  0.00  0.00    +0.000 C 
ATOM     17  N   UNL     1       0.156  12.176  20.626  0.00  0.00    +0.000 N 
ATOM     18  N   UNL     1       0.887  13.007  21.407  0.00  0.00    +0.000 NA
ENDBRANCH   5  17
ENDBRANCH   1   8
BRANCH   3  19
ATOM     19  C   UNL     1       3.015   4.911  19.937  0.00  0.00    +0.000 A 
ATOM     20  C   UNL     1       2.073   3.880  20.052  0.00  0.00    +0.000 A 
ATOM     21  C   UNL     1       2.429   2.559  19.776  0.00  0.00    +0.000 A 
ATOM     22  C   UNL     1       3.738   2.256  19.414  0.00  0.00    +0.000 A 
ATOM     23  C   UNL     1       4.688   3.275  19.308  0.00  0.00    +0.000 A 
ATOM     24  C   UNL     1       4.336   4.605  19.563  0.00  0.00    +0.000 A 
BRANCH  24  25
ATOM     25  O   UNL     1       5.329   5.531  19.345  0.00  0.00    +0.000 OA
BRANCH  25  26
ATOM     26  C   UNL     1       6.216   5.256  18.246  0.00  0.00    +0.000 C 
ATOM     27  C   UNL     1       7.538   5.946  18.534  0.00  0.00    +0.000 C 
ATOM     28  C   UNL     1       7.579   7.168  17.638  0.00  0.00    +0.000 C 
ATOM     29  O   UNL     1       6.351   7.236  16.920  0.00  0.00    +0.000 OA
ATOM     30  C   UNL     1       5.729   5.947  16.977  0.00  0.00    +0.000 C 
ENDBRANCH  25  26
ENDBRANCH  24  25
ENDBRANCH   3  19
TORSDOF 5
ENDMDL
MODEL 7
REMARK VINA RESULT:      -8.1      3.002      8.862
REMARK  Name = 
REMARK  7 active torsions:
REMARK  status: ('A' for Active; 'I' for Inactive)
REMARK    1  A    between atoms: C_1  and  C_2
REMARK    2  A    between atoms: C_4  and  C_5
REMARK    3  A    between atoms: N_6  and  C_7
REMARK    4  A    between atoms: C_10  and  C_11
REMARK    5  A    between atoms: N_13  and  C_14
REMARK    6  A    between atoms: C_19  and  O_20
REMARK    7  A    between atoms: O_20  and  C_21
REMARK                            x       y       z     vdW  Elec       q    Type
REMARK                         _______ _______ _______ _____ _____    ______ ____
ROOT
ATOM      1  C   UNL     1       0.709   9.858  20.290  0.00  0.00    +0.000 C 
ATOM      2  O   UNL     1      -0.170   9.595  21.097  0.00  0.00    +0.000 OA
ATOM      3  N   UNL     1       1.006  11.115  19.780  0.00  0.00    +0.000 N 
ATOM      4  H   UNL     1       1.568  11.171  18.943  0.00  0.00    +0.000 HD
ENDROOT
BRANCH   1   8
ATOM      5  C   UNL     1       2.963   6.722  18.422  0.00  0.00    +0.000 A 
ATOM      6  C   UNL     1       2.628   7.886  17.715  0.00  0.00    +0.000 A 
ATOM      7  C   UNL     1       1.873   8.890  18.329  0.00  0.00    +0.000 A 
ATOM      8  C   UNL     1       1.461   8.748  19.658  0.00  0.00    +0.000 A 
ATOM      9  C   UNL     1       1.758   7.581  20.356  0.00  0.00    +0.000 A 
ATOM     10  C   UNL     1       2.497   6.573  19.734  0.00  0.00    +0.000 A 
ATOM     11  F   UNL     1       2.803   5.496  20.474  0.00  0.00    +0.000 F 
BRANCH   5  17
ATOM     12  C   UNL     1       6.920   4.593  16.708  0.00  0.00    +0.000 C 
ATOM     13  C   UNL     1       5.495   4.729  17.088  0.00  0.00    +0.000 A 
ATOM     14  C   UNL     1       4.492   3.743  17.076  0.00  0.00    +0.000 A 
ATOM     15  C   UNL     1       3.343   4.383  17.496  0.00  0.00    +0.000 A 
ATOM     16  C   UNL     1       1.954   3.853  17.506  0.00  0.00    +0.000 C 
ATOM     17  N   UNL     1       3.719   5.687  17.808  0.00  0.00    +0.000 N 
ATOM     18  N   UNL     1       5.017   5.908  17.485  0.00  0.00    +0.000 NA
ENDBRANCH   5  17
ENDBRANCH   1   8
BRANCH   3  19
ATOM     19  C   UNL     1       0.324  12.293  20.139  0.00  0.00    +0.000 A 
ATOM     20  C   UNL     1       0.728  13.022  21.265  0.00  0.00    +0.000 A 
ATOM     21  C   UNL     1       0.129  14.244  21.574  0.00  0.00    +0.000 A 
ATOM     22  C   UNL     1      -0.902  14.730  20.776  0.00  0.00    +0.000 A 
ATOM     23  C   UNL     1      -1.322  14.005  19.658  0.00  0.00    +0.000 A 
ATOM     24  C   UNL     1      -0.713  12.789  19.328  0.00  0.00    +0.000 A 
BRANCH  24  25
ATOM     25  O   UNL     1      -1.149  12.206  18.161  0.00  0.00    +0.000 OA
BRANCH  25  26
ATOM     26  C   UNL     1      -2.108  11.143  18.309  0.00  0.00    +0.000 C 
ATOM     27  C   UNL     1      -1.678  10.002  17.405  0.00  0.00    +0.000 C 
ATOM     28  C   UNL     1      -2.612  10.035  16.212  0.00  0.00    +0.000 C 
ATOM     29  O   UNL     1      -3.489  11.148  16.362  0.00  0.00    +0.000 OA
ATOM     30  C   UNL     1      -3.459  11.556  17.734  0.00  0.00    +0.000 C 
ENDBRANCH  25  26
ENDBRANCH  24  25
ENDBRANCH   3  19
TORSDOF 5
ENDMDL
MODEL 8
REMARK VINA RESULT:      -8.1      1.901      3.818
REMARK  Name = 
REMARK  7 active torsions:
REMARK  status: ('A' for Active; 'I' for Inactive)
REMARK    1  A    between atoms: C_1  and  C_2
REMARK    2  A    between atoms: C_4  and  C_5
REMARK    3  A    between atoms: N_6  and  C_7
REMARK    4  A    between atoms: C_10  and  C_11
REMARK    5  A    between atoms: N_13  and  C_14
REMARK    6  A    between atoms: C_19  and  O_20
REMARK    7  A    between atoms: O_20  and  C_21
REMARK                            x       y       z     vdW  Elec       q    Type
REMARK                         _______ _______ _______ _____ _____    ______ ____
ROOT
ATOM      1  C   UNL     1       3.155   6.989  18.762  0.00  0.00    +0.000 C 
ATOM      2  O   UNL     1       3.446   6.263  19.701  0.00  0.00    +0.000 OA
ATOM      3  N   UNL     1       3.791   7.029  17.529  0.00  0.00    +0.000 N 
ATOM      4  H   UNL     1       3.636   7.832  16.936  0.00  0.00    +0.000 HD
ENDROOT
BRANCH   1   8
ATOM      5  C   UNL     1       0.134   9.998  19.227  0.00  0.00    +0.000 A 
ATOM      6  C   UNL     1       0.800   9.830  18.004  0.00  0.00    +0.000 A 
ATOM      7  C   UNL     1       1.798   8.861  17.873  0.00  0.00    +0.000 A 
ATOM      8  C   UNL     1       2.129   8.041  18.957  0.00  0.00    +0.000 A 
ATOM      9  C   UNL     1       1.499   8.223  20.184  0.00  0.00    +0.000 A 
ATOM     10  C   UNL     1       0.514   9.204  20.316  0.00  0.00    +0.000 A 
ATOM     11  F   UNL     1      -0.099   9.296  21.506  0.00  0.00    +0.000 F 
BRANCH   5  17
ATOM     12  C   UNL     1      -4.247  11.922  18.734  0.00  0.00    +0.000 C 
ATOM     13  C   UNL     1      -2.842  11.816  19.194  0.00  0.00    +0.000 A 
ATOM     14  C   UNL     1      -2.152  12.655  20.086  0.00  0.00    +0.000 A 
ATOM     15  C   UNL     1      -0.874  12.140  20.162  0.00  0.00    +0.000 A 
ATOM     16  C   UNL     1       0.313  12.734  20.830  0.00  0.00    +0.000 C 
ATOM     17  N   UNL     1      -0.875  10.987  19.379  0.00  0.00    +0.000 N 
ATOM     18  N   UNL     1      -2.059  10.841  18.735  0.00  0.00    +0.000 NA
ENDBRANCH   5  17
ENDBRANCH   1   8
BRANCH   3  19
ATOM     19  C   UNL     1       4.882   6.212  17.176  0.00  0.00    +0.000 A 
ATOM     20  C   UNL     1       6.167   6.763  17.074  0.00  0.00    +0.000 A 
ATOM     21  C   UNL     1       7.272   5.947  16.827  0.00  0.00    +0.000 A 
ATOM     22  C   UNL     1       7.096   4.578  16.648  0.00  0.00    +0.000 A 
ATOM     23  C   UNL     1       5.818   4.021  16.735  0.00  0.00    +0.000 A 
ATOM     24  C   UNL     1       4.706   4.827  17.003  0.00  0.00    +0.000 A 
BRANCH  24  25
ATOM     25  O   UNL     1       3.513   4.160  17.151  0.00  0.00    +0.000 OA
BRANCH  25  26
ATOM     26  C   UNL     1       3.590   2.863  17.770  0.00  0.00    +0.000 C 
ATOM     27  C   UNL     1       2.211   2.231  17.695  0.00  0.00    +0.000 C 
ATOM     28  C   UNL     1       1.624   2.334  19.089  0.00  0.00    +0.000 C 
ATOM     29  O   UNL     1       2.554   3.030  19.915  0.00  0.00    +0.000 OA
ATOM     30  C   UNL     1       3.833   2.999  19.270  0.00  0.00    +0.000 C 
ENDBRANCH  25  26
ENDBRANCH  24  25
ENDBRANCH   3  19
TORSDOF 5
ENDMDL
MODEL 9
REMARK VINA RESULT:      -8.0      1.853      2.070
REMARK  Name = 
REMARK  7 active torsions:
REMARK  status: ('A' for Active; 'I' for Inactive)
REMARK    1  A    between atoms: C_1  and  C_2
REMARK    2  A    between atoms: C_4  and  C_5
REMARK    3  A    between atoms: N_6  and  C_7
REMARK    4  A    between atoms: C_10  and  C_11
REMARK    5  A    between atoms: N_13  and  C_14
REMARK    6  A    between atoms: C_19  and  O_20
REMARK    7  A    between atoms: O_20  and  C_21
REMARK                            x       y       z     vdW  Elec       q    Type
REMARK                         _______ _______ _______ _____ _____    ______ ____
ROOT
ATOM      1  C   UNL     1       2.269   7.195  19.059  0.00  0.00    +0.000 C 
ATOM      2  O   UNL     1       2.332   6.918  17.871  0.00  0.00    +0.000 OA
ATOM      3  N   UNL     1       2.544   6.339  20.117  0.00  0.00    +0.000 N 
ATOM      4  H   UNL     1       2.213   6.593  21.037  0.00  0.00    +0.000 HD
ENDROOT
BRANCH   1   8
ATOM      5  C   UNL     1       0.720  10.990  20.325  0.00  0.00    +0.000 A 
ATOM      6  C   UNL     1       0.732   9.891  21.197  0.00  0.00    +0.000 A 
ATOM      7  C   UNL     1       1.219   8.655  20.764  0.00  0.00    +0.000 A 
ATOM      8  C   UNL     1       1.711   8.508  19.463  0.00  0.00    +0.000 A 
ATOM      9  C   UNL     1       1.670   9.583  18.580  0.00  0.00    +0.000 A 
ATOM     10  C   UNL     1       1.167  10.812  19.010  0.00  0.00    +0.000 A 
ATOM     11  F   UNL     1       1.206  11.827  18.133  0.00  0.00    +0.000 F 
BRANCH   5  17
ATOM     12  C   UNL     1       0.934  15.375  22.290  0.00  0.00    +0.000 C 
ATOM     13  C   UNL     1       0.333  14.220  21.583  0.00  0.00    +0.000 A 
ATOM     14  C   UNL     1      -0.931  14.133  20.974  0.00  0.00    +0.000 A 
ATOM     15  C   UNL     1      -1.014  12.847  20.480  0.00  0.00    +0.000 A 
ATOM     16  C   UNL     1      -2.198  12.168  19.892  0.00  0.00    +0.000 C 
ATOM     17  N   UNL     1       0.217  12.251  20.747  0.00  0.00    +0.000 N 
ATOM     18  N   UNL     1       1.003  13.072  21.485  0.00  0.00    +0.000 NA
ENDBRANCH   5  17
ENDBRANCH   1   8
BRANCH   3  19
ATOM     19  C   UNL     1       2.956   5.002  19.963  0.00  0.00    +0.000 A 
ATOM     20  C   UNL     1       2.033   3.961  20.128  0.00  0.00    +0.000 A 
ATOM     21  C   UNL     1       2.401   2.638  19.878  0.00  0.00    +0.000 A 
ATOM     22  C   UNL     1       3.707   2.344  19.493  0.00  0.00    +0.000 A 
ATOM     23  C   UNL     1       4.638   3.374  19.339  0.00  0.00    +0.000 A 
ATOM     24  C   UNL     1       4.273   4.705  19.567  0.00  0.00    +0.000 A 
BRANCH  24  25
ATOM     25  O   UNL     1       5.246   5.639  19.303  0.00  0.00    +0.000 OA
BRANCH  25  26
ATOM     26  C   UNL     1       6.139   5.327  18.218  0.00  0.00    +0.000 C 
ATOM     27  C   UNL     1       7.480   5.974  18.520  0.00  0.00    +0.000 C 
ATOM     28  C   UNL     1       7.574   7.189  17.619  0.00  0.00    +0.000 C 
ATOM     29  O   UNL     1       6.359   7.295  16.883  0.00  0.00    +0.000 OA
ATOM     30  C   UNL     1       5.693   6.028  16.938  0.00  0.00    +0.000 C 
ENDBRANCH  25  26
ENDBRANCH  24  25
ENDBRANCH   3  19
TORSDOF 5
ENDMDL
