MODEL 1
REMARK VINA RESULT:     -10.0      0.000      0.000
REMARK  Name = 
REMARK  5 active torsions:
REMARK  status: ('A' for Active; 'I' for Inactive)
REMARK    1  A    between atoms: C_1  and  C_2
REMARK    2  A    between atoms: C_5  and  C_6
REMARK    3  A    between atoms: C_6  and  N_7
REMARK    4  A    between atoms: C_6  and  C_20
REMARK    5  A    between atoms: C_8  and  C_10
REMARK                            x       y       z     vdW  Elec       q    Type
REMARK                         _______ _______ _______ _____ _____    ______ ____
ROOT
ATOM      1  C   UNL     1       3.641   6.400  18.394  0.00  0.00    +0.000 C 
ENDROOT
BRANCH   1   6
ATOM      2  C   UNL     1      -0.070  10.273  20.705  0.00  0.00    +0.000 C 
ATOM      3  C   UNL     1       0.839   9.264  20.070  0.00  0.00    +0.000 A 
ATOM      4  C   UNL     1       1.282   9.417  18.752  0.00  0.00    +0.000 A 
ATOM      5  C   UNL     1       2.163   8.485  18.187  0.00  0.00    +0.000 A 
ATOM      6  C   UNL     1       2.613   7.386  18.935  0.00  0.00    +0.000 A 
ATOM      7  C   UNL     1       2.149   7.231  20.250  0.00  0.00    +0.000 A 
ATOM      8  C   UNL     1       1.267   8.158  20.810  0.00  0.00    +0.000 A 
ENDBRANCH   1   6
BRANCH   1   9
ATOM      9  C   UNL     1       3.217   4.939  18.355  0.00  0.00    +0.000 A 
ATOM     10  C   UNL     1       3.934   3.934  19.024  0.00  0.00    +0.000 A 
ATOM     11  C   UNL     1       3.455   2.623  19.087  0.00  0.00    +0.000 A 
ATOM     12  C   UNL     1       2.245   2.293  18.489  0.00  0.00    +0.000 A 
ATOM     13  C   UNL     1       1.508   3.272  17.828  0.00  0.00    +0.000 A 
ATOM     14  C   UNL     1       1.987   4.582  17.764  0.00  0.00    +0.000 A 
ENDBRANCH   1   9
BRANCH   1  15
ATOM     15  N   UNL     1       4.075   6.877  17.097  0.00  0.00    +0.000 N 
ATOM     16  C   UNL     1       4.917   6.290  16.211  0.00  0.00    +0.000 C 
ATOM     17  O   UNL     1       5.207   6.950  15.208  0.00  0.00    +0.000 OA
ATOM     18  H   UNL     1       3.745   7.785  16.803  0.00  0.00    +0.000 HD
BRANCH  16  19
ATOM     19  C   UNL     1       5.539   4.895  16.502  0.00  0.00    +0.000 C 
ATOM     20  C   UNL     1       7.040   5.069  16.725  0.00  0.00    +0.000 C 
ATOM     21  O   UNL     1       7.654   5.580  15.528  0.00  0.00    +0.000 OA
ATOM     22  C   UNL     1       7.176   4.954  14.406  0.00  0.00    +0.000 A 
ATOM     23  C   UNL     1       7.752   5.297  13.189  0.00  0.00    +0.000 A 
ATOM     24  C   UNL     1       7.403   4.591  12.037  0.00  0.00    +0.000 A 
ATOM     25  C   UNL     1       6.507   3.522  12.116  0.00  0.00    +0.000 A 
ATOM     26  C   UNL     1       5.866   3.239  13.323  0.00  0.00    +0.000 A 
ATOM     27  C   UNL     1       6.148   4.010  14.446  0.00  0.00    +0.000 A 
ATOM     28  O   UNL     1       5.361   3.836  15.554  0.00  0.00    +0.000 OA
ENDBRANCH  16  19
ENDBRANCH   1  15
TORSDOF 4
ENDMDL
MODEL 2
REMARK VINA RESULT:      -9.5      2.958      6.776
REMARK  Name = 
REMARK  5 active torsions:
REMARK  status: ('A' for Active; 'I' for Inactive)
REMARK    1  A    between atoms: C_1  and  C_2
REMARK    2  A    between atoms: C_5  and  C_6
REMARK    3  A    between atoms: C_6  and  N_7
REMARK    4  A    between atoms: C_6  and  C_20
REMARK    5  A    between atoms: C_8  and  C_10
REMARK                            x       y       z     vdW  Elec       q    Type
REMARK                         _______ _______ _______ _____ _____    ______ ____
ROOT
ATOM      1  C   UNL     1       5.403   4.553  15.739  0.00  0.00    +0.000 C 
ENDROOT
BRANCH   1   6
ATOM      2  C   UNL     1       8.655   8.197  18.941  0.00  0.00    +0.000 C 
ATOM      3  C   UNL     1       7.769   7.286  18.147  0.00  0.00    +0.000 A 
ATOM      4  C   UNL     1       6.849   7.794  17.223  0.00  0.00    +0.000 A 
ATOM      5  C   UNL     1       6.058   6.925  16.460  0.00  0.00    +0.000 A 
ATOM      6  C   UNL     1       6.176   5.535  16.611  0.00  0.00    +0.000 A 
ATOM      7  C   UNL     1       7.088   5.036  17.552  0.00  0.00    +0.000 A 
ATOM      8  C   UNL     1       7.874   5.902  18.315  0.00  0.00    +0.000 A 
ENDBRANCH   1   6
BRANCH   1   9
ATOM      9  C   UNL     1       5.996   4.257  14.370  0.00  0.00    +0.000 A 
ATOM     10  C   UNL     1       5.321   3.480  13.414  0.00  0.00    +0.000 A 
ATOM     11  C   UNL     1       5.822   3.331  12.118  0.00  0.00    +0.000 A 
ATOM     12  C   UNL     1       7.003   3.964  11.749  0.00  0.00    +0.000 A 
ATOM     13  C   UNL     1       7.687   4.749  12.674  0.00  0.00    +0.000 A 
ATOM     14  C   UNL     1       7.188   4.897  13.969  0.00  0.00    +0.000 A 
ENDBRANCH   1   9
BRANCH   1  15
ATOM     15  N   UNL     1       5.186   3.348  16.512  0.00  0.00    +0.000 N 
ATOM     16  C   UNL     1       4.065   2.938  17.155  0.00  0.00    +0.000 C 
ATOM     17  O   UNL     1       4.164   1.909  17.831  0.00  0.00    +0.000 OA
ATOM     18  H   UNL     1       5.972   2.726  16.631  0.00  0.00    +0.000 HD
BRANCH  16  19
ATOM     19  C   UNL     1       2.757   3.778  17.099  0.00  0.00    +0.000 C 
ATOM     20  C   UNL     1       3.059   5.181  17.620  0.00  0.00    +0.000 C 
ATOM     21  O   UNL     1       3.473   5.110  18.997  0.00  0.00    +0.000 OA
ATOM     22  C   UNL     1       2.693   4.243  19.717  0.00  0.00    +0.000 A 
ATOM     23  C   UNL     1       2.937   4.148  21.082  0.00  0.00    +0.000 A 
ATOM     24  C   UNL     1       2.084   3.389  21.884  0.00  0.00    +0.000 A 
ATOM     25  C   UNL     1       0.971   2.759  21.321  0.00  0.00    +0.000 A 
ATOM     26  C   UNL     1       0.782   2.785  19.939  0.00  0.00    +0.000 A 
ATOM     27  C   UNL     1       1.691   3.464  19.135  0.00  0.00    +0.000 A 
ATOM     28  O   UNL     1       1.589   3.303  17.778  0.00  0.00    +0.000 OA
ENDBRANCH  16  19
ENDBRANCH   1  15
TORSDOF 4
ENDMDL
MODEL 3
REMARK VINA RESULT:      -9.4      2.909      6.773
REMARK  Name = 
REMARK  5 active torsions:
REMARK  status: ('A' for Active; 'I' for Inactive)
REMARK    1  A    between atoms: C_1  and  C_2
REMARK    2  A    between atoms: C_5  and  C_6
REMARK    3  A    between atoms: C_6  and  N_7
REMARK    4  A    between atoms: C_6  and  C_20
REMARK    5  A    between atoms: C_8  and  C_10
REMARK                            x       y       z     vdW  Elec       q    Type
REMARK                         _______ _______ _______ _____ _____    ______ ____
ROOT
ATOM      1  C   UNL     1       5.473   4.743  15.760  0.00  0.00    +0.000 C 
ENDROOT
BRANCH   1   6
ATOM      2  C   UNL     1       8.689   8.265  19.132  0.00  0.00    +0.000 C 
ATOM      3  C   UNL     1       7.917   7.336  18.244  0.00  0.00    +0.000 A 
ATOM      4  C   UNL     1       7.980   5.949  18.417  0.00  0.00    +0.000 A 
ATOM      5  C   UNL     1       7.220   5.098  17.604  0.00  0.00    +0.000 A 
ATOM      6  C   UNL     1       6.385   5.624  16.605  0.00  0.00    +0.000 A 
ATOM      7  C   UNL     1       6.343   7.015  16.428  0.00  0.00    +0.000 A 
ATOM      8  C   UNL     1       7.103   7.862  17.236  0.00  0.00    +0.000 A 
ENDBRANCH   1   6
BRANCH   1   9
ATOM      9  C   UNL     1       5.930   4.475  14.334  0.00  0.00    +0.000 A 
ATOM     10  C   UNL     1       7.158   4.946  13.842  0.00  0.00    +0.000 A 
ATOM     11  C   UNL     1       7.619   4.577  12.575  0.00  0.00    +0.000 A 
ATOM     12  C   UNL     1       6.865   3.722  11.780  0.00  0.00    +0.000 A 
ATOM     13  C   UNL     1       5.648   3.232  12.248  0.00  0.00    +0.000 A 
ATOM     14  C   UNL     1       5.187   3.601  13.513  0.00  0.00    +0.000 A 
ENDBRANCH   1   9
BRANCH   1  15
ATOM     15  N   UNL     1       5.231   3.519  16.496  0.00  0.00    +0.000 N 
ATOM     16  C   UNL     1       4.104   3.115  17.131  0.00  0.00    +0.000 C 
ATOM     17  O   UNL     1       4.182   2.063  17.774  0.00  0.00    +0.000 OA
ATOM     18  H   UNL     1       6.003   2.876  16.591  0.00  0.00    +0.000 HD
BRANCH  16  19
ATOM     19  C   UNL     1       2.816   3.987  17.109  0.00  0.00    +0.000 C 
ATOM     20  C   UNL     1       3.140   5.348  17.719  0.00  0.00    +0.000 C 
ATOM     21  O   UNL     1       3.532   5.184  19.094  0.00  0.00    +0.000 OA
ATOM     22  C   UNL     1       2.723   4.292  19.749  0.00  0.00    +0.000 A 
ATOM     23  C   UNL     1       2.943   4.109  21.109  0.00  0.00    +0.000 A 
ATOM     24  C   UNL     1       2.061   3.322  21.851  0.00  0.00    +0.000 A 
ATOM     25  C   UNL     1       0.944   2.753  21.235  0.00  0.00    +0.000 A 
ATOM     26  C   UNL     1       0.776   2.867  19.854  0.00  0.00    +0.000 A 
ATOM     27  C   UNL     1       1.713   3.574  19.106  0.00  0.00    +0.000 A 
ATOM     28  O   UNL     1       1.628   3.498  17.741  0.00  0.00    +0.000 OA
ENDBRANCH  16  19
ENDBRANCH   1  15
TORSDOF 4
ENDMDL
MODEL 4
REMARK VINA RESULT:      -9.0      2.275      3.470
REMARK  Name = 
REMARK  5 active torsions:
REMARK  status: ('A' for Active; 'I' for Inactive)
REMARK    1  A    between atoms: C_1  and  C_2
REMARK    2  A    between atoms: C_5  and  C_6
REMARK    3  A    between atoms: C_6  and  N_7
REMARK    4  A    between atoms: C_6  and  C_20
REMARK    5  A    between atoms: C_8  and  C_10
REMARK                            x       y       z     vdW  Elec       q    Type
REMARK                         _______ _______ _______ _____ _____    ______ ____
ROOT
ATOM      1  C   UNL     1       2.674   6.681  19.164  0.00  0.00    +0.000 C 
ENDROOT
BRANCH   1   6
ATOM      2  C   UNL     1      -0.297  11.466  20.709  0.00  0.00    +0.000 C 
ATOM      3  C   UNL     1       0.511  10.255  20.352  0.00  0.00    +0.000 A 
ATOM      4  C   UNL     1       0.801   9.271  21.303  0.00  0.00    +0.000 A 
ATOM      5  C   UNL     1       1.523   8.126  20.942  0.00  0.00    +0.000 A 
ATOM      6  C   UNL     1       1.966   7.950  19.622  0.00  0.00    +0.000 A 
ATOM      7  C   UNL     1       1.687   8.951  18.679  0.00  0.00    +0.000 A 
ATOM      8  C   UNL     1       0.970  10.093  19.041  0.00  0.00    +0.000 A 
ENDBRANCH   1   6
BRANCH   1   9
ATOM      9  C   UNL     1       1.891   5.385  19.307  0.00  0.00    +0.000 A 
ATOM     10  C   UNL     1       1.530   4.602  18.198  0.00  0.00    +0.000 A 
ATOM     11  C   UNL     1       0.928   3.351  18.359  0.00  0.00    +0.000 A 
ATOM     12  C   UNL     1       0.685   2.853  19.633  0.00  0.00    +0.000 A 
ATOM     13  C   UNL     1       1.043   3.603  20.751  0.00  0.00    +0.000 A 
ATOM     14  C   UNL     1       1.642   4.854  20.590  0.00  0.00    +0.000 A 
ENDBRANCH   1   9
BRANCH   1  15
ATOM     15  N   UNL     1       3.133   6.893  17.807  0.00  0.00    +0.000 N 
ATOM     16  C   UNL     1       4.382   6.749  17.297  0.00  0.00    +0.000 C 
ATOM     17  O   UNL     1       4.537   7.088  16.120  0.00  0.00    +0.000 OA
ATOM     18  H   UNL     1       2.457   7.227  17.135  0.00  0.00    +0.000 HD
BRANCH  16  19
ATOM     19  C   UNL     1       5.559   6.261  18.189  0.00  0.00    +0.000 C 
ATOM     20  C   UNL     1       6.610   5.610  17.293  0.00  0.00    +0.000 C 
ATOM     21  O   UNL     1       6.047   4.456  16.643  0.00  0.00    +0.000 OA
ATOM     22  C   UNL     1       5.294   3.704  17.507  0.00  0.00    +0.000 A 
ATOM     23  C   UNL     1       4.764   2.514  17.023  0.00  0.00    +0.000 A 
ATOM     24  C   UNL     1       4.109   1.644  17.896  0.00  0.00    +0.000 A 
ATOM     25  C   UNL     1       4.021   1.954  19.255  0.00  0.00    +0.000 A 
ATOM     26  C   UNL     1       4.476   3.189  19.719  0.00  0.00    +0.000 A 
ATOM     27  C   UNL     1       5.041   4.091  18.824  0.00  0.00    +0.000 A 
ATOM     28  O   UNL     1       5.292   5.362  19.271  0.00  0.00    +0.000 OA
ENDBRANCH  16  19
ENDBRANCH   1  15
TORSDOF 4
ENDMDL
MODEL 5
REMARK VINA RESULT:      -8.9      2.576      7.226
REMARK  Name = 
REMARK  5 active torsions:
REMARK  status: ('A' for Active; 'I' for Inactive)
REMARK    1  A    between atoms: C_1  and  C_2
REMARK    2  A    between atoms: C_5  and  C_6
REMARK    3  A    between atoms: C_6  and  N_7
REMARK    4  A    between atoms: C_6  and  C_20
REMARK    5  A    between atoms: C_8  and  C_10
REMARK                            x       y       z     vdW  Elec       q    Type
REMARK                         _______ _______ _______ _____ _____    ______ ____
ROOT
ATOM      1  C   UNL     1       5.977   5.782  17.128  0.00  0.00    +0.000 C 
ENDROOT
BRANCH   1   6
ATOM      2  C   UNL     1       6.665   3.541  11.779  0.00  0.00    +0.000 C 
ATOM      3  C   UNL     1       6.537   4.081  13.171  0.00  0.00    +0.000 A 
ATOM      4  C   UNL     1       7.561   4.836  13.752  0.00  0.00    +0.000 A 
ATOM      5  C   UNL     1       7.407   5.368  15.040  0.00  0.00    +0.000 A 
ATOM      6  C   UNL     1       6.224   5.149  15.764  0.00  0.00    +0.000 A 
ATOM      7  C   UNL     1       5.211   4.375  15.180  0.00  0.00    +0.000 A 
ATOM      8  C   UNL     1       5.367   3.843  13.898  0.00  0.00    +0.000 A 
ENDBRANCH   1   6
BRANCH   1   9
ATOM      9  C   UNL     1       6.983   6.833  17.574  0.00  0.00    +0.000 A 
ATOM     10  C   UNL     1       6.973   8.141  17.063  0.00  0.00    +0.000 A 
ATOM     11  C   UNL     1       7.817   9.127  17.582  0.00  0.00    +0.000 A 
ATOM     12  C   UNL     1       8.681   8.826  18.628  0.00  0.00    +0.000 A 
ATOM     13  C   UNL     1       8.704   7.538  19.160  0.00  0.00    +0.000 A 
ATOM     14  C   UNL     1       7.861   6.554  18.641  0.00  0.00    +0.000 A 
ENDBRANCH   1   9
BRANCH   1  15
ATOM     15  N   UNL     1       4.619   6.285  17.144  0.00  0.00    +0.000 N 
ATOM     16  C   UNL     1       3.695   6.211  18.134  0.00  0.00    +0.000 C 
ATOM     17  O   UNL     1       2.566   6.635  17.865  0.00  0.00    +0.000 OA
ATOM     18  H   UNL     1       4.278   6.727  16.303  0.00  0.00    +0.000 HD
BRANCH  16  19
ATOM     19  C   UNL     1       4.034   5.546  19.498  0.00  0.00    +0.000 C 
ATOM     20  C   UNL     1       4.867   4.294  19.235  0.00  0.00    +0.000 C 
ATOM     21  O   UNL     1       4.098   3.349  18.469  0.00  0.00    +0.000 OA
ATOM     22  C   UNL     1       2.809   3.256  18.928  0.00  0.00    +0.000 A 
ATOM     23  C   UNL     1       1.984   2.312  18.327  0.00  0.00    +0.000 A 
ATOM     24  C   UNL     1       0.710   2.078  18.846  0.00  0.00    +0.000 A 
ATOM     25  C   UNL     1       0.284   2.762  19.986  0.00  0.00    +0.000 A 
ATOM     26  C   UNL     1       1.080   3.770  20.533  0.00  0.00    +0.000 A 
ATOM     27  C   UNL     1       2.309   4.064  19.951  0.00  0.00    +0.000 A 
ATOM     28  O   UNL     1       2.970   5.182  20.385  0.00  0.00    +0.000 OA
ENDBRANCH  16  19
ENDBRANCH   1  15
TORSDOF 4
ENDMDL
MODEL 6
REMARK VINA RESULT:      -8.9      0.872      1.296
REMARK  Name = 
REMARK  5 active torsions:
REMARK  status: ('A' for Active; 'I' for Inactive)
REMARK    1  A    between atoms: C_1  and  C_2
REMARK    2  A    between atoms: C_5  and  C_6
REMARK    3  A    between atoms: C_6  and  N_7
REMARK    4  A    between atoms: C_6  and  C_20
REMARK    5  A    between atoms: C_8  and  C_10
REMARK                            x       y       z     vdW  Elec       q    Type
REMARK                         _______ _______ _______ _____ _____    ______ ____
ROOT
ATOM      1  C   UNL     1       3.172   6.620  18.954  0.00  0.00    +0.000 C 
ENDROOT
BRANCH   1   6
ATOM      2  C   UNL     1      -0.688  10.597  20.799  0.00  0.00    +0.000 C 
ATOM      3  C   UNL     1       0.343   9.596  20.369  0.00  0.00    +0.000 A 
ATOM      4  C   UNL     1       0.767   8.578  21.229  0.00  0.00    +0.000 A 
ATOM      5  C   UNL     1       1.701   7.627  20.797  0.00  0.00    +0.000 A 
ATOM      6  C   UNL     1       2.225   7.684  19.496  0.00  0.00    +0.000 A 
ATOM      7  C   UNL     1       1.807   8.719  18.647  0.00  0.00    +0.000 A 
ATOM      8  C   UNL     1       0.879   9.668  19.080  0.00  0.00    +0.000 A 
ENDBRANCH   1   6
BRANCH   1   9
ATOM      9  C   UNL     1       2.615   5.208  18.860  0.00  0.00    +0.000 A 
ATOM     10  C   UNL     1       2.739   4.284  19.911  0.00  0.00    +0.000 A 
ATOM     11  C   UNL     1       2.106   3.039  19.859  0.00  0.00    +0.000 A 
ATOM     12  C   UNL     1       1.328   2.697  18.759  0.00  0.00    +0.000 A 
ATOM     13  C   UNL     1       1.180   3.598  17.707  0.00  0.00    +0.000 A 
ATOM     14  C   UNL     1       1.813   4.841  17.759  0.00  0.00    +0.000 A 
ENDBRANCH   1   9
BRANCH   1  15
ATOM     15  N   UNL     1       3.687   7.089  17.684  0.00  0.00    +0.000 N 
ATOM     16  C   UNL     1       4.693   6.580  16.932  0.00  0.00    +0.000 C 
ATOM     17  O   UNL     1       5.009   7.224  15.927  0.00  0.00    +0.000 OA
ATOM     18  H   UNL     1       3.278   7.929  17.300  0.00  0.00    +0.000 HD
BRANCH  16  19
ATOM     19  C   UNL     1       5.453   5.297  17.375  0.00  0.00    +0.000 C 
ATOM     20  C   UNL     1       6.945   5.615  17.443  0.00  0.00    +0.000 C 
ATOM     21  O   UNL     1       7.426   5.978  16.135  0.00  0.00    +0.000 OA
ATOM     22  C   UNL     1       6.925   5.150  15.164  0.00  0.00    +0.000 A 
ATOM     23  C   UNL     1       7.380   5.342  13.865  0.00  0.00    +0.000 A 
ATOM     24  C   UNL     1       7.012   4.441  12.864  0.00  0.00    +0.000 A 
ATOM     25  C   UNL     1       6.220   3.334  13.177  0.00  0.00    +0.000 A 
ATOM     26  C   UNL     1       5.693   3.195  14.463  0.00  0.00    +0.000 A 
ATOM     27  C   UNL     1       5.988   4.150  15.430  0.00  0.00    +0.000 A 
ATOM     28  O   UNL     1       5.299   4.094  16.614  0.00  0.00    +0.000 OA
ENDBRANCH  16  19
ENDBRANCH   1  15
TORSDOF 4
ENDMDL
MODEL 7
REMARK VINA RESULT:      -8.8      2.211      3.242
REMARK  Name = 
REMARK  5 active torsions:
REMARK  status: ('A' for Active; 'I' for Inactive)
REMARK    1  A    between atoms: C_1  and  C_2
REMARK    2  A    between atoms: C_5  and  C_6
REMARK    3  A    between atoms: C_6  and  N_7
REMARK    4  A    between atoms: C_6  and  C_20
REMARK    5  A    between atoms: C_8  and  C_10
REMARK                            x       y       z     vdW  Elec       q    Type
REMARK                         _______ _______ _______ _____ _____    ______ ____
ROOT
ATOM      1  C   UNL     1       2.831   6.795  18.913  0.00  0.00    +0.000 C 
ENDROOT
BRANCH   1   6
ATOM      2  C   UNL     1      -0.026  11.679  20.361  0.00  0.00    +0.000 C 
ATOM      3  C   UNL     1       0.660  10.411  19.951  0.00  0.00    +0.000 A 
ATOM      4  C   UNL     1       1.079  10.208  18.632  0.00  0.00    +0.000 A 
ATOM      5  C   UNL     1       1.755   9.034  18.275  0.00  0.00    +0.000 A 
ATOM      6  C   UNL     1       2.020   8.044  19.235  0.00  0.00    +0.000 A 
ATOM      7  C   UNL     1       1.579   8.249  20.551  0.00  0.00    +0.000 A 
ATOM      8  C   UNL     1       0.903   9.418  20.905  0.00  0.00    +0.000 A 
ENDBRANCH   1   6
BRANCH   1   9
ATOM      9  C   UNL     1       2.139   5.463  19.159  0.00  0.00    +0.000 A 
ATOM     10  C   UNL     1       1.793   5.027  20.449  0.00  0.00    +0.000 A 
ATOM     11  C   UNL     1       1.041   3.865  20.643  0.00  0.00    +0.000 A 
ATOM     12  C   UNL     1       0.611   3.121  19.550  0.00  0.00    +0.000 A 
ATOM     13  C   UNL     1       0.932   3.537  18.260  0.00  0.00    +0.000 A 
ATOM     14  C   UNL     1       1.684   4.696  18.066  0.00  0.00    +0.000 A 
ENDBRANCH   1   9
BRANCH   1  15
ATOM     15  N   UNL     1       3.314   6.916  17.553  0.00  0.00    +0.000 N 
ATOM     16  C   UNL     1       4.562   6.702  17.070  0.00  0.00    +0.000 C 
ATOM     17  O   UNL     1       4.744   6.970  15.878  0.00  0.00    +0.000 OA
ATOM     18  H   UNL     1       2.658   7.235  16.856  0.00  0.00    +0.000 HD
BRANCH  16  19
ATOM     19  C   UNL     1       5.711   6.224  18.004  0.00  0.00    +0.000 C 
ATOM     20  C   UNL     1       6.749   5.489  17.159  0.00  0.00    +0.000 C 
ATOM     21  O   UNL     1       6.155   4.321  16.565  0.00  0.00    +0.000 OA
ATOM     22  C   UNL     1       5.366   3.644  17.457  0.00  0.00    +0.000 A 
ATOM     23  C   UNL     1       4.801   2.447  17.031  0.00  0.00    +0.000 A 
ATOM     24  C   UNL     1       4.106   1.649  17.941  0.00  0.00    +0.000 A 
ATOM     25  C   UNL     1       4.011   2.036  19.280  0.00  0.00    +0.000 A 
ATOM     26  C   UNL     1       4.503   3.278  19.683  0.00  0.00    +0.000 A 
ATOM     27  C   UNL     1       5.111   4.111  18.748  0.00  0.00    +0.000 A 
ATOM     28  O   UNL     1       5.400   5.394  19.129  0.00  0.00    +0.000 OA
ENDBRANCH  16  19
ENDBRANCH   1  15
TORSDOF 4
ENDMDL
MODEL 8
REMARK VINA RESULT:      -8.7      1.331      2.001
REMARK  Name = 
REMARK  5 active torsions:
REMARK  status: ('A' for Active; 'I' for Inactive)
REMARK    1  A    between atoms: C_1  and  C_2
REMARK    2  A    between atoms: C_5  and  C_6
REMARK    3  A    between atoms: C_6  and  N_7
REMARK    4  A    between atoms: C_6  and  C_20
REMARK    5  A    between atoms: C_8  and  C_10
REMARK                            x       y       z     vdW  Elec       q    Type
REMARK                         _______ _______ _______ _____ _____    ______ ____
ROOT
ATOM      1  C   UNL     1       2.667   6.802  19.367  0.00  0.00    +0.000 C 
ENDROOT
BRANCH   1   6
ATOM      2  C   UNL     1      -0.723  11.093  21.419  0.00  0.00    +0.000 C 
ATOM      3  C   UNL     1       0.191  10.009  20.933  0.00  0.00    +0.000 A 
ATOM      4  C   UNL     1       0.587   8.964  21.775  0.00  0.00    +0.000 A 
ATOM      5  C   UNL     1       1.409   7.937  21.292  0.00  0.00    +0.000 A 
ATOM      6  C   UNL     1       1.849   7.943  19.959  0.00  0.00    +0.000 A 
ATOM      7  C   UNL     1       1.462   9.005  19.128  0.00  0.00    +0.000 A 
ATOM      8  C   UNL     1       0.645  10.030  19.611  0.00  0.00    +0.000 A 
ENDBRANCH   1   6
BRANCH   1   9
ATOM      9  C   UNL     1       1.979   5.448  19.294  0.00  0.00    +0.000 A 
ATOM     10  C   UNL     1       1.771   4.780  18.076  0.00  0.00    +0.000 A 
ATOM     11  C   UNL     1       1.259   3.480  18.042  0.00  0.00    +0.000 A 
ATOM     12  C   UNL     1       0.953   2.819  19.225  0.00  0.00    +0.000 A 
ATOM     13  C   UNL     1       1.160   3.454  20.448  0.00  0.00    +0.000 A 
ATOM     14  C   UNL     1       1.670   4.753  20.482  0.00  0.00    +0.000 A 
ENDBRANCH   1   9
BRANCH   1  15
ATOM     15  N   UNL     1       3.162   7.234  18.076  0.00  0.00    +0.000 N 
ATOM     16  C   UNL     1       4.272   6.830  17.411  0.00  0.00    +0.000 C 
ATOM     17  O   UNL     1       4.529   7.424  16.359  0.00  0.00    +0.000 OA
ATOM     18  H   UNL     1       2.645   7.958  17.600  0.00  0.00    +0.000 HD
BRANCH  16  19
ATOM     19  C   UNL     1       5.203   5.732  17.999  0.00  0.00    +0.000 C 
ATOM     20  C   UNL     1       6.639   6.252  17.982  0.00  0.00    +0.000 C 
ATOM     21  O   UNL     1       7.053   6.494  16.625  0.00  0.00    +0.000 OA
ATOM     22  C   UNL     1       6.659   5.483  15.787  0.00  0.00    +0.000 A 
ATOM     23  C   UNL     1       7.072   5.554  14.462  0.00  0.00    +0.000 A 
ATOM     24  C   UNL     1       6.819   4.484  13.602  0.00  0.00    +0.000 A 
ATOM     25  C   UNL     1       6.188   3.335  14.083  0.00  0.00    +0.000 A 
ATOM     26  C   UNL     1       5.698   3.304  15.389  0.00  0.00    +0.000 A 
ATOM     27  C   UNL     1       5.869   4.412  16.212  0.00  0.00    +0.000 A 
ATOM     28  O   UNL     1       5.207   4.427  17.411  0.00  0.00    +0.000 OA
ENDBRANCH  16  19
ENDBRANCH   1  15
TORSDOF 4
ENDMDL
MODEL 9
REMARK VINA RESULT:      -8.6      3.674      7.367
REMARK  Name = 
REMARK  5 active torsions:
REMARK  status: ('A' for Active; 'I' for Inactive)
REMARK    1  A    between atoms: C_1  and  C_2
REMARK    2  A    between atoms: C_5  and  C_6
REMARK    3  A    between atoms: C_6  and  N_7
REMARK    4  A    between atoms: C_6  and  C_20
REMARK    5  A    between atoms: C_8  and  C_10
REMARK                            x       y       z     vdW  Elec       q    Type
REMARK                         _______ _______ _______ _____ _____    ______ ____
ROOT
ATOM      1  C   UNL     1       2.213   6.197  18.759  0.00  0.00    +0.000 C 
ENDROOT
BRANCH   1   6
ATOM      2  C   UNL     1       7.951   6.098  17.674  0.00  0.00    +0.000 C 
ATOM      3  C   UNL     1       6.482   6.185  17.961  0.00  0.00    +0.000 A 
ATOM      4  C   UNL     1       5.623   6.909  17.128  0.00  0.00    +0.000 A 
ATOM      5  C   UNL     1       4.247   6.946  17.389  0.00  0.00    +0.000 A 
ATOM      6  C   UNL     1       3.711   6.260  18.490  0.00  0.00    +0.000 A 
ATOM      7  C   UNL     1       4.583   5.552  19.330  0.00  0.00    +0.000 A 
ATOM      8  C   UNL     1       5.955   5.518  19.071  0.00  0.00    +0.000 A 
ENDBRANCH   1   6
BRANCH   1   9
ATOM      9  C   UNL     1       1.651   4.831  19.123  0.00  0.00    +0.000 A 
ATOM     10  C   UNL     1       1.473   3.817  18.167  0.00  0.00    +0.000 A 
ATOM     11  C   UNL     1       1.082   2.529  18.543  0.00  0.00    +0.000 A 
ATOM     12  C   UNL     1       0.871   2.227  19.883  0.00  0.00    +0.000 A 
ATOM     13  C   UNL     1       1.051   3.211  20.852  0.00  0.00    +0.000 A 
ATOM     14  C   UNL     1       1.440   4.498  20.477  0.00  0.00    +0.000 A 
ENDBRANCH   1   9
BRANCH   1  15
ATOM     15  N   UNL     1       1.898   7.200  19.756  0.00  0.00    +0.000 N 
ATOM     16  C   UNL     1       1.583   8.507  19.580  0.00  0.00    +0.000 C 
ATOM     17  O   UNL     1       1.451   9.183  20.605  0.00  0.00    +0.000 OA
ATOM     18  H   UNL     1       1.946   6.921  20.725  0.00  0.00    +0.000 HD
BRANCH  16  19
ATOM     19  C   UNL     1       1.481   9.121  18.155  0.00  0.00    +0.000 C 
ATOM     20  C   UNL     1       2.098  10.517  18.182  0.00  0.00    +0.000 C 
ATOM     21  O   UNL     1       1.352  11.362  19.076  0.00  0.00    +0.000 OA
ATOM     22  C   UNL     1       0.000  11.192  18.924  0.00  0.00    +0.000 A 
ATOM     23  C   UNL     1      -0.835  12.015  19.672  0.00  0.00    +0.000 A 
ATOM     24  C   UNL     1      -2.213  11.981  19.453  0.00  0.00    +0.000 A 
ATOM     25  C   UNL     1      -2.743  11.151  18.463  0.00  0.00    +0.000 A 
ATOM     26  C   UNL     1      -1.911  10.265  17.777  0.00  0.00    +0.000 A 
ATOM     27  C   UNL     1      -0.551  10.236  18.069  0.00  0.00    +0.000 A 
ATOM     28  O   UNL     1       0.197   9.225  17.528  0.00  0.00    +0.000 OA
ENDBRANCH  16  19
ENDBRANCH   1  15
TORSDOF 4
ENDMDL
