MODEL 1
REMARK VINA RESULT:      -8.7      0.000      0.000
REMARK  Name = 
REMARK  4 active torsions:
REMARK  status: ('A' for Active; 'I' for Inactive)
REMARK    1  A    between atoms: C_1  and  C_2
REMARK    2  A    between atoms: C_4  and  N_5
REMARK    3  A    between atoms: N_5  and  C_6
REMARK    4  A    between atoms: C_10  and  C_11
REMARK                            x       y       z     vdW  Elec       q    Type
REMARK                         _______ _______ _______ _____ _____    ______ ____
ROOT
ATOM      1  N   UNL     1       5.233   3.615  18.666  0.00  0.00    +0.000 N 
ATOM      2  H   UNL     1       5.953   3.524  19.384  0.00  0.00    +0.000 HD
ENDROOT
BRANCH   1   6
ATOM      3  C   UNL     1       5.605   3.976  13.723  0.00  0.00    +0.000 C 
ATOM      4  C   UNL     1       5.961   4.495  15.095  0.00  0.00    +0.000 A 
ATOM      5  C   UNL     1       5.411   3.735  16.255  0.00  0.00    +0.000 A 
ATOM      6  C   UNL     1       5.682   4.202  17.486  0.00  0.00    +0.000 A 
ATOM      7  N   UNL     1       6.485   5.365  17.578  0.00  0.00    +0.000 N 
ATOM      8  N   UNL     1       6.902   6.036  18.692  0.00  0.00    +0.000 NA
ATOM      9  C   UNL     1       7.639   7.012  18.159  0.00  0.00    +0.000 A 
ATOM     10  N   UNL     1       7.712   7.038  16.803  0.00  0.00    +0.000 NA
ATOM     11  C   UNL     1       6.983   6.005  16.435  0.00  0.00    +0.000 A 
ATOM     12  N   UNL     1       6.702   5.558  15.175  0.00  0.00    +0.000 NA
ENDBRANCH   1   6
BRANCH   1  13
ATOM     13  C   UNL     1       3.870   3.238  19.013  0.00  0.00    +0.000 C 
ATOM     14  C   UNL     1       3.600   1.777  18.657  0.00  0.00    +0.000 C 
ATOM     15  C   UNL     1       2.108   1.689  18.340  0.00  0.00    +0.000 C 
ATOM     16  C   UNL     1       1.582   3.121  18.274  0.00  0.00    +0.000 C 
ATOM     17  C   UNL     1       2.824   4.017  18.196  0.00  0.00    +0.000 C 
BRANCH  17  18
ATOM     18  C   UNL     1       2.596   5.430  18.694  0.00  0.00    +0.000 A 
ATOM     19  C   UNL     1       2.780   6.552  17.868  0.00  0.00    +0.000 A 
ATOM     20  C   UNL     1       2.515   7.841  18.340  0.00  0.00    +0.000 A 
ATOM     21  C   UNL     1       2.064   8.026  19.644  0.00  0.00    +0.000 A 
ATOM     22  C   UNL     1       1.886   6.925  20.478  0.00  0.00    +0.000 A 
ATOM     23  C   UNL     1       2.150   5.638  20.007  0.00  0.00    +0.000 A 
ENDBRANCH  17  18
ENDBRANCH   1  13
TORSDOF 3
ENDMDL
MODEL 2
REMARK VINA RESULT:      -8.6      0.969      2.407
REMARK  Name = 
REMARK  4 active torsions:
REMARK  status: ('A' for Active; 'I' for Inactive)
REMARK    1  A    between atoms: C_1  and  C_2
REMARK    2  A    between atoms: C_4  and  N_5
REMARK    3  A    between atoms: N_5  and  C_6
REMARK    4  A    between atoms: C_10  and  C_11
REMARK                            x       y       z     vdW  Elec       q    Type
REMARK                         _______ _______ _______ _____ _____    ______ ____
ROOT
ATOM      1  N   UNL     1       5.477   3.790  18.860  0.00  0.00    +0.000 N 
ATOM      2  H   UNL     1       6.063   3.337  19.564  0.00  0.00    +0.000 HD
ENDROOT
BRANCH   1   6
ATOM      3  C   UNL     1       8.022   8.008  18.208  0.00  0.00    +0.000 C 
ATOM      4  C   UNL     1       7.383   6.772  17.624  0.00  0.00    +0.000 A 
ATOM      5  C   UNL     1       6.688   5.866  18.585  0.00  0.00    +0.000 A 
ATOM      6  C   UNL     1       6.146   4.740  18.093  0.00  0.00    +0.000 A 
ATOM      7  N   UNL     1       6.261   4.517  16.699  0.00  0.00    +0.000 N 
ATOM      8  N   UNL     1       5.804   3.466  15.956  0.00  0.00    +0.000 NA
ATOM      9  C   UNL     1       6.180   3.823  14.726  0.00  0.00    +0.000 A 
ATOM     10  N   UNL     1       6.854   4.998  14.621  0.00  0.00    +0.000 NA
ATOM     11  C   UNL     1       6.910   5.434  15.861  0.00  0.00    +0.000 A 
ATOM     12  N   UNL     1       7.486   6.575  16.344  0.00  0.00    +0.000 NA
ENDBRANCH   1   6
BRANCH   1  13
ATOM     13  C   UNL     1       4.057   3.469  18.845  0.00  0.00    +0.000 C 
ATOM     14  C   UNL     1       3.827   2.024  18.404  0.00  0.00    +0.000 C 
ATOM     15  C   UNL     1       2.463   2.004  17.718  0.00  0.00    +0.000 C 
ATOM     16  C   UNL     1       2.027   3.458  17.550  0.00  0.00    +0.000 C 
ATOM     17  C   UNL     1       3.282   4.300  17.806  0.00  0.00    +0.000 C 
BRANCH  17  18
ATOM     18  C   UNL     1       2.993   5.717  18.258  0.00  0.00    +0.000 A 
ATOM     19  C   UNL     1       3.236   6.829  17.434  0.00  0.00    +0.000 A 
ATOM     20  C   UNL     1       2.912   8.121  17.859  0.00  0.00    +0.000 A 
ATOM     21  C   UNL     1       2.343   8.319  19.114  0.00  0.00    +0.000 A 
ATOM     22  C   UNL     1       2.105   7.228  19.946  0.00  0.00    +0.000 A 
ATOM     23  C   UNL     1       2.427   5.938  19.522  0.00  0.00    +0.000 A 
ENDBRANCH  17  18
ENDBRANCH   1  13
TORSDOF 3
ENDMDL
MODEL 3
REMARK VINA RESULT:      -8.6      1.284      2.596
REMARK  Name = 
REMARK  4 active torsions:
REMARK  status: ('A' for Active; 'I' for Inactive)
REMARK    1  A    between atoms: C_1  and  C_2
REMARK    2  A    between atoms: C_4  and  N_5
REMARK    3  A    between atoms: N_5  and  C_6
REMARK    4  A    between atoms: C_10  and  C_11
REMARK                            x       y       z     vdW  Elec       q    Type
REMARK                         _______ _______ _______ _____ _____    ______ ____
ROOT
ATOM      1  N   UNL     1       4.821   3.780  18.238  0.00  0.00    +0.000 N 
ATOM      2  H   UNL     1       4.637   2.965  17.650  0.00  0.00    +0.000 HD
ENDROOT
BRANCH   1   6
ATOM      3  C   UNL     1       8.069   7.531  18.516  0.00  0.00    +0.000 C 
ATOM      4  C   UNL     1       7.374   6.471  17.696  0.00  0.00    +0.000 A 
ATOM      5  C   UNL     1       6.371   5.630  18.412  0.00  0.00    +0.000 A 
ATOM      6  C   UNL     1       5.768   4.654  17.712  0.00  0.00    +0.000 A 
ATOM      7  N   UNL     1       6.121   4.519  16.347  0.00  0.00    +0.000 N 
ATOM      8  N   UNL     1       5.663   3.622  15.425  0.00  0.00    +0.000 NA
ATOM      9  C   UNL     1       6.326   3.999  14.330  0.00  0.00    +0.000 A 
ATOM     10  N   UNL     1       7.182   5.044  14.476  0.00  0.00    +0.000 NA
ATOM     11  C   UNL     1       7.058   5.370  15.744  0.00  0.00    +0.000 A 
ATOM     12  N   UNL     1       7.697   6.355  16.444  0.00  0.00    +0.000 NA
ENDBRANCH   1   6
BRANCH   1  13
ATOM     13  C   UNL     1       4.177   3.840  19.542  0.00  0.00    +0.000 C 
ATOM     14  C   UNL     1       4.137   2.460  20.197  0.00  0.00    +0.000 C 
ATOM     15  C   UNL     1       2.891   2.448  21.081  0.00  0.00    +0.000 C 
ATOM     16  C   UNL     1       2.097   3.709  20.748  0.00  0.00    +0.000 C 
ATOM     17  C   UNL     1       2.695   4.244  19.442  0.00  0.00    +0.000 C 
BRANCH  17  18
ATOM     18  C   UNL     1       2.486   5.730  19.231  0.00  0.00    +0.000 A 
ATOM     19  C   UNL     1       2.654   6.339  17.975  0.00  0.00    +0.000 A 
ATOM     20  C   UNL     1       2.406   7.703  17.801  0.00  0.00    +0.000 A 
ATOM     21  C   UNL     1       1.989   8.479  18.879  0.00  0.00    +0.000 A 
ATOM     22  C   UNL     1       1.827   7.893  20.131  0.00  0.00    +0.000 A 
ATOM     23  C   UNL     1       2.073   6.530  20.306  0.00  0.00    +0.000 A 
ENDBRANCH  17  18
ENDBRANCH   1  13
TORSDOF 3
ENDMDL
MODEL 4
REMARK VINA RESULT:      -8.6      0.072      1.030
REMARK  Name = 
REMARK  4 active torsions:
REMARK  status: ('A' for Active; 'I' for Inactive)
REMARK    1  A    between atoms: C_1  and  C_2
REMARK    2  A    between atoms: C_4  and  N_5
REMARK    3  A    between atoms: N_5  and  C_6
REMARK    4  A    between atoms: C_10  and  C_11
REMARK                            x       y       z     vdW  Elec       q    Type
REMARK                         _______ _______ _______ _____ _____    ______ ____
ROOT
ATOM      1  N   UNL     1       5.248   3.667  18.717  0.00  0.00    +0.000 N 
ATOM      2  H   UNL     1       5.948   3.643  19.461  0.00  0.00    +0.000 HD
ENDROOT
BRANCH   1   6
ATOM      3  C   UNL     1       5.639   3.963  13.772  0.00  0.00    +0.000 C 
ATOM      4  C   UNL     1       5.991   4.499  15.138  0.00  0.00    +0.000 A 
ATOM      5  C   UNL     1       5.435   3.756  16.306  0.00  0.00    +0.000 A 
ATOM      6  C   UNL     1       5.703   4.238  17.531  0.00  0.00    +0.000 A 
ATOM      7  N   UNL     1       6.509   5.400  17.612  0.00  0.00    +0.000 N 
ATOM      8  N   UNL     1       6.923   6.084  18.718  0.00  0.00    +0.000 NA
ATOM      9  C   UNL     1       7.665   7.051  18.175  0.00  0.00    +0.000 A 
ATOM     10  N   UNL     1       7.743   7.059  16.819  0.00  0.00    +0.000 NA
ATOM     11  C   UNL     1       7.013   6.024  16.462  0.00  0.00    +0.000 A 
ATOM     12  N   UNL     1       6.735   5.561  15.206  0.00  0.00    +0.000 NA
ENDBRANCH   1   6
BRANCH   1  13
ATOM     13  C   UNL     1       3.898   3.226  19.035  0.00  0.00    +0.000 C 
ATOM     14  C   UNL     1       3.699   1.759  18.656  0.00  0.00    +0.000 C 
ATOM     15  C   UNL     1       2.219   1.609  18.310  0.00  0.00    +0.000 C 
ATOM     16  C   UNL     1       1.630   3.017  18.252  0.00  0.00    +0.000 C 
ATOM     17  C   UNL     1       2.832   3.968  18.208  0.00  0.00    +0.000 C 
BRANCH  17  18
ATOM     18  C   UNL     1       2.533   5.363  18.719  0.00  0.00    +0.000 A 
ATOM     19  C   UNL     1       2.079   5.599  20.029  0.00  0.00    +0.000 A 
ATOM     20  C   UNL     1       1.860   6.900  20.488  0.00  0.00    +0.000 A 
ATOM     21  C   UNL     1       2.087   7.984  19.644  0.00  0.00    +0.000 A 
ATOM     22  C   UNL     1       2.527   7.767  18.341  0.00  0.00    +0.000 A 
ATOM     23  C   UNL     1       2.748   6.467  17.883  0.00  0.00    +0.000 A 
ENDBRANCH  17  18
ENDBRANCH   1  13
TORSDOF 3
ENDMDL
MODEL 5
REMARK VINA RESULT:      -8.5      1.115      2.440
REMARK  Name = 
REMARK  4 active torsions:
REMARK  status: ('A' for Active; 'I' for Inactive)
REMARK    1  A    between atoms: C_1  and  C_2
REMARK    2  A    between atoms: C_4  and  N_5
REMARK    3  A    between atoms: N_5  and  C_6
REMARK    4  A    between atoms: C_10  and  C_11
REMARK                            x       y       z     vdW  Elec       q    Type
REMARK                         _______ _______ _______ _____ _____    ______ ____
ROOT
ATOM      1  N   UNL     1       4.113   3.466  17.342  0.00  0.00    +0.000 N 
ATOM      2  H   UNL     1       3.870   3.016  16.457  0.00  0.00    +0.000 HD
ENDROOT
BRANCH   1   6
ATOM      3  C   UNL     1       7.911   5.918  19.405  0.00  0.00    +0.000 C 
ATOM      4  C   UNL     1       7.214   5.404  18.170  0.00  0.00    +0.000 A 
ATOM      5  C   UNL     1       5.928   4.677  18.387  0.00  0.00    +0.000 A 
ATOM      6  C   UNL     1       5.309   4.176  17.304  0.00  0.00    +0.000 A 
ATOM      7  N   UNL     1       5.919   4.399  16.045  0.00  0.00    +0.000 N 
ATOM      8  N   UNL     1       5.503   4.002  14.806  0.00  0.00    +0.000 NA
ATOM      9  C   UNL     1       6.452   4.520  14.025  0.00  0.00    +0.000 A 
ATOM     10  N   UNL     1       7.449   5.194  14.656  0.00  0.00    +0.000 NA
ATOM     11  C   UNL     1       7.118   5.116  15.927  0.00  0.00    +0.000 A 
ATOM     12  N   UNL     1       7.773   5.615  17.017  0.00  0.00    +0.000 NA
ENDBRANCH   1   6
BRANCH   1  13
ATOM     13  C   UNL     1       3.263   3.207  18.495  0.00  0.00    +0.000 C 
ATOM     14  C   UNL     1       2.850   1.737  18.552  0.00  0.00    +0.000 C 
ATOM     15  C   UNL     1       1.484   1.708  19.233  0.00  0.00    +0.000 C 
ATOM     16  C   UNL     1       1.010   3.156  19.342  0.00  0.00    +0.000 C 
ATOM     17  C   UNL     1       1.925   3.964  18.414  0.00  0.00    +0.000 C 
BRANCH  17  18
ATOM     18  C   UNL     1       2.035   5.430  18.781  0.00  0.00    +0.000 A 
ATOM     19  C   UNL     1       2.301   6.423  17.822  0.00  0.00    +0.000 A 
ATOM     20  C   UNL     1       2.347   7.772  18.181  0.00  0.00    +0.000 A 
ATOM     21  C   UNL     1       2.132   8.149  19.504  0.00  0.00    +0.000 A 
ATOM     22  C   UNL     1       1.878   7.177  20.467  0.00  0.00    +0.000 A 
ATOM     23  C   UNL     1       1.830   5.829  20.109  0.00  0.00    +0.000 A 
ENDBRANCH  17  18
ENDBRANCH   1  13
TORSDOF 3
ENDMDL
MODEL 6
REMARK VINA RESULT:      -8.5      1.248      3.603
REMARK  Name = 
REMARK  4 active torsions:
REMARK  status: ('A' for Active; 'I' for Inactive)
REMARK    1  A    between atoms: C_1  and  C_2
REMARK    2  A    between atoms: C_4  and  N_5
REMARK    3  A    between atoms: N_5  and  C_6
REMARK    4  A    between atoms: C_10  and  C_11
REMARK                            x       y       z     vdW  Elec       q    Type
REMARK                         _______ _______ _______ _____ _____    ______ ____
ROOT
ATOM      1  N   UNL     1       4.576   7.103  17.076  0.00  0.00    +0.000 N 
ATOM      2  H   UNL     1       4.969   8.037  16.945  0.00  0.00    +0.000 HD
ENDROOT
BRANCH   1   6
ATOM      3  C   UNL     1       5.851   3.854  13.538  0.00  0.00    +0.000 C 
ATOM      4  C   UNL     1       6.085   4.441  14.909  0.00  0.00    +0.000 A 
ATOM      5  C   UNL     1       5.144   5.517  15.339  0.00  0.00    +0.000 A 
ATOM      6  C   UNL     1       5.356   6.082  16.539  0.00  0.00    +0.000 A 
ATOM      7  N   UNL     1       6.443   5.594  17.305  0.00  0.00    +0.000 N 
ATOM      8  N   UNL     1       6.870   5.990  18.540  0.00  0.00    +0.000 NA
ATOM      9  C   UNL     1       7.896   5.162  18.748  0.00  0.00    +0.000 A 
ATOM     10  N   UNL     1       8.175   4.288  17.746  0.00  0.00    +0.000 NA
ATOM     11  C   UNL     1       7.265   4.560  16.836  0.00  0.00    +0.000 A 
ATOM     12  N   UNL     1       7.079   3.987  15.610  0.00  0.00    +0.000 NA
ENDBRANCH   1   6
BRANCH   1  13
ATOM     13  C   UNL     1       3.255   6.996  17.676  0.00  0.00    +0.000 C 
ATOM     14  C   UNL     1       2.747   8.364  18.129  0.00  0.00    +0.000 C 
ATOM     15  C   UNL     1       1.832   8.102  19.323  0.00  0.00    +0.000 C 
ATOM     16  C   UNL     1       2.008   6.634  19.704  0.00  0.00    +0.000 C 
ATOM     17  C   UNL     1       3.268   6.162  18.970  0.00  0.00    +0.000 C 
BRANCH  17  18
ATOM     18  C   UNL     1       3.316   4.667  18.726  0.00  0.00    +0.000 A 
ATOM     19  C   UNL     1       4.139   3.812  19.479  0.00  0.00    +0.000 A 
ATOM     20  C   UNL     1       4.125   2.431  19.265  0.00  0.00    +0.000 A 
ATOM     21  C   UNL     1       3.291   1.885  18.293  0.00  0.00    +0.000 A 
ATOM     22  C   UNL     1       2.478   2.720  17.531  0.00  0.00    +0.000 A 
ATOM     23  C   UNL     1       2.490   4.099  17.746  0.00  0.00    +0.000 A 
ENDBRANCH  17  18
ENDBRANCH   1  13
TORSDOF 3
ENDMDL
MODEL 7
REMARK VINA RESULT:      -8.4      1.279      2.787
REMARK  Name = 
REMARK  4 active torsions:
REMARK  status: ('A' for Active; 'I' for Inactive)
REMARK    1  A    between atoms: C_1  and  C_2
REMARK    2  A    between atoms: C_4  and  N_5
REMARK    3  A    between atoms: N_5  and  C_6
REMARK    4  A    between atoms: C_10  and  C_11
REMARK                            x       y       z     vdW  Elec       q    Type
REMARK                         _______ _______ _______ _____ _____    ______ ____
ROOT
ATOM      1  N   UNL     1       4.815   3.665  18.430  0.00  0.00    +0.000 N 
ATOM      2  H   UNL     1       4.693   2.799  17.902  0.00  0.00    +0.000 HD
ENDROOT
BRANCH   1   6
ATOM      3  C   UNL     1       8.141   7.355  18.565  0.00  0.00    +0.000 C 
ATOM      4  C   UNL     1       7.346   6.351  17.767  0.00  0.00    +0.000 A 
ATOM      5  C   UNL     1       6.407   5.484  18.539  0.00  0.00    +0.000 A 
ATOM      6  C   UNL     1       5.717   4.556  17.855  0.00  0.00    +0.000 A 
ATOM      7  N   UNL     1       5.923   4.492  16.455  0.00  0.00    +0.000 N 
ATOM      8  N   UNL     1       5.355   3.653  15.539  0.00  0.00    +0.000 NA
ATOM      9  C   UNL     1       5.906   4.082  14.402  0.00  0.00    +0.000 A 
ATOM     10  N   UNL     1       6.791   5.107  14.513  0.00  0.00    +0.000 NA
ATOM     11  C   UNL     1       6.807   5.364  15.803  0.00  0.00    +0.000 A 
ATOM     12  N   UNL     1       7.533   6.300  16.483  0.00  0.00    +0.000 NA
ENDBRANCH   1   6
BRANCH   1  13
ATOM     13  C   UNL     1       4.141   3.782  19.714  0.00  0.00    +0.000 C 
ATOM     14  C   UNL     1       4.121   2.440  20.446  0.00  0.00    +0.000 C 
ATOM     15  C   UNL     1       2.857   2.446  21.304  0.00  0.00    +0.000 C 
ATOM     16  C   UNL     1       2.039   3.665  20.883  0.00  0.00    +0.000 C 
ATOM     17  C   UNL     1       2.652   4.141  19.561  0.00  0.00    +0.000 C 
BRANCH  17  18
ATOM     18  C   UNL     1       2.410   5.607  19.262  0.00  0.00    +0.000 A 
ATOM     19  C   UNL     1       2.078   6.530  20.268  0.00  0.00    +0.000 A 
ATOM     20  C   UNL     1       1.910   7.885  19.970  0.00  0.00    +0.000 A 
ATOM     21  C   UNL     1       2.068   8.336  18.662  0.00  0.00    +0.000 A 
ATOM     22  C   UNL     1       2.387   7.432  17.652  0.00  0.00    +0.000 A 
ATOM     23  C   UNL     1       2.557   6.078  17.950  0.00  0.00    +0.000 A 
ENDBRANCH  17  18
ENDBRANCH   1  13
TORSDOF 3
ENDMDL
MODEL 8
REMARK VINA RESULT:      -8.4      1.106      2.645
REMARK  Name = 
REMARK  4 active torsions:
REMARK  status: ('A' for Active; 'I' for Inactive)
REMARK    1  A    between atoms: C_1  and  C_2
REMARK    2  A    between atoms: C_4  and  N_5
REMARK    3  A    between atoms: N_5  and  C_6
REMARK    4  A    between atoms: C_10  and  C_11
REMARK                            x       y       z     vdW  Elec       q    Type
REMARK                         _______ _______ _______ _____ _____    ______ ____
ROOT
ATOM      1  N   UNL     1       4.062   3.599  17.175  0.00  0.00    +0.000 N 
ATOM      2  H   UNL     1       3.763   3.286  16.249  0.00  0.00    +0.000 HD
ENDROOT
BRANCH   1   6
ATOM      3  C   UNL     1       7.864   5.933  19.365  0.00  0.00    +0.000 C 
ATOM      4  C   UNL     1       7.192   5.441  18.106  0.00  0.00    +0.000 A 
ATOM      5  C   UNL     1       5.878   4.754  18.280  0.00  0.00    +0.000 A 
ATOM      6  C   UNL     1       5.280   4.273  17.178  0.00  0.00    +0.000 A 
ATOM      7  N   UNL     1       5.937   4.476  15.939  0.00  0.00    +0.000 N 
ATOM      8  N   UNL     1       5.550   4.093  14.687  0.00  0.00    +0.000 NA
ATOM      9  C   UNL     1       6.540   4.581  13.938  0.00  0.00    +0.000 A 
ATOM     10  N   UNL     1       7.536   5.225  14.602  0.00  0.00    +0.000 NA
ATOM     11  C   UNL     1       7.161   5.156  15.861  0.00  0.00    +0.000 A 
ATOM     12  N   UNL     1       7.795   5.635  16.973  0.00  0.00    +0.000 NA
ENDBRANCH   1   6
BRANCH   1  13
ATOM     13  C   UNL     1       3.257   3.205  18.322  0.00  0.00    +0.000 C 
ATOM     14  C   UNL     1       2.914   1.717  18.264  0.00  0.00    +0.000 C 
ATOM     15  C   UNL     1       1.569   1.566  18.972  0.00  0.00    +0.000 C 
ATOM     16  C   UNL     1       1.033   2.975  19.215  0.00  0.00    +0.000 C 
ATOM     17  C   UNL     1       1.884   3.900  18.337  0.00  0.00    +0.000 C 
BRANCH  17  18
ATOM     18  C   UNL     1       1.937   5.334  18.824  0.00  0.00    +0.000 A 
ATOM     19  C   UNL     1       1.716   5.676  20.169  0.00  0.00    +0.000 A 
ATOM     20  C   UNL     1       1.821   7.002  20.599  0.00  0.00    +0.000 A 
ATOM     21  C   UNL     1       2.146   8.005  19.689  0.00  0.00    +0.000 A 
ATOM     22  C   UNL     1       2.358   7.684  18.351  0.00  0.00    +0.000 A 
ATOM     23  C   UNL     1       2.255   6.360  17.922  0.00  0.00    +0.000 A 
ENDBRANCH  17  18
ENDBRANCH   1  13
TORSDOF 3
ENDMDL
MODEL 9
REMARK VINA RESULT:      -8.4      1.251      3.534
REMARK  Name = 
REMARK  4 active torsions:
REMARK  status: ('A' for Active; 'I' for Inactive)
REMARK    1  A    between atoms: C_1  and  C_2
REMARK    2  A    between atoms: C_4  and  N_5
REMARK    3  A    between atoms: N_5  and  C_6
REMARK    4  A    between atoms: C_10  and  C_11
REMARK                            x       y       z     vdW  Elec       q    Type
REMARK                         _______ _______ _______ _____ _____    ______ ____
ROOT
ATOM      1  N   UNL     1       4.528   7.104  17.069  0.00  0.00    +0.000 N 
ATOM      2  H   UNL     1       4.916   8.038  16.919  0.00  0.00    +0.000 HD
ENDROOT
BRANCH   1   6
ATOM      3  C   UNL     1       5.800   3.796  13.586  0.00  0.00    +0.000 C 
ATOM      4  C   UNL     1       6.039   4.410  14.944  0.00  0.00    +0.000 A 
ATOM      5  C   UNL     1       5.094   5.489  15.359  0.00  0.00    +0.000 A 
ATOM      6  C   UNL     1       5.310   6.078  16.547  0.00  0.00    +0.000 A 
ATOM      7  N   UNL     1       6.405   5.611  17.315  0.00  0.00    +0.000 N 
ATOM      8  N   UNL     1       6.838   6.032  18.540  0.00  0.00    +0.000 NA
ATOM      9  C   UNL     1       7.870   5.214  18.757  0.00  0.00    +0.000 A 
ATOM     10  N   UNL     1       8.147   4.322  17.770  0.00  0.00    +0.000 NA
ATOM     11  C   UNL     1       7.230   4.573  16.861  0.00  0.00    +0.000 A 
ATOM     12  N   UNL     1       7.040   3.975  15.647  0.00  0.00    +0.000 NA
ENDBRANCH   1   6
BRANCH   1  13
ATOM     13  C   UNL     1       3.211   7.001  17.679  0.00  0.00    +0.000 C 
ATOM     14  C   UNL     1       2.713   8.371  18.139  0.00  0.00    +0.000 C 
ATOM     15  C   UNL     1       1.805   8.108  19.340  0.00  0.00    +0.000 C 
ATOM     16  C   UNL     1       1.977   6.637  19.714  0.00  0.00    +0.000 C 
ATOM     17  C   UNL     1       3.230   6.162  18.969  0.00  0.00    +0.000 C 
BRANCH  17  18
ATOM     18  C   UNL     1       3.269   4.668  18.719  0.00  0.00    +0.000 A 
ATOM     19  C   UNL     1       2.486   4.055  17.725  0.00  0.00    +0.000 A 
ATOM     20  C   UNL     1       2.581   2.682  17.483  0.00  0.00    +0.000 A 
ATOM     21  C   UNL     1       3.455   1.901  18.234  0.00  0.00    +0.000 A 
ATOM     22  C   UNL     1       4.229   2.491  19.229  0.00  0.00    +0.000 A 
ATOM     23  C   UNL     1       4.137   3.863  19.470  0.00  0.00    +0.000 A 
ENDBRANCH  17  18
ENDBRANCH   1  13
TORSDOF 3
ENDMDL
