MODEL 1
REMARK VINA RESULT:      -8.5      0.000      0.000
REMARK  Name = 
REMARK  6 active torsions:
REMARK  status: ('A' for Active; 'I' for Inactive)
REMARK    1  A    between atoms: C_2  and  C_13
REMARK    2  A    between atoms: N_3  and  C_4
REMARK    3  A    between atoms: C_4  and  C_5
REMARK    4  A    between atoms: C_22  and  C_23
REMARK    5  A    between atoms: C_23  and  O_24
REMARK    6  A    between atoms: O_24  and  C_25
REMARK                            x       y       z     vdW  Elec       q    Type
REMARK                         _______ _______ _______ _____ _____    ______ ____
ROOT
ATOM      1  C   UNL     1       3.271   6.621  18.756  0.00  0.00    +0.000 A 
ATOM      2  S   UNL     1       3.027   7.742  17.488  0.00  0.00    +0.000 S 
ATOM      3  C   UNL     1       1.829   8.534  18.356  0.00  0.00    +0.000 A 
ATOM      4  C   UNL     1       1.148   9.699  17.915  0.00  0.00    +0.000 A 
ATOM      5  C   UNL     1       1.408  10.650  18.885  0.00  0.00    +0.000 A 
ATOM      6  C   UNL     1       1.123  10.315  20.201  0.00  0.00    +0.000 A 
ATOM      7  C   UNL     1       1.082   8.945  20.562  0.00  0.00    +0.000 A 
ATOM      8  F   UNL     1       0.811   8.622  21.824  0.00  0.00    +0.000 F 
ATOM      9  C   UNL     1       1.668   8.022  19.657  0.00  0.00    +0.000 A 
ATOM     10  C   UNL     1       2.261   6.673  19.728  0.00  0.00    +0.000 A 
ENDROOT
BRANCH   1  12
ATOM     11  O   UNL     1       5.272   5.580  19.510  0.00  0.00    +0.000 OA
ATOM     12  C   UNL     1       4.422   5.753  18.622  0.00  0.00    +0.000 C 
ATOM     13  N   UNL     1       4.512   5.120  17.397  0.00  0.00    +0.000 N 
ATOM     14  H   UNL     1       3.914   5.442  16.636  0.00  0.00    +0.000 HD
BRANCH  13  15
ATOM     15  C   UNL     1       5.620   4.276  17.074  0.00  0.00    +0.000 C 
BRANCH  15  16
ATOM     16  C   UNL     1       6.387   4.805  15.921  0.00  0.00    +0.000 A 
ATOM     17  N   UNL     1       7.454   5.595  15.912  0.00  0.00    +0.000 NA
ATOM     18  N   UNL     1       7.923   5.696  14.598  0.00  0.00    +0.000 NA
ATOM     19  C   UNL     1       7.114   4.981  13.865  0.00  0.00    +0.000 A 
ATOM     20  N   UNL     1       6.136   4.461  14.643  0.00  0.00    +0.000 N 
ATOM     21  C   UNL     1       5.242   3.576  13.936  0.00  0.00    +0.000 C 
ATOM     22  C   UNL     1       5.984   3.360  12.601  0.00  0.00    +0.000 C 
ATOM     23  C   UNL     1       7.002   4.526  12.468  0.00  0.00    +0.000 C 
ENDBRANCH  15  16
ENDBRANCH  13  15
ENDBRANCH   1  12
BRANCH  10  24
ATOM     24  C   UNL     1       2.032   5.550  20.756  0.00  0.00    +0.000 C 
BRANCH  24  25
ATOM     25  O   UNL     1       1.315   4.432  20.214  0.00  0.00    +0.000 OA
BRANCH  25  26
ATOM     26  C   UNL     1       1.982   3.464  19.484  0.00  0.00    +0.000 A 
ATOM     27  C   UNL     1       1.699   3.000  18.198  0.00  0.00    +0.000 A 
ATOM     28  C   UNL     1       2.494   2.000  17.612  0.00  0.00    +0.000 A 
ATOM     29  C   UNL     1       3.580   1.448  18.305  0.00  0.00    +0.000 A 
ATOM     30  C   UNL     1       3.873   1.908  19.583  0.00  0.00    +0.000 A 
ATOM     31  C   UNL     1       3.074   2.907  20.163  0.00  0.00    +0.000 A 
ENDBRANCH  25  26
ENDBRANCH  24  25
ENDBRANCH  10  24
TORSDOF 6
ENDMDL
MODEL 2
REMARK VINA RESULT:      -8.0      3.625      7.383
REMARK  Name = 
REMARK  6 active torsions:
REMARK  status: ('A' for Active; 'I' for Inactive)
REMARK    1  A    between atoms: C_2  and  C_13
REMARK    2  A    between atoms: N_3  and  C_4
REMARK    3  A    between atoms: C_4  and  C_5
REMARK    4  A    between atoms: C_22  and  C_23
REMARK    5  A    between atoms: C_23  and  O_24
REMARK    6  A    between atoms: O_24  and  C_25
REMARK                            x       y       z     vdW  Elec       q    Type
REMARK                         _______ _______ _______ _____ _____    ______ ____
ROOT
ATOM      1  C   UNL     1       2.559   5.896  18.638  0.00  0.00    +0.000 A 
ATOM      2  S   UNL     1       1.429   5.730  19.910  0.00  0.00    +0.000 S 
ATOM      3  C   UNL     1       1.817   4.109  20.105  0.00  0.00    +0.000 A 
ATOM      4  C   UNL     1       1.266   3.260  21.100  0.00  0.00    +0.000 A 
ATOM      5  C   UNL     1       2.354   2.817  21.830  0.00  0.00    +0.000 A 
ATOM      6  C   UNL     1       3.399   2.231  21.130  0.00  0.00    +0.000 A 
ATOM      7  C   UNL     1       3.563   2.552  19.759  0.00  0.00    +0.000 A 
ATOM      8  F   UNL     1       4.566   1.992  19.086  0.00  0.00    +0.000 F 
ATOM      9  C   UNL     1       2.879   3.699  19.278  0.00  0.00    +0.000 A 
ATOM     10  C   UNL     1       3.040   4.663  18.173  0.00  0.00    +0.000 A 
ENDROOT
BRANCH   1  12
ATOM     11  O   UNL     1       3.899   7.645  17.740  0.00  0.00    +0.000 OA
ATOM     12  C   UNL     1       2.810   7.249  18.187  0.00  0.00    +0.000 C 
ATOM     13  N   UNL     1       1.722   8.092  18.298  0.00  0.00    +0.000 N 
ATOM     14  H   UNL     1       0.920   7.785  18.850  0.00  0.00    +0.000 HD
BRANCH  13  15
ATOM     15  C   UNL     1       1.814   9.478  17.956  0.00  0.00    +0.000 C 
BRANCH  15  16
ATOM     16  C   UNL     1       0.861  10.296  18.743  0.00  0.00    +0.000 A 
ATOM     17  N   UNL     1       1.091  11.088  19.783  0.00  0.00    +0.000 NA
ATOM     18  N   UNL     1      -0.087  11.776  20.091  0.00  0.00    +0.000 NA
ATOM     19  C   UNL     1      -0.986  11.360  19.240  0.00  0.00    +0.000 A 
ATOM     20  N   UNL     1      -0.445  10.419  18.432  0.00  0.00    +0.000 N 
ATOM     21  C   UNL     1      -1.337   9.963  17.393  0.00  0.00    +0.000 C 
ATOM     22  C   UNL     1      -2.480  10.997  17.469  0.00  0.00    +0.000 C 
ATOM     23  C   UNL     1      -2.377  11.667  18.866  0.00  0.00    +0.000 C 
ENDBRANCH  15  16
ENDBRANCH  13  15
ENDBRANCH   1  12
BRANCH  10  24
ATOM     24  C   UNL     1       3.761   4.502  16.823  0.00  0.00    +0.000 C 
BRANCH  24  25
ATOM     25  O   UNL     1       5.139   4.128  16.965  0.00  0.00    +0.000 OA
BRANCH  25  26
ATOM     26  C   UNL     1       6.071   5.053  17.401  0.00  0.00    +0.000 A 
ATOM     27  C   UNL     1       6.638   6.113  16.690  0.00  0.00    +0.000 A 
ATOM     28  C   UNL     1       7.580   6.957  17.304  0.00  0.00    +0.000 A 
ATOM     29  C   UNL     1       7.972   6.750  18.633  0.00  0.00    +0.000 A 
ATOM     30  C   UNL     1       7.408   5.701  19.350  0.00  0.00    +0.000 A 
ATOM     31  C   UNL     1       6.468   4.860  18.732  0.00  0.00    +0.000 A 
ENDBRANCH  25  26
ENDBRANCH  24  25
ENDBRANCH  10  24
TORSDOF 6
ENDMDL
MODEL 3
REMARK VINA RESULT:      -7.9      3.594      7.602
REMARK  Name = 
REMARK  6 active torsions:
REMARK  status: ('A' for Active; 'I' for Inactive)
REMARK    1  A    between atoms: C_2  and  C_13
REMARK    2  A    between atoms: N_3  and  C_4
REMARK    3  A    between atoms: C_4  and  C_5
REMARK    4  A    between atoms: C_22  and  C_23
REMARK    5  A    between atoms: C_23  and  O_24
REMARK    6  A    between atoms: O_24  and  C_25
REMARK                            x       y       z     vdW  Elec       q    Type
REMARK                         _______ _______ _______ _____ _____    ______ ____
ROOT
ATOM      1  C   UNL     1       2.525   5.930  18.743  0.00  0.00    +0.000 A 
ATOM      2  S   UNL     1       1.405   5.692  20.013  0.00  0.00    +0.000 S 
ATOM      3  C   UNL     1       1.825   4.072  20.143  0.00  0.00    +0.000 A 
ATOM      4  C   UNL     1       1.295   3.175  21.107  0.00  0.00    +0.000 A 
ATOM      5  C   UNL     1       2.396   2.725  21.814  0.00  0.00    +0.000 A 
ATOM      6  C   UNL     1       3.448   2.186  21.086  0.00  0.00    +0.000 A 
ATOM      7  C   UNL     1       3.598   2.564  19.727  0.00  0.00    +0.000 A 
ATOM      8  F   UNL     1       4.608   2.050  19.028  0.00  0.00    +0.000 F 
ATOM      9  C   UNL     1       2.890   3.715  19.295  0.00  0.00    +0.000 A 
ATOM     10  C   UNL     1       3.026   4.725  18.228  0.00  0.00    +0.000 A 
ENDROOT
BRANCH   1  12
ATOM     11  O   UNL     1       3.787   7.712  17.801  0.00  0.00    +0.000 OA
ATOM     12  C   UNL     1       2.747   7.304  18.344  0.00  0.00    +0.000 C 
ATOM     13  N   UNL     1       1.693   8.151  18.624  0.00  0.00    +0.000 N 
ATOM     14  H   UNL     1       0.953   7.821  19.245  0.00  0.00    +0.000 HD
BRANCH  13  15
ATOM     15  C   UNL     1       1.770   9.553  18.353  0.00  0.00    +0.000 C 
BRANCH  15  16
ATOM     16  C   UNL     1       0.813  10.321  19.184  0.00  0.00    +0.000 A 
ATOM     17  N   UNL     1      -0.110  11.197  18.811  0.00  0.00    +0.000 NA
ATOM     18  N   UNL     1      -0.877  11.543  19.928  0.00  0.00    +0.000 NA
ATOM     19  C   UNL     1      -0.376  10.879  20.934  0.00  0.00    +0.000 A 
ATOM     20  N   UNL     1       0.690  10.158  20.516  0.00  0.00    +0.000 N 
ATOM     21  C   UNL     1       1.258   9.315  21.541  0.00  0.00    +0.000 C 
ATOM     22  C   UNL     1       0.185   9.377  22.646  0.00  0.00    +0.000 C 
ATOM     23  C   UNL     1      -0.676  10.638  22.356  0.00  0.00    +0.000 C 
ENDBRANCH  15  16
ENDBRANCH  13  15
ENDBRANCH   1  12
BRANCH  10  24
ATOM     24  C   UNL     1       3.742   4.631  16.869  0.00  0.00    +0.000 C 
BRANCH  24  25
ATOM     25  O   UNL     1       5.103   4.191  16.983  0.00  0.00    +0.000 OA
BRANCH  25  26
ATOM     26  C   UNL     1       6.048   5.000  17.589  0.00  0.00    +0.000 A 
ATOM     27  C   UNL     1       6.598   4.881  18.867  0.00  0.00    +0.000 A 
ATOM     28  C   UNL     1       7.556   5.808  19.317  0.00  0.00    +0.000 A 
ATOM     29  C   UNL     1       7.971   6.866  18.499  0.00  0.00    +0.000 A 
ATOM     30  C   UNL     1       7.433   6.988  17.223  0.00  0.00    +0.000 A 
ATOM     31  C   UNL     1       6.477   6.060  16.779  0.00  0.00    +0.000 A 
ENDBRANCH  25  26
ENDBRANCH  24  25
ENDBRANCH  10  24
TORSDOF 6
ENDMDL
MODEL 4
REMARK VINA RESULT:      -7.8      3.525      7.352
REMARK  Name = 
REMARK  6 active torsions:
REMARK  status: ('A' for Active; 'I' for Inactive)
REMARK    1  A    between atoms: C_2  and  C_13
REMARK    2  A    between atoms: N_3  and  C_4
REMARK    3  A    between atoms: C_4  and  C_5
REMARK    4  A    between atoms: C_22  and  C_23
REMARK    5  A    between atoms: C_23  and  O_24
REMARK    6  A    between atoms: O_24  and  C_25
REMARK                            x       y       z     vdW  Elec       q    Type
REMARK                         _______ _______ _______ _____ _____    ______ ____
ROOT
ATOM      1  C   UNL     1       2.624   5.842  18.560  0.00  0.00    +0.000 A 
ATOM      2  S   UNL     1       1.457   5.717  19.802  0.00  0.00    +0.000 S 
ATOM      3  C   UNL     1       1.829   4.100  20.053  0.00  0.00    +0.000 A 
ATOM      4  C   UNL     1       1.244   3.283  21.055  0.00  0.00    +0.000 A 
ATOM      5  C   UNL     1       2.308   2.854  21.828  0.00  0.00    +0.000 A 
ATOM      6  C   UNL     1       3.369   2.243  21.175  0.00  0.00    +0.000 A 
ATOM      7  C   UNL     1       3.575   2.525  19.801  0.00  0.00    +0.000 A 
ATOM      8  F   UNL     1       4.593   1.942  19.173  0.00  0.00    +0.000 F 
ATOM      9  C   UNL     1       2.912   3.662  19.269  0.00  0.00    +0.000 A 
ATOM     10  C   UNL     1       3.110   4.594  18.143  0.00  0.00    +0.000 A 
ENDROOT
BRANCH   1  12
ATOM     11  O   UNL     1       3.992   7.549  17.623  0.00  0.00    +0.000 OA
ATOM     12  C   UNL     1       2.897   7.181  18.079  0.00  0.00    +0.000 C 
ATOM     13  N   UNL     1       1.822   8.044  18.172  0.00  0.00    +0.000 N 
ATOM     14  H   UNL     1       1.016   7.762  18.731  0.00  0.00    +0.000 HD
BRANCH  13  15
ATOM     15  C   UNL     1       1.936   9.419  17.800  0.00  0.00    +0.000 C 
BRANCH  15  16
ATOM     16  C   UNL     1       1.337  10.311  18.822  0.00  0.00    +0.000 A 
ATOM     17  N   UNL     1       0.547  10.007  19.843  0.00  0.00    +0.000 NA
ATOM     18  N   UNL     1       0.365  11.153  20.624  0.00  0.00    +0.000 NA
ATOM     19  C   UNL     1       1.035  12.106  20.035  0.00  0.00    +0.000 A 
ATOM     20  N   UNL     1       1.603  11.629  18.903  0.00  0.00    +0.000 N 
ATOM     21  C   UNL     1       2.444  12.587  18.228  0.00  0.00    +0.000 C 
ATOM     22  C   UNL     1       2.577  13.705  19.283  0.00  0.00    +0.000 C 
ATOM     23  C   UNL     1       1.404  13.510  20.283  0.00  0.00    +0.000 C 
ENDBRANCH  15  16
ENDBRANCH  13  15
ENDBRANCH   1  12
BRANCH  10  24
ATOM     24  C   UNL     1       3.870   4.392  16.820  0.00  0.00    +0.000 C 
BRANCH  24  25
ATOM     25  O   UNL     1       5.250   4.050  17.012  0.00  0.00    +0.000 OA
BRANCH  25  26
ATOM     26  C   UNL     1       6.154   5.010  17.431  0.00  0.00    +0.000 A 
ATOM     27  C   UNL     1       6.669   6.089  16.709  0.00  0.00    +0.000 A 
ATOM     28  C   UNL     1       7.588   6.969  17.306  0.00  0.00    +0.000 A 
ATOM     29  C   UNL     1       8.010   6.780  18.629  0.00  0.00    +0.000 A 
ATOM     30  C   UNL     1       7.498   5.712  19.357  0.00  0.00    +0.000 A 
ATOM     31  C   UNL     1       6.580   4.836  18.755  0.00  0.00    +0.000 A 
ENDBRANCH  25  26
ENDBRANCH  24  25
ENDBRANCH  10  24
TORSDOF 6
ENDMDL
MODEL 5
REMARK VINA RESULT:      -7.7      4.003      8.249
REMARK  Name = 
REMARK  6 active torsions:
REMARK  status: ('A' for Active; 'I' for Inactive)
REMARK    1  A    between atoms: C_2  and  C_13
REMARK    2  A    between atoms: N_3  and  C_4
REMARK    3  A    between atoms: C_4  and  C_5
REMARK    4  A    between atoms: C_22  and  C_23
REMARK    5  A    between atoms: C_23  and  O_24
REMARK    6  A    between atoms: O_24  and  C_25
REMARK                            x       y       z     vdW  Elec       q    Type
REMARK                         _______ _______ _______ _____ _____    ______ ____
ROOT
ATOM      1  C   UNL     1       2.205   6.145  19.335  0.00  0.00    +0.000 A 
ATOM      2  S   UNL     1       1.136   5.469  20.485  0.00  0.00    +0.000 S 
ATOM      3  C   UNL     1       1.830   3.951  20.306  0.00  0.00    +0.000 A 
ATOM      4  C   UNL     1       1.458   2.801  21.049  0.00  0.00    +0.000 A 
ATOM      5  C   UNL     1       2.616   2.409  21.697  0.00  0.00    +0.000 A 
ATOM      6  C   UNL     1       3.749   2.215  20.921  0.00  0.00    +0.000 A 
ATOM      7  C   UNL     1       3.840   2.881  19.672  0.00  0.00    +0.000 A 
ATOM      8  F   UNL     1       4.928   2.698  18.927  0.00  0.00    +0.000 F 
ATOM      9  C   UNL     1       2.946   3.959  19.449  0.00  0.00    +0.000 A 
ATOM     10  C   UNL     1       2.911   5.173  18.611  0.00  0.00    +0.000 A 
ENDROOT
BRANCH   1  12
ATOM     11  O   UNL     1       2.755   8.228  18.325  0.00  0.00    +0.000 OA
ATOM     12  C   UNL     1       2.188   7.589  19.227  0.00  0.00    +0.000 C 
ATOM     13  N   UNL     1       1.481   8.222  20.231  0.00  0.00    +0.000 N 
ATOM     14  H   UNL     1       1.208   7.681  21.051  0.00  0.00    +0.000 HD
BRANCH  13  15
ATOM     15  C   UNL     1       1.416   9.648  20.311  0.00  0.00    +0.000 C 
BRANCH  15  16
ATOM     16  C   UNL     1       0.516  10.091  21.402  0.00  0.00    +0.000 A 
ATOM     17  N   UNL     1       0.613   9.885  22.709  0.00  0.00    +0.000 NA
ATOM     18  N   UNL     1      -0.381  10.627  23.355  0.00  0.00    +0.000 NA
ATOM     19  C   UNL     1      -1.051  11.236  22.414  0.00  0.00    +0.000 A 
ATOM     20  N   UNL     1      -0.552  10.889  21.205  0.00  0.00    +0.000 N 
ATOM     21  C   UNL     1      -1.169  11.585  20.102  0.00  0.00    +0.000 C 
ATOM     22  C   UNL     1      -1.969  12.691  20.821  0.00  0.00    +0.000 C 
ATOM     23  C   UNL     1      -2.130  12.231  22.296  0.00  0.00    +0.000 C 
ENDBRANCH  15  16
ENDBRANCH  13  15
ENDBRANCH   1  12
BRANCH  10  24
ATOM     24  C   UNL     1       3.642   5.479  17.292  0.00  0.00    +0.000 C 
BRANCH  24  25
ATOM     25  O   UNL     1       4.989   4.988  17.271  0.00  0.00    +0.000 OA
BRANCH  25  26
ATOM     26  C   UNL     1       6.039   5.819  17.619  0.00  0.00    +0.000 A 
ATOM     27  C   UNL     1       6.404   7.041  17.050  0.00  0.00    +0.000 A 
ATOM     28  C   UNL     1       7.514   7.750  17.541  0.00  0.00    +0.000 A 
ATOM     29  C   UNL     1       8.277   7.246  18.603  0.00  0.00    +0.000 A 
ATOM     30  C   UNL     1       7.918   6.034  19.179  0.00  0.00    +0.000 A 
ATOM     31  C   UNL     1       6.808   5.329  18.685  0.00  0.00    +0.000 A 
ENDBRANCH  25  26
ENDBRANCH  24  25
ENDBRANCH  10  24
TORSDOF 6
ENDMDL
MODEL 6
REMARK VINA RESULT:      -7.6      3.834      7.917
REMARK  Name = 
REMARK  6 active torsions:
REMARK  status: ('A' for Active; 'I' for Inactive)
REMARK    1  A    between atoms: C_2  and  C_13
REMARK    2  A    between atoms: N_3  and  C_4
REMARK    3  A    between atoms: C_4  and  C_5
REMARK    4  A    between atoms: C_22  and  C_23
REMARK    5  A    between atoms: C_23  and  O_24
REMARK    6  A    between atoms: O_24  and  C_25
REMARK                            x       y       z     vdW  Elec       q    Type
REMARK                         _______ _______ _______ _____ _____    ______ ____
ROOT
ATOM      1  C   UNL     1       2.337   6.140  19.016  0.00  0.00    +0.000 A 
ATOM      2  S   UNL     1       1.213   5.715  20.231  0.00  0.00    +0.000 S 
ATOM      3  C   UNL     1       1.756   4.127  20.244  0.00  0.00    +0.000 A 
ATOM      4  C   UNL     1       1.278   3.117  21.119  0.00  0.00    +0.000 A 
ATOM      5  C   UNL     1       2.395   2.696  21.818  0.00  0.00    +0.000 A 
ATOM      6  C   UNL     1       3.501   2.301  21.079  0.00  0.00    +0.000 A 
ATOM      7  C   UNL     1       3.651   2.798  19.759  0.00  0.00    +0.000 A 
ATOM      8  F   UNL     1       4.712   2.421  19.050  0.00  0.00    +0.000 F 
ATOM      9  C   UNL     1       2.864   3.923  19.401  0.00  0.00    +0.000 A 
ATOM     10  C   UNL     1       2.942   5.023  18.421  0.00  0.00    +0.000 A 
ENDROOT
BRANCH   1  12
ATOM     11  O   UNL     1       3.289   8.039  17.946  0.00  0.00    +0.000 OA
ATOM     12  C   UNL     1       2.460   7.555  18.732  0.00  0.00    +0.000 C 
ATOM     13  N   UNL     1       1.566   8.348  19.425  0.00  0.00    +0.000 N 
ATOM     14  H   UNL     1       1.047   7.937  20.201  0.00  0.00    +0.000 HD
BRANCH  13  15
ATOM     15  C   UNL     1       1.591   9.773  19.312  0.00  0.00    +0.000 C 
BRANCH  15  16
ATOM     16  C   UNL     1       0.752  10.417  20.350  0.00  0.00    +0.000 A 
ATOM     17  N   UNL     1       1.038  10.681  21.618  0.00  0.00    +0.000 NA
ATOM     18  N   UNL     1      -0.003  11.438  22.164  0.00  0.00    +0.000 NA
ATOM     19  C   UNL     1      -0.885  11.585  21.212  0.00  0.00    +0.000 A 
ATOM     20  N   UNL     1      -0.470  10.930  20.104  0.00  0.00    +0.000 N 
ATOM     21  C   UNL     1      -1.336  11.111  18.964  0.00  0.00    +0.000 C 
ATOM     22  C   UNL     1      -2.254  12.260  19.431  0.00  0.00    +0.000 C 
ATOM     23  C   UNL     1      -2.148  12.307  20.980  0.00  0.00    +0.000 C 
ENDBRANCH  15  16
ENDBRANCH  13  15
ENDBRANCH   1  12
BRANCH  10  24
ATOM     24  C   UNL     1       3.693   5.094  17.079  0.00  0.00    +0.000 C 
BRANCH  24  25
ATOM     25  O   UNL     1       5.020   4.553  17.150  0.00  0.00    +0.000 OA
BRANCH  25  26
ATOM     26  C   UNL     1       6.050   5.302  17.689  0.00  0.00    +0.000 A 
ATOM     27  C   UNL     1       6.833   5.020  18.811  0.00  0.00    +0.000 A 
ATOM     28  C   UNL     1       7.844   5.909  19.214  0.00  0.00    +0.000 A 
ATOM     29  C   UNL     1       8.083   7.094  18.506  0.00  0.00    +0.000 A 
ATOM     30  C   UNL     1       7.313   7.381  17.385  0.00  0.00    +0.000 A 
ATOM     31  C   UNL     1       6.304   6.489  16.987  0.00  0.00    +0.000 A 
ENDBRANCH  25  26
ENDBRANCH  24  25
ENDBRANCH  10  24
TORSDOF 6
ENDMDL
MODEL 7
REMARK VINA RESULT:      -7.6      1.295      1.541
REMARK  Name = 
REMARK  6 active torsions:
REMARK  status: ('A' for Active; 'I' for Inactive)
REMARK    1  A    between atoms: C_2  and  C_13
REMARK    2  A    between atoms: N_3  and  C_4
REMARK    3  A    between atoms: C_4  and  C_5
REMARK    4  A    between atoms: C_22  and  C_23
REMARK    5  A    between atoms: C_23  and  O_24
REMARK    6  A    between atoms: O_24  and  C_25
REMARK                            x       y       z     vdW  Elec       q    Type
REMARK                         _______ _______ _______ _____ _____    ______ ____
ROOT
ATOM      1  C   UNL     1       2.363   7.200  19.005  0.00  0.00    +0.000 A 
ATOM      2  S   UNL     1       1.971   8.517  17.989  0.00  0.00    +0.000 S 
ATOM      3  C   UNL     1       1.101   9.265  19.214  0.00  0.00    +0.000 A 
ATOM      4  C   UNL     1       0.479  10.535  19.104  0.00  0.00    +0.000 A 
ATOM      5  C   UNL     1       1.062  11.302  20.097  0.00  0.00    +0.000 A 
ATOM      6  C   UNL     1       1.047  10.796  21.389  0.00  0.00    +0.000 A 
ATOM      7  C   UNL     1       0.930   9.395  21.569  0.00  0.00    +0.000 A 
ATOM      8  F   UNL     1       0.917   8.908  22.808  0.00  0.00    +0.000 F 
ATOM      9  C   UNL     1       1.183   8.575  20.439  0.00  0.00    +0.000 A 
ATOM     10  C   UNL     1       1.614   7.187  20.191  0.00  0.00    +0.000 A 
ENDROOT
BRANCH   1  12
ATOM     11  O   UNL     1       3.199   5.612  17.443  0.00  0.00    +0.000 OA
ATOM     12  C   UNL     1       3.344   6.270  18.486  0.00  0.00    +0.000 C 
ATOM     13  N   UNL     1       4.482   6.159  19.262  0.00  0.00    +0.000 N 
ATOM     14  H   UNL     1       4.474   6.556  20.202  0.00  0.00    +0.000 HD
BRANCH  13  15
ATOM     15  C   UNL     1       5.524   5.238  18.929  0.00  0.00    +0.000 C 
BRANCH  15  16
ATOM     16  C   UNL     1       6.275   5.677  17.728  0.00  0.00    +0.000 A 
ATOM     17  N   UNL     1       7.227   6.595  17.621  0.00  0.00    +0.000 NA
ATOM     18  N   UNL     1       7.747   6.550  16.323  0.00  0.00    +0.000 NA
ATOM     19  C   UNL     1       7.079   5.622  15.694  0.00  0.00    +0.000 A 
ATOM     20  N   UNL     1       6.138   5.103  16.517  0.00  0.00    +0.000 N 
ATOM     21  C   UNL     1       5.406   4.002  15.940  0.00  0.00    +0.000 C 
ATOM     22  C   UNL     1       6.238   3.681  14.681  0.00  0.00    +0.000 C 
ATOM     23  C   UNL     1       7.100   4.940  14.389  0.00  0.00    +0.000 C 
ENDBRANCH  15  16
ENDBRANCH  13  15
ENDBRANCH   1  12
BRANCH  10  24
ATOM     24  C   UNL     1       1.495   5.944  21.091  0.00  0.00    +0.000 C 
BRANCH  24  25
ATOM     25  O   UNL     1       0.779   4.867  20.469  0.00  0.00    +0.000 OA
BRANCH  25  26
ATOM     26  C   UNL     1       1.467   3.841  19.846  0.00  0.00    +0.000 A 
ATOM     27  C   UNL     1       1.154   3.187  18.653  0.00  0.00    +0.000 A 
ATOM     28  C   UNL     1       1.978   2.155  18.171  0.00  0.00    +0.000 A 
ATOM     29  C   UNL     1       3.122   1.760  18.877  0.00  0.00    +0.000 A 
ATOM     30  C   UNL     1       3.444   2.409  20.063  0.00  0.00    +0.000 A 
ATOM     31  C   UNL     1       2.617   3.439  20.540  0.00  0.00    +0.000 A 
ENDBRANCH  25  26
ENDBRANCH  24  25
ENDBRANCH  10  24
TORSDOF 6
ENDMDL
MODEL 8
REMARK VINA RESULT:      -7.5      4.310      6.823
REMARK  Name = 
REMARK  6 active torsions:
REMARK  status: ('A' for Active; 'I' for Inactive)
REMARK    1  A    between atoms: C_2  and  C_13
REMARK    2  A    between atoms: N_3  and  C_4
REMARK    3  A    between atoms: C_4  and  C_5
REMARK    4  A    between atoms: C_22  and  C_23
REMARK    5  A    between atoms: C_23  and  O_24
REMARK    6  A    between atoms: O_24  and  C_25
REMARK                            x       y       z     vdW  Elec       q    Type
REMARK                         _______ _______ _______ _____ _____    ______ ____
ROOT
ATOM      1  C   UNL     1       5.809   6.175  17.895  0.00  0.00    +0.000 A 
ATOM      2  S   UNL     1       6.329   4.856  18.849  0.00  0.00    +0.000 S 
ATOM      3  C   UNL     1       4.753   4.306  19.030  0.00  0.00    +0.000 A 
ATOM      4  C   UNL     1       4.386   3.120  19.718  0.00  0.00    +0.000 A 
ATOM      5  C   UNL     1       3.731   2.351  18.773  0.00  0.00    +0.000 A 
ATOM      6  C   UNL     1       2.674   2.938  18.091  0.00  0.00    +0.000 A 
ATOM      7  C   UNL     1       2.629   4.352  17.993  0.00  0.00    +0.000 A 
ATOM      8  F   UNL     1       1.617   4.916  17.337  0.00  0.00    +0.000 F 
ATOM      9  C   UNL     1       3.825   5.057  18.286  0.00  0.00    +0.000 A 
ATOM     10  C   UNL     1       4.419   6.361  17.935  0.00  0.00    +0.000 A 
ENDROOT
BRANCH   1  12
ATOM     11  O   UNL     1       7.464   6.561  16.230  0.00  0.00    +0.000 OA
ATOM     12  C   UNL     1       6.854   6.938  17.244  0.00  0.00    +0.000 C 
ATOM     13  N   UNL     1       7.136   8.145  17.855  0.00  0.00    +0.000 N 
ATOM     14  H   UNL     1       6.760   8.320  18.787  0.00  0.00    +0.000 HD
BRANCH  13  15
ATOM     15  C   UNL     1       8.184   8.993  17.380  0.00  0.00    +0.000 C 
BRANCH  15  16
ATOM     16  C   UNL     1       8.661   9.913  18.440  0.00  0.00    +0.000 A 
ATOM     17  N   UNL     1       9.257   9.632  19.592  0.00  0.00    +0.000 NA
ATOM     18  N   UNL     1       9.666  10.829  20.188  0.00  0.00    +0.000 NA
ATOM     19  C   UNL     1       9.286  11.785  19.385  0.00  0.00    +0.000 A 
ATOM     20  N   UNL     1       8.626  11.255  18.328  0.00  0.00    +0.000 N 
ATOM     21  C   UNL     1       8.246  12.229  17.334  0.00  0.00    +0.000 C 
ATOM     22  C   UNL     1       9.040  13.475  17.777  0.00  0.00    +0.000 C 
ATOM     23  C   UNL     1       9.427  13.246  19.264  0.00  0.00    +0.000 C 
ENDBRANCH  15  16
ENDBRANCH  13  15
ENDBRANCH   1  12
BRANCH  10  24
ATOM     24  C   UNL     1       3.736   7.665  17.484  0.00  0.00    +0.000 C 
BRANCH  24  25
ATOM     25  O   UNL     1       2.326   7.679  17.751  0.00  0.00    +0.000 OA
BRANCH  25  26
ATOM     26  C   UNL     1       1.846   8.213  18.933  0.00  0.00    +0.000 A 
ATOM     27  C   UNL     1       1.856   7.644  20.208  0.00  0.00    +0.000 A 
ATOM     28  C   UNL     1       1.316   8.342  21.303  0.00  0.00    +0.000 A 
ATOM     29  C   UNL     1       0.755   9.614  21.137  0.00  0.00    +0.000 A 
ATOM     30  C   UNL     1       0.746  10.192  19.872  0.00  0.00    +0.000 A 
ATOM     31  C   UNL     1       1.286   9.490  18.782  0.00  0.00    +0.000 A 
ENDBRANCH  25  26
ENDBRANCH  24  25
ENDBRANCH  10  24
TORSDOF 6
ENDMDL
MODEL 9
REMARK VINA RESULT:      -7.4      2.934      6.902
REMARK  Name = 
REMARK  6 active torsions:
REMARK  status: ('A' for Active; 'I' for Inactive)
REMARK    1  A    between atoms: C_2  and  C_13
REMARK    2  A    between atoms: N_3  and  C_4
REMARK    3  A    between atoms: C_4  and  C_5
REMARK    4  A    between atoms: C_22  and  C_23
REMARK    5  A    between atoms: C_23  and  O_24
REMARK    6  A    between atoms: O_24  and  C_25
REMARK                            x       y       z     vdW  Elec       q    Type
REMARK                         _______ _______ _______ _____ _____    ______ ____
ROOT
ATOM      1  C   UNL     1       5.295   5.051  17.308  0.00  0.00    +0.000 A 
ATOM      2  S   UNL     1       6.887   5.609  17.035  0.00  0.00    +0.000 S 
ATOM      3  C   UNL     1       6.964   4.813  15.560  0.00  0.00    +0.000 A 
ATOM      4  C   UNL     1       8.064   4.871  14.666  0.00  0.00    +0.000 A 
ATOM      5  C   UNL     1       7.540   5.384  13.492  0.00  0.00    +0.000 A 
ATOM      6  C   UNL     1       6.432   4.746  12.954  0.00  0.00    +0.000 A 
ATOM      7  C   UNL     1       5.602   3.983  13.813  0.00  0.00    +0.000 A 
ATOM      8  F   UNL     1       4.537   3.371  13.299  0.00  0.00    +0.000 F 
ATOM      9  C   UNL     1       5.747   4.198  15.208  0.00  0.00    +0.000 A 
ATOM     10  C   UNL     1       4.913   4.039  16.415  0.00  0.00    +0.000 A 
ENDROOT
BRANCH   1  12
ATOM     11  O   UNL     1       5.014   5.603  19.605  0.00  0.00    +0.000 OA
ATOM     12  C   UNL     1       4.601   5.640  18.434  0.00  0.00    +0.000 C 
ATOM     13  N   UNL     1       3.411   6.259  18.103  0.00  0.00    +0.000 N 
ATOM     14  H   UNL     1       3.015   6.092  17.178  0.00  0.00    +0.000 HD
BRANCH  13  15
ATOM     15  C   UNL     1       2.569   6.837  19.103  0.00  0.00    +0.000 C 
BRANCH  15  16
ATOM     16  C   UNL     1       2.138   8.205  18.727  0.00  0.00    +0.000 A 
ATOM     17  N   UNL     1       2.289   8.847  17.576  0.00  0.00    +0.000 NA
ATOM     18  N   UNL     1       1.582  10.052  17.640  0.00  0.00    +0.000 NA
ATOM     19  C   UNL     1       1.049  10.100  18.831  0.00  0.00    +0.000 A 
ATOM     20  N   UNL     1       1.412   9.002  19.535  0.00  0.00    +0.000 N 
ATOM     21  C   UNL     1       0.795   8.918  20.836  0.00  0.00    +0.000 C 
ATOM     22  C   UNL     1      -0.289  10.013  20.755  0.00  0.00    +0.000 C 
ATOM     23  C   UNL     1       0.123  10.956  19.592  0.00  0.00    +0.000 C 
ENDBRANCH  15  16
ENDBRANCH  13  15
ENDBRANCH   1  12
BRANCH  10  24
ATOM     24  C   UNL     1       3.705   3.118  16.662  0.00  0.00    +0.000 C 
BRANCH  24  25
ATOM     25  O   UNL     1       3.797   2.392  17.896  0.00  0.00    +0.000 OA
BRANCH  25  26
ATOM     26  C   UNL     1       2.885   2.624  18.910  0.00  0.00    +0.000 A 
ATOM     27  C   UNL     1       1.528   2.935  18.801  0.00  0.00    +0.000 A 
ATOM     28  C   UNL     1       0.751   3.140  19.955  0.00  0.00    +0.000 A 
ATOM     29  C   UNL     1       1.320   3.042  21.231  0.00  0.00    +0.000 A 
ATOM     30  C   UNL     1       2.669   2.726  21.350  0.00  0.00    +0.000 A 
ATOM     31  C   UNL     1       3.440   2.523  20.194  0.00  0.00    +0.000 A 
ENDBRANCH  25  26
ENDBRANCH  24  25
ENDBRANCH  10  24
TORSDOF 6
ENDMDL
