MODEL 1
REMARK VINA RESULT:      -8.9      0.000      0.000
REMARK  Name = 
REMARK  4 active torsions:
REMARK  status: ('A' for Active; 'I' for Inactive)
REMARK    1  A    between atoms: C_2  and  C_19
REMARK    2  A    between atoms: N_3  and  C_4
REMARK    3  A    between atoms: C_7  and  N_8
REMARK    4  A    between atoms: C_14  and  C_15
REMARK                            x       y       z     vdW  Elec       q    Type
REMARK                         _______ _______ _______ _____ _____    ______ ____
ROOT
ATOM      1  C   UNL     1       1.605   8.278  20.225  0.00  0.00    +0.000 A 
ATOM      2  C   UNL     1       1.339   8.277  21.603  0.00  0.00    +0.000 A 
ATOM      3  C   UNL     1       0.498   9.248  22.208  0.00  0.00    +0.000 A 
ATOM      4  C   UNL     1      -0.103  10.255  21.447  0.00  0.00    +0.000 A 
ATOM      5  C   UNL     1       0.202  10.302  20.083  0.00  0.00    +0.000 A 
ATOM      6  C   UNL     1       1.022   9.315  19.461  0.00  0.00    +0.000 A 
ENDROOT
BRANCH   4   7
ATOM      7  N   UNL     1      -1.056  11.181  21.989  0.00  0.00    +0.000 N 
ATOM      8  C   UNL     1      -1.582  11.221  23.267  0.00  0.00    +0.000 A 
ATOM      9  C   UNL     1      -2.564  12.187  23.286  0.00  0.00    +0.000 A 
ATOM     10  C   UNL     1      -2.547  12.721  21.988  0.00  0.00    +0.000 A 
ATOM     11  N   UNL     1      -1.631  12.135  21.209  0.00  0.00    +0.000 NA
ENDBRANCH   4   7
BRANCH   1  14
ATOM     12  O   UNL     1       1.768   5.237  20.469  0.00  0.00    +0.000 OA
ATOM     13  C   UNL     1       2.527   5.924  19.788  0.00  0.00    +0.000 C 
ATOM     14  N   UNL     1       2.452   7.308  19.600  0.00  0.00    +0.000 N 
ATOM     15  H   UNL     1       3.097   7.647  18.880  0.00  0.00    +0.000 HD
BRANCH  13  16
ATOM     16  C   UNL     1       3.703   5.276  19.070  0.00  0.00    +0.000 A 
ATOM     17  C   UNL     1       4.807   4.790  19.752  0.00  0.00    +0.000 A 
ATOM     18  N   UNL     1       5.964   4.430  19.119  0.00  0.00    +0.000 NA
ATOM     19  C   UNL     1       6.014   4.624  17.790  0.00  0.00    +0.000 A 
ATOM     20  C   UNL     1       7.214   4.487  17.085  0.00  0.00    +0.000 A 
ATOM     21  C   UNL     1       7.307   4.801  15.725  0.00  0.00    +0.000 A 
ATOM     22  C   UNL     1       6.163   5.182  15.035  0.00  0.00    +0.000 A 
ATOM     23  C   UNL     1       4.946   5.271  15.712  0.00  0.00    +0.000 A 
ATOM     24  C   UNL     1       4.855   5.055  17.081  0.00  0.00    +0.000 A 
ATOM     25  N   UNL     1       3.689   5.343  17.709  0.00  0.00    +0.000 NA
ENDBRANCH  13  16
ENDBRANCH   1  14
BRANCH   6  26
ATOM     26  C   UNL     1       1.139   9.429  17.962  0.00  0.00    +0.000 C 
ATOM     27  F   UNL     1       1.475   8.266  17.335  0.00  0.00    +0.000 F 
ATOM     28  F   UNL     1      -0.028   9.832  17.384  0.00  0.00    +0.000 F 
ATOM     29  F   UNL     1       2.077  10.338  17.578  0.00  0.00    +0.000 F 
ENDBRANCH   6  26
TORSDOF 4
ENDMDL
MODEL 2
REMARK VINA RESULT:      -8.2      0.832      1.021
REMARK  Name = 
REMARK  4 active torsions:
REMARK  status: ('A' for Active; 'I' for Inactive)
REMARK    1  A    between atoms: C_2  and  C_19
REMARK    2  A    between atoms: N_3  and  C_4
REMARK    3  A    between atoms: C_7  and  N_8
REMARK    4  A    between atoms: C_14  and  C_15
REMARK                            x       y       z     vdW  Elec       q    Type
REMARK                         _______ _______ _______ _____ _____    ______ ____
ROOT
ATOM      1  C   UNL     1       1.436   8.561  20.507  0.00  0.00    +0.000 A 
ATOM      2  C   UNL     1       1.096   8.475  21.866  0.00  0.00    +0.000 A 
ATOM      3  C   UNL     1       0.362   9.495  22.526  0.00  0.00    +0.000 A 
ATOM      4  C   UNL     1      -0.055  10.641  21.839  0.00  0.00    +0.000 A 
ATOM      5  C   UNL     1       0.329  10.765  20.501  0.00  0.00    +0.000 A 
ATOM      6  C   UNL     1       1.041   9.733  19.823  0.00  0.00    +0.000 A 
ENDROOT
BRANCH   4   7
ATOM      7  N   UNL     1      -0.903  11.638  22.426  0.00  0.00    +0.000 N 
ATOM      8  C   UNL     1      -0.738  13.010  22.432  0.00  0.00    +0.000 A 
ATOM      9  C   UNL     1      -1.718  13.547  23.236  0.00  0.00    +0.000 A 
ATOM     10  C   UNL     1      -2.470  12.436  23.652  0.00  0.00    +0.000 A 
ATOM     11  N   UNL     1      -1.997  11.288  23.154  0.00  0.00    +0.000 NA
ENDBRANCH   4   7
BRANCH   1  14
ATOM     12  O   UNL     1       1.417   5.514  20.736  0.00  0.00    +0.000 OA
ATOM     13  C   UNL     1       2.175   6.155  20.010  0.00  0.00    +0.000 C 
ATOM     14  N   UNL     1       2.178   7.542  19.829  0.00  0.00    +0.000 N 
ATOM     15  H   UNL     1       2.798   7.843  19.071  0.00  0.00    +0.000 HD
BRANCH  13  16
ATOM     16  C   UNL     1       3.260   5.437  19.219  0.00  0.00    +0.000 A 
ATOM     17  C   UNL     1       4.105   4.506  19.802  0.00  0.00    +0.000 A 
ATOM     18  N   UNL     1       5.225   4.035  19.177  0.00  0.00    +0.000 NA
ATOM     19  C   UNL     1       5.518   4.563  17.977  0.00  0.00    +0.000 A 
ATOM     20  C   UNL     1       6.743   4.307  17.353  0.00  0.00    +0.000 A 
ATOM     21  C   UNL     1       7.109   4.943  16.163  0.00  0.00    +0.000 A 
ATOM     22  C   UNL     1       6.203   5.790  15.537  0.00  0.00    +0.000 A 
ATOM     23  C   UNL     1       4.953   6.014  16.118  0.00  0.00    +0.000 A 
ATOM     24  C   UNL     1       4.611   5.466  17.347  0.00  0.00    +0.000 A 
ATOM     25  N   UNL     1       3.465   5.873  17.945  0.00  0.00    +0.000 NA
ENDBRANCH  13  16
ENDBRANCH   1  14
BRANCH   6  26
ATOM     26  C   UNL     1       1.256   9.963  18.348  0.00  0.00    +0.000 C 
ATOM     27  F   UNL     1       0.381   9.295  17.542  0.00  0.00    +0.000 F 
ATOM     28  F   UNL     1       1.135  11.278  18.009  0.00  0.00    +0.000 F 
ATOM     29  F   UNL     1       2.497   9.586  17.935  0.00  0.00    +0.000 F 
ENDBRANCH   6  26
TORSDOF 4
ENDMDL
MODEL 3
REMARK VINA RESULT:      -8.1      2.621      9.120
REMARK  Name = 
REMARK  4 active torsions:
REMARK  status: ('A' for Active; 'I' for Inactive)
REMARK    1  A    between atoms: C_2  and  C_19
REMARK    2  A    between atoms: N_3  and  C_4
REMARK    3  A    between atoms: C_7  and  N_8
REMARK    4  A    between atoms: C_14  and  C_15
REMARK                            x       y       z     vdW  Elec       q    Type
REMARK                         _______ _______ _______ _____ _____    ______ ____
ROOT
ATOM      1  C   UNL     1       3.649   6.664  17.553  0.00  0.00    +0.000 A 
ATOM      2  C   UNL     1       4.532   7.372  16.723  0.00  0.00    +0.000 A 
ATOM      3  C   UNL     1       5.299   6.729  15.716  0.00  0.00    +0.000 A 
ATOM      4  C   UNL     1       5.206   5.349  15.511  0.00  0.00    +0.000 A 
ATOM      5  C   UNL     1       4.374   4.624  16.371  0.00  0.00    +0.000 A 
ATOM      6  C   UNL     1       3.579   5.264  17.365  0.00  0.00    +0.000 A 
ENDROOT
BRANCH   4   7
ATOM      7  N   UNL     1       5.863   4.674  14.429  0.00  0.00    +0.000 N 
ATOM      8  C   UNL     1       7.169   4.813  13.997  0.00  0.00    +0.000 A 
ATOM      9  C   UNL     1       7.309   4.076  12.842  0.00  0.00    +0.000 A 
ATOM     10  C   UNL     1       6.051   3.480  12.658  0.00  0.00    +0.000 A 
ATOM     11  N   UNL     1       5.183   3.820  13.618  0.00  0.00    +0.000 NA
ENDBRANCH   4   7
BRANCH   1  14
ATOM     12  O   UNL     1       1.682   9.001  17.479  0.00  0.00    +0.000 OA
ATOM     13  C   UNL     1       2.023   8.407  18.500  0.00  0.00    +0.000 C 
ATOM     14  N   UNL     1       2.871   7.297  18.574  0.00  0.00    +0.000 N 
ATOM     15  H   UNL     1       2.900   6.880  19.508  0.00  0.00    +0.000 HD
BRANCH  13  16
ATOM     16  C   UNL     1       1.533   8.887  19.860  0.00  0.00    +0.000 A 
ATOM     17  C   UNL     1       1.407   8.032  20.943  0.00  0.00    +0.000 A 
ATOM     18  N   UNL     1       0.748   8.385  22.088  0.00  0.00    +0.000 NA
ATOM     19  C   UNL     1       0.165   9.595  22.103  0.00  0.00    +0.000 A 
ATOM     20  C   UNL     1      -0.704   9.966  23.134  0.00  0.00    +0.000 A 
ATOM     21  C   UNL     1      -1.410  11.172  23.103  0.00  0.00    +0.000 A 
ATOM     22  C   UNL     1      -1.186  12.065  22.062  0.00  0.00    +0.000 A 
ATOM     23  C   UNL     1      -0.282  11.734  21.052  0.00  0.00    +0.000 A 
ATOM     24  C   UNL     1       0.355  10.501  21.018  0.00  0.00    +0.000 A 
ATOM     25  N   UNL     1       1.070  10.167  19.916  0.00  0.00    +0.000 NA
ENDBRANCH  13  16
ENDBRANCH   1  14
BRANCH   6  26
ATOM     26  C   UNL     1       2.635   4.359  18.114  0.00  0.00    +0.000 C 
ATOM     27  F   UNL     1       1.315   4.656  17.941  0.00  0.00    +0.000 F 
ATOM     28  F   UNL     1       2.767   3.054  17.739  0.00  0.00    +0.000 F 
ATOM     29  F   UNL     1       2.843   4.382  19.459  0.00  0.00    +0.000 F 
ENDBRANCH   6  26
TORSDOF 4
ENDMDL
MODEL 4
REMARK VINA RESULT:      -8.1      2.909      4.199
REMARK  Name = 
REMARK  4 active torsions:
REMARK  status: ('A' for Active; 'I' for Inactive)
REMARK    1  A    between atoms: C_2  and  C_19
REMARK    2  A    between atoms: N_3  and  C_4
REMARK    3  A    between atoms: C_7  and  N_8
REMARK    4  A    between atoms: C_14  and  C_15
REMARK                            x       y       z     vdW  Elec       q    Type
REMARK                         _______ _______ _______ _____ _____    ______ ____
ROOT
ATOM      1  C   UNL     1       0.703  10.096  19.769  0.00  0.00    +0.000 A 
ATOM      2  C   UNL     1       0.753  11.113  18.803  0.00  0.00    +0.000 A 
ATOM      3  C   UNL     1       0.035  12.329  18.951  0.00  0.00    +0.000 A 
ATOM      4  C   UNL     1      -0.761  12.563  20.077  0.00  0.00    +0.000 A 
ATOM      5  C   UNL     1      -0.865  11.533  21.017  0.00  0.00    +0.000 A 
ATOM      6  C   UNL     1      -0.126  10.321  20.892  0.00  0.00    +0.000 A 
ENDROOT
BRANCH   4   7
ATOM      7  N   UNL     1      -1.403  13.820  20.332  0.00  0.00    +0.000 N 
ATOM      8  C   UNL     1      -0.923  15.094  20.091  0.00  0.00    +0.000 A 
ATOM      9  C   UNL     1      -1.821  15.990  20.628  0.00  0.00    +0.000 A 
ATOM     10  C   UNL     1      -2.847  15.181  21.143  0.00  0.00    +0.000 A 
ATOM     11  N   UNL     1      -2.611  13.878  20.952  0.00  0.00    +0.000 NA
ENDBRANCH   4   7
BRANCH   1  14
ATOM     12  O   UNL     1       2.314   8.903  17.463  0.00  0.00    +0.000 OA
ATOM     13  C   UNL     1       2.097   8.334  18.531  0.00  0.00    +0.000 C 
ATOM     14  N   UNL     1       1.418   8.864  19.633  0.00  0.00    +0.000 N 
ATOM     15  H   UNL     1       1.481   8.268  20.463  0.00  0.00    +0.000 HD
BRANCH  13  16
ATOM     16  C   UNL     1       2.561   6.898  18.736  0.00  0.00    +0.000 A 
ATOM     17  C   UNL     1       3.392   6.255  17.832  0.00  0.00    +0.000 A 
ATOM     18  N   UNL     1       3.621   4.908  17.873  0.00  0.00    +0.000 NA
ATOM     19  C   UNL     1       2.952   4.206  18.803  0.00  0.00    +0.000 A 
ATOM     20  C   UNL     1       2.953   2.808  18.794  0.00  0.00    +0.000 A 
ATOM     21  C   UNL     1       2.167   2.066  19.680  0.00  0.00    +0.000 A 
ATOM     22  C   UNL     1       1.426   2.728  20.651  0.00  0.00    +0.000 A 
ATOM     23  C   UNL     1       1.455   4.123  20.709  0.00  0.00    +0.000 A 
ATOM     24  C   UNL     1       2.155   4.877  19.777  0.00  0.00    +0.000 A 
ATOM     25  N   UNL     1       1.990   6.223  19.772  0.00  0.00    +0.000 NA
ENDBRANCH  13  16
ENDBRANCH   1  14
BRANCH   6  26
ATOM     26  C   UNL     1      -0.244   9.373  22.059  0.00  0.00    +0.000 C 
ATOM     27  F   UNL     1       0.936   9.113  22.692  0.00  0.00    +0.000 F 
ATOM     28  F   UNL     1      -1.080   9.848  23.025  0.00  0.00    +0.000 F 
ATOM     29  F   UNL     1      -0.743   8.159  21.699  0.00  0.00    +0.000 F 
ENDBRANCH   6  26
TORSDOF 4
ENDMDL
MODEL 5
REMARK VINA RESULT:      -8.1      1.172      1.484
REMARK  Name = 
REMARK  4 active torsions:
REMARK  status: ('A' for Active; 'I' for Inactive)
REMARK    1  A    between atoms: C_2  and  C_19
REMARK    2  A    between atoms: N_3  and  C_4
REMARK    3  A    between atoms: C_7  and  N_8
REMARK    4  A    between atoms: C_14  and  C_15
REMARK                            x       y       z     vdW  Elec       q    Type
REMARK                         _______ _______ _______ _____ _____    ______ ____
ROOT
ATOM      1  C   UNL     1       1.206   8.871  20.687  0.00  0.00    +0.000 A 
ATOM      2  C   UNL     1       0.899   8.772  22.053  0.00  0.00    +0.000 A 
ATOM      3  C   UNL     1       0.169   9.780  22.736  0.00  0.00    +0.000 A 
ATOM      4  C   UNL     1      -0.276  10.925  22.067  0.00  0.00    +0.000 A 
ATOM      5  C   UNL     1       0.075  11.063  20.721  0.00  0.00    +0.000 A 
ATOM      6  C   UNL     1       0.782  10.043  20.020  0.00  0.00    +0.000 A 
ENDROOT
BRANCH   4   7
ATOM      7  N   UNL     1      -1.121  11.909  22.681  0.00  0.00    +0.000 N 
ATOM      8  C   UNL     1      -2.363  11.733  23.262  0.00  0.00    +0.000 A 
ATOM      9  C   UNL     1      -2.856  12.977  23.585  0.00  0.00    +0.000 A 
ATOM     10  C   UNL     1      -1.832  13.862  23.208  0.00  0.00    +0.000 A 
ATOM     11  N   UNL     1      -0.780  13.225  22.682  0.00  0.00    +0.000 NA
ENDBRANCH   4   7
BRANCH   1  14
ATOM     12  O   UNL     1       1.178   5.820  20.850  0.00  0.00    +0.000 OA
ATOM     13  C   UNL     1       1.935   6.474  20.136  0.00  0.00    +0.000 C 
ATOM     14  N   UNL     1       1.942   7.864  19.984  0.00  0.00    +0.000 N 
ATOM     15  H   UNL     1       2.560   8.179  19.231  0.00  0.00    +0.000 HD
BRANCH  13  16
ATOM     16  C   UNL     1       3.015   5.770  19.326  0.00  0.00    +0.000 A 
ATOM     17  C   UNL     1       3.448   4.488  19.630  0.00  0.00    +0.000 A 
ATOM     18  N   UNL     1       4.569   3.939  19.073  0.00  0.00    +0.000 NA
ATOM     19  C   UNL     1       5.285   4.723  18.250  0.00  0.00    +0.000 A 
ATOM     20  C   UNL     1       6.549   4.333  17.798  0.00  0.00    +0.000 A 
ATOM     21  C   UNL     1       7.354   5.188  17.039  0.00  0.00    +0.000 A 
ATOM     22  C   UNL     1       6.858   6.426  16.653  0.00  0.00    +0.000 A 
ATOM     23  C   UNL     1       5.575   6.809  17.049  0.00  0.00    +0.000 A 
ATOM     24  C   UNL     1       4.801   6.013  17.882  0.00  0.00    +0.000 A 
ATOM     25  N   UNL     1       3.649   6.523  18.384  0.00  0.00    +0.000 NA
ENDBRANCH  13  16
ENDBRANCH   1  14
BRANCH   6  26
ATOM     26  C   UNL     1       0.959  10.285  18.542  0.00  0.00    +0.000 C 
ATOM     27  F   UNL     1       0.583  11.528  18.126  0.00  0.00    +0.000 F 
ATOM     28  F   UNL     1       2.258  10.146  18.150  0.00  0.00    +0.000 F 
ATOM     29  F   UNL     1       0.246   9.411  17.780  0.00  0.00    +0.000 F 
ENDBRANCH   6  26
TORSDOF 4
ENDMDL
MODEL 6
REMARK VINA RESULT:      -8.0      2.907      4.187
REMARK  Name = 
REMARK  4 active torsions:
REMARK  status: ('A' for Active; 'I' for Inactive)
REMARK    1  A    between atoms: C_2  and  C_19
REMARK    2  A    between atoms: N_3  and  C_4
REMARK    3  A    between atoms: C_7  and  N_8
REMARK    4  A    between atoms: C_14  and  C_15
REMARK                            x       y       z     vdW  Elec       q    Type
REMARK                         _______ _______ _______ _____ _____    ______ ____
ROOT
ATOM      1  C   UNL     1       0.712  10.088  19.801  0.00  0.00    +0.000 A 
ATOM      2  C   UNL     1       0.775  11.129  18.861  0.00  0.00    +0.000 A 
ATOM      3  C   UNL     1       0.071  12.349  19.039  0.00  0.00    +0.000 A 
ATOM      4  C   UNL     1      -0.724  12.563  20.170  0.00  0.00    +0.000 A 
ATOM      5  C   UNL     1      -0.842  11.511  21.083  0.00  0.00    +0.000 A 
ATOM      6  C   UNL     1      -0.117  10.294  20.928  0.00  0.00    +0.000 A 
ENDROOT
BRANCH   4   7
ATOM      7  N   UNL     1      -1.352  13.821  20.456  0.00  0.00    +0.000 N 
ATOM      8  C   UNL     1      -2.629  14.054  20.933  0.00  0.00    +0.000 A 
ATOM      9  C   UNL     1      -2.842  15.414  20.914  0.00  0.00    +0.000 A 
ATOM     10  C   UNL     1      -1.628  15.947  20.451  0.00  0.00    +0.000 A 
ATOM     11  N   UNL     1      -0.723  14.996  20.192  0.00  0.00    +0.000 NA
ENDBRANCH   4   7
BRANCH   1  14
ATOM     12  O   UNL     1       2.352   8.956  17.485  0.00  0.00    +0.000 OA
ATOM     13  C   UNL     1       2.106   8.352  18.527  0.00  0.00    +0.000 C 
ATOM     14  N   UNL     1       1.413   8.852  19.635  0.00  0.00    +0.000 N 
ATOM     15  H   UNL     1       1.452   8.225  20.444  0.00  0.00    +0.000 HD
BRANCH  13  16
ATOM     16  C   UNL     1       2.547   6.904  18.690  0.00  0.00    +0.000 A 
ATOM     17  C   UNL     1       3.318   6.256  17.737  0.00  0.00    +0.000 A 
ATOM     18  N   UNL     1       3.518   4.903  17.748  0.00  0.00    +0.000 NA
ATOM     19  C   UNL     1       2.880   4.203  18.700  0.00  0.00    +0.000 A 
ATOM     20  C   UNL     1       2.849   2.805  18.671  0.00  0.00    +0.000 A 
ATOM     21  C   UNL     1       2.090   2.068  19.585  0.00  0.00    +0.000 A 
ATOM     22  C   UNL     1       1.413   2.732  20.599  0.00  0.00    +0.000 A 
ATOM     23  C   UNL     1       1.476   4.124  20.676  0.00  0.00    +0.000 A 
ATOM     24  C   UNL     1       2.147   4.877  19.721  0.00  0.00    +0.000 A 
ATOM     25  N   UNL     1       2.012   6.225  19.743  0.00  0.00    +0.000 NA
ENDBRANCH  13  16
ENDBRANCH   1  14
BRANCH   6  26
ATOM     26  C   UNL     1      -0.247   9.318  22.070  0.00  0.00    +0.000 C 
ATOM     27  F   UNL     1      -0.781   8.113  21.721  0.00  0.00    +0.000 F 
ATOM     28  F   UNL     1       0.958   9.032  22.642  0.00  0.00    +0.000 F 
ATOM     29  F   UNL     1      -1.033   9.791  23.076  0.00  0.00    +0.000 F 
ENDBRANCH   6  26
TORSDOF 4
ENDMDL
MODEL 7
REMARK VINA RESULT:      -8.0      2.754      3.758
REMARK  Name = 
REMARK  4 active torsions:
REMARK  status: ('A' for Active; 'I' for Inactive)
REMARK    1  A    between atoms: C_2  and  C_19
REMARK    2  A    between atoms: N_3  and  C_4
REMARK    3  A    between atoms: C_7  and  N_8
REMARK    4  A    between atoms: C_14  and  C_15
REMARK                            x       y       z     vdW  Elec       q    Type
REMARK                         _______ _______ _______ _____ _____    ______ ____
ROOT
ATOM      1  C   UNL     1       0.685   9.990  19.690  0.00  0.00    +0.000 A 
ATOM      2  C   UNL     1       0.604  11.091  18.823  0.00  0.00    +0.000 A 
ATOM      3  C   UNL     1      -0.189  12.230  19.125  0.00  0.00    +0.000 A 
ATOM      4  C   UNL     1      -0.929  12.299  20.310  0.00  0.00    +0.000 A 
ATOM      5  C   UNL     1      -0.902  11.184  21.153  0.00  0.00    +0.000 A 
ATOM      6  C   UNL     1      -0.088  10.048  20.873  0.00  0.00    +0.000 A 
ENDROOT
BRANCH   4   7
ATOM      7  N   UNL     1      -1.642  13.475  20.717  0.00  0.00    +0.000 N 
ATOM      8  C   UNL     1      -2.800  13.561  21.467  0.00  0.00    +0.000 A 
ATOM      9  C   UNL     1      -3.194  14.880  21.483  0.00  0.00    +0.000 A 
ATOM     10  C   UNL     1      -2.197  15.546  20.752  0.00  0.00    +0.000 A 
ATOM     11  N   UNL     1      -1.252  14.711  20.305  0.00  0.00    +0.000 NA
ENDBRANCH   4   7
BRANCH   1  14
ATOM     12  O   UNL     1       2.332   9.195  17.243  0.00  0.00    +0.000 OA
ATOM     13  C   UNL     1       2.170   8.487  18.235  0.00  0.00    +0.000 C 
ATOM     14  N   UNL     1       1.477   8.833  19.400  0.00  0.00    +0.000 N 
ATOM     15  H   UNL     1       1.592   8.147  20.150  0.00  0.00    +0.000 HD
BRANCH  13  16
ATOM     16  C   UNL     1       2.730   7.071  18.261  0.00  0.00    +0.000 A 
ATOM     17  C   UNL     1       3.918   6.736  17.629  0.00  0.00    +0.000 A 
ATOM     18  N   UNL     1       4.309   5.440  17.437  0.00  0.00    +0.000 NA
ATOM     19  C   UNL     1       3.456   4.483  17.837  0.00  0.00    +0.000 A 
ATOM     20  C   UNL     1       3.664   3.142  17.499  0.00  0.00    +0.000 A 
ATOM     21  C   UNL     1       2.724   2.153  17.806  0.00  0.00    +0.000 A 
ATOM     22  C   UNL     1       1.592   2.492  18.535  0.00  0.00    +0.000 A 
ATOM     23  C   UNL     1       1.396   3.817  18.928  0.00  0.00    +0.000 A 
ATOM     24  C   UNL     1       2.270   4.827  18.550  0.00  0.00    +0.000 A 
ATOM     25  N   UNL     1       1.924   6.114  18.799  0.00  0.00    +0.000 NA
ENDBRANCH  13  16
ENDBRANCH   1  14
BRANCH   6  26
ATOM     26  C   UNL     1      -0.065   8.993  21.949  0.00  0.00    +0.000 C 
ATOM     27  F   UNL     1       1.185   8.646  22.371  0.00  0.00    +0.000 F 
ATOM     28  F   UNL     1      -0.733   9.387  23.071  0.00  0.00    +0.000 F 
ATOM     29  F   UNL     1      -0.655   7.831  21.555  0.00  0.00    +0.000 F 
ENDBRANCH   6  26
TORSDOF 4
ENDMDL
MODEL 8
REMARK VINA RESULT:      -8.0      2.848      4.211
REMARK  Name = 
REMARK  4 active torsions:
REMARK  status: ('A' for Active; 'I' for Inactive)
REMARK    1  A    between atoms: C_2  and  C_19
REMARK    2  A    between atoms: N_3  and  C_4
REMARK    3  A    between atoms: C_7  and  N_8
REMARK    4  A    between atoms: C_14  and  C_15
REMARK                            x       y       z     vdW  Elec       q    Type
REMARK                         _______ _______ _______ _____ _____    ______ ____
ROOT
ATOM      1  C   UNL     1       3.241   6.967  18.118  0.00  0.00    +0.000 A 
ATOM      2  C   UNL     1       2.764   8.244  17.783  0.00  0.00    +0.000 A 
ATOM      3  C   UNL     1       1.876   8.962  18.627  0.00  0.00    +0.000 A 
ATOM      4  C   UNL     1       1.436   8.418  19.838  0.00  0.00    +0.000 A 
ATOM      5  C   UNL     1       1.858   7.123  20.154  0.00  0.00    +0.000 A 
ATOM      6  C   UNL     1       2.771   6.406  19.328  0.00  0.00    +0.000 A 
ENDROOT
BRANCH   4   7
ATOM      7  N   UNL     1       0.642   9.152  20.781  0.00  0.00    +0.000 N 
ATOM      8  C   UNL     1      -0.205  10.218  20.544  0.00  0.00    +0.000 A 
ATOM      9  C   UNL     1      -0.638  10.690  21.763  0.00  0.00    +0.000 A 
ATOM     10  C   UNL     1      -0.041   9.829  22.697  0.00  0.00    +0.000 A 
ATOM     11  N   UNL     1       0.714   8.891  22.113  0.00  0.00    +0.000 NA
ENDBRANCH   4   7
BRANCH   1  14
ATOM     12  O   UNL     1       6.283   6.684  18.107  0.00  0.00    +0.000 OA
ATOM     13  C   UNL     1       5.532   6.176  17.277  0.00  0.00    +0.000 C 
ATOM     14  N   UNL     1       4.134   6.229  17.277  0.00  0.00    +0.000 N 
ATOM     15  H   UNL     1       3.712   5.617  16.573  0.00  0.00    +0.000 HD
BRANCH  13  16
ATOM     16  C   UNL     1       6.110   5.422  16.087  0.00  0.00    +0.000 A 
ATOM     17  C   UNL     1       7.401   5.639  15.632  0.00  0.00    +0.000 A 
ATOM     18  N   UNL     1       7.851   5.156  14.435  0.00  0.00    +0.000 NA
ATOM     19  C   UNL     1       6.961   4.500  13.673  0.00  0.00    +0.000 A 
ATOM     20  C   UNL     1       7.259   4.152  12.351  0.00  0.00    +0.000 A 
ATOM     21  C   UNL     1       6.302   3.577  11.509  0.00  0.00    +0.000 A 
ATOM     22  C   UNL     1       5.047   3.267  12.017  0.00  0.00    +0.000 A 
ATOM     23  C   UNL     1       4.751   3.558  13.350  0.00  0.00    +0.000 A 
ATOM     24  C   UNL     1       5.656   4.215  14.172  0.00  0.00    +0.000 A 
ATOM     25  N   UNL     1       5.241   4.637  15.391  0.00  0.00    +0.000 NA
ENDBRANCH  13  16
ENDBRANCH   1  14
BRANCH   6  26
ATOM     26  C   UNL     1       3.233   5.081  19.880  0.00  0.00    +0.000 C 
ATOM     27  F   UNL     1       2.952   4.011  19.082  0.00  0.00    +0.000 F 
ATOM     28  F   UNL     1       4.582   5.047  20.074  0.00  0.00    +0.000 F 
ATOM     29  F   UNL     1       2.676   4.795  21.088  0.00  0.00    +0.000 F 
ENDBRANCH   6  26
TORSDOF 4
ENDMDL
MODEL 9
REMARK VINA RESULT:      -8.0      2.785      3.783
REMARK  Name = 
REMARK  4 active torsions:
REMARK  status: ('A' for Active; 'I' for Inactive)
REMARK    1  A    between atoms: C_2  and  C_19
REMARK    2  A    between atoms: N_3  and  C_4
REMARK    3  A    between atoms: C_7  and  N_8
REMARK    4  A    between atoms: C_14  and  C_15
REMARK                            x       y       z     vdW  Elec       q    Type
REMARK                         _______ _______ _______ _____ _____    ______ ____
ROOT
ATOM      1  C   UNL     1       0.749  10.039  19.731  0.00  0.00    +0.000 A 
ATOM      2  C   UNL     1       0.689  11.166  18.897  0.00  0.00    +0.000 A 
ATOM      3  C   UNL     1      -0.092  12.306  19.224  0.00  0.00    +0.000 A 
ATOM      4  C   UNL     1      -0.841  12.350  20.405  0.00  0.00    +0.000 A 
ATOM      5  C   UNL     1      -0.836  11.211  21.214  0.00  0.00    +0.000 A 
ATOM      6  C   UNL     1      -0.034  10.074  20.909  0.00  0.00    +0.000 A 
ENDROOT
BRANCH   4   7
ATOM      7  N   UNL     1      -1.544  13.523  20.840  0.00  0.00    +0.000 N 
ATOM      8  C   UNL     1      -1.432  14.817  20.365  0.00  0.00    +0.000 A 
ATOM      9  C   UNL     1      -2.189  15.630  21.178  0.00  0.00    +0.000 A 
ATOM     10  C   UNL     1      -2.768  14.747  22.105  0.00  0.00    +0.000 A 
ATOM     11  N   UNL     1      -2.399  13.478  21.895  0.00  0.00    +0.000 NA
ENDBRANCH   4   7
BRANCH   1  14
ATOM     12  O   UNL     1       2.293   9.233  17.222  0.00  0.00    +0.000 OA
ATOM     13  C   UNL     1       2.173   8.530  18.224  0.00  0.00    +0.000 C 
ATOM     14  N   UNL     1       1.528   8.882  19.414  0.00  0.00    +0.000 N 
ATOM     15  H   UNL     1       1.675   8.199  20.163  0.00  0.00    +0.000 HD
BRANCH  13  16
ATOM     16  C   UNL     1       2.734   7.115  18.233  0.00  0.00    +0.000 A 
ATOM     17  C   UNL     1       3.903   6.780  17.566  0.00  0.00    +0.000 A 
ATOM     18  N   UNL     1       4.289   5.484  17.363  0.00  0.00    +0.000 NA
ATOM     19  C   UNL     1       3.449   4.526  17.789  0.00  0.00    +0.000 A 
ATOM     20  C   UNL     1       3.647   3.186  17.445  0.00  0.00    +0.000 A 
ATOM     21  C   UNL     1       2.718   2.196  17.780  0.00  0.00    +0.000 A 
ATOM     22  C   UNL     1       1.608   2.534  18.543  0.00  0.00    +0.000 A 
ATOM     23  C   UNL     1       1.422   3.860  18.940  0.00  0.00    +0.000 A 
ATOM     24  C   UNL     1       2.284   4.870  18.537  0.00  0.00    +0.000 A 
ATOM     25  N   UNL     1       1.945   6.157  18.795  0.00  0.00    +0.000 NA
ENDBRANCH  13  16
ENDBRANCH   1  14
BRANCH   6  26
ATOM     26  C   UNL     1      -0.034   8.987  21.954  0.00  0.00    +0.000 C 
ATOM     27  F   UNL     1      -0.658   9.326  23.118  0.00  0.00    +0.000 F 
ATOM     28  F   UNL     1      -0.661   7.856  21.520  0.00  0.00    +0.000 F 
ATOM     29  F   UNL     1       1.222   8.602  22.309  0.00  0.00    +0.000 F 
ENDBRANCH   6  26
TORSDOF 4
ENDMDL
