MODEL 1
REMARK VINA RESULT:      -6.3      0.000      0.000
REMARK  Name = 
REMARK  6 active torsions:
REMARK  status: ('A' for Active; 'I' for Inactive)
REMARK    1  A    between atoms: C_1  and  C_2
REMARK    2  A    between atoms: C_2  and  C_3
REMARK    3  A    between atoms: C_6  and  C_8
REMARK    4  A    between atoms: C_16  and  C_17
REMARK    5  A    between atoms: N_21  and  C_22
REMARK    6  A    between atoms: C_22  and  C_23
REMARK                            x       y       z     vdW  Elec       q    Type
REMARK                         _______ _______ _______ _____ _____    ______ ____
ROOT
ATOM      1  C   UNL     1       2.333  12.475  17.988  0.00  0.00    +0.000 C 
ATOM      2  C   UNL     1       1.765  13.509  18.961  0.00  0.00    +0.000 C 
ATOM      3  C   UNL     1       2.321  14.899  18.610  0.00  0.00    +0.000 C 
ATOM      4  C   UNL     1       1.952  13.256  20.469  0.00  0.00    +0.000 C 
ATOM      5  N   UNL     1       0.510  13.449  20.619  0.00  0.00    +0.000 N 
ATOM      6  C   UNL     1      -0.193  13.822  21.742  0.00  0.00    +0.000 C 
ATOM      7  O   UNL     1       0.420  13.983  22.803  0.00  0.00    +0.000 OA
ATOM      8  C   UNL     1       0.217  13.453  19.200  0.00  0.00    +0.000 C 
ENDROOT
BRANCH   6   9
ATOM      9  C   UNL     1      -1.752  14.031  21.626  0.00  0.00    +0.000 C 
ATOM     10  C   UNL     1      -2.098  15.104  20.593  0.00  0.00    +0.000 C 
ATOM     11  C   UNL     1      -3.258  15.876  21.191  0.00  0.00    +0.000 C 
ATOM     12  C   UNL     1      -3.071  15.752  22.688  0.00  0.00    +0.000 C 
ATOM     13  N   UNL     1      -2.303  14.529  22.940  0.00  0.00    +0.000 NA
ATOM     14  C   UNL     1      -3.117  13.456  23.524  0.00  0.00    +0.000 C 
ATOM     15  C   UNL     1      -3.689  12.715  22.342  0.00  0.00    +0.000 C 
ATOM     16  C   UNL     1      -2.510  12.718  21.400  0.00  0.00    +0.000 C 
ENDBRANCH   6   9
BRANCH   8  17
ATOM     17  C   UNL     1      -0.517  12.199  18.685  0.00  0.00    +0.000 A 
ATOM     18  N   UNL     1      -1.483  12.361  17.800  0.00  0.00    +0.000 NA
ATOM     19  C   UNL     1      -2.087  11.150  17.650  0.00  0.00    +0.000 A 
ATOM     20  C   UNL     1      -1.486  10.217  18.460  0.00  0.00    +0.000 A 
ATOM     21  N   UNL     1      -0.436  10.870  19.068  0.00  0.00    +0.000 N 
BRANCH  21  22
ATOM     22  C   UNL     1       0.383  10.229  20.097  0.00  0.00    +0.000 C 
BRANCH  22  23
ATOM     23  C   UNL     1       1.269   9.102  19.617  0.00  0.00    +0.000 A 
ATOM     24  C   UNL     1       1.824   9.042  18.332  0.00  0.00    +0.000 A 
ATOM     25  C   UNL     1       2.521   7.906  17.908  0.00  0.00    +0.000 A 
ATOM     26  C   UNL     1       2.695   6.836  18.772  0.00  0.00    +0.000 A 
ATOM     27  C   UNL     1       2.203   6.902  20.073  0.00  0.00    +0.000 A 
ATOM     28  C   UNL     1       1.494   8.026  20.493  0.00  0.00    +0.000 A 
ENDBRANCH  22  23
ENDBRANCH  21  22
ENDBRANCH   8  17
TORSDOF 4
ENDMDL
MODEL 2
REMARK VINA RESULT:      -6.1      2.035      3.713
REMARK  Name = 
REMARK  6 active torsions:
REMARK  status: ('A' for Active; 'I' for Inactive)
REMARK    1  A    between atoms: C_1  and  C_2
REMARK    2  A    between atoms: C_2  and  C_3
REMARK    3  A    between atoms: C_6  and  C_8
REMARK    4  A    between atoms: C_16  and  C_17
REMARK    5  A    between atoms: N_21  and  C_22
REMARK    6  A    between atoms: C_22  and  C_23
REMARK                            x       y       z     vdW  Elec       q    Type
REMARK                         _______ _______ _______ _____ _____    ______ ____
ROOT
ATOM      1  C   UNL     1      -0.632   8.476  21.658  0.00  0.00    +0.000 C 
ATOM      2  C   UNL     1       0.039   9.764  22.137  0.00  0.00    +0.000 C 
ATOM      3  C   UNL     1       1.160   9.415  23.130  0.00  0.00    +0.000 C 
ATOM      4  C   UNL     1      -0.856  10.858  22.749  0.00  0.00    +0.000 C 
ATOM      5  N   UNL     1      -0.251  11.797  21.806  0.00  0.00    +0.000 N 
ATOM      6  C   UNL     1      -0.150  13.166  21.905  0.00  0.00    +0.000 C 
ATOM      7  O   UNL     1      -0.662  13.734  22.875  0.00  0.00    +0.000 OA
ATOM      8  C   UNL     1       0.436  10.791  21.021  0.00  0.00    +0.000 C 
ENDROOT
BRANCH   6   9
ATOM      9  C   UNL     1       0.619  13.953  20.775  0.00  0.00    +0.000 C 
ATOM     10  C   UNL     1       2.041  13.422  20.590  0.00  0.00    +0.000 C 
ATOM     11  C   UNL     1       2.898  14.649  20.346  0.00  0.00    +0.000 C 
ATOM     12  C   UNL     1       2.183  15.768  21.074  0.00  0.00    +0.000 C 
ATOM     13  N   UNL     1       0.767  15.403  21.167  0.00  0.00    +0.000 NA
ATOM     14  C   UNL     1      -0.086  16.201  20.278  0.00  0.00    +0.000 C 
ATOM     15  C   UNL     1      -0.098  15.448  18.972  0.00  0.00    +0.000 C 
ATOM     16  C   UNL     1      -0.168  14.021  19.461  0.00  0.00    +0.000 C 
ENDBRANCH   6   9
BRANCH   8  17
ATOM     17  C   UNL     1      -0.154  10.548  19.617  0.00  0.00    +0.000 A 
ATOM     18  N   UNL     1      -1.464  10.613  19.471  0.00  0.00    +0.000 NA
ATOM     19  C   UNL     1      -1.742  10.184  18.209  0.00  0.00    +0.000 A 
ATOM     20  C   UNL     1      -0.581   9.842  17.559  0.00  0.00    +0.000 A 
ATOM     21  N   UNL     1       0.440  10.142  18.434  0.00  0.00    +0.000 N 
BRANCH  21  22
ATOM     22  C   UNL     1       1.834   9.813  18.138  0.00  0.00    +0.000 C 
BRANCH  22  23
ATOM     23  C   UNL     1       2.245   8.388  18.434  0.00  0.00    +0.000 A 
ATOM     24  C   UNL     1       1.906   7.710  19.612  0.00  0.00    +0.000 A 
ATOM     25  C   UNL     1       2.433   6.443  19.883  0.00  0.00    +0.000 A 
ATOM     26  C   UNL     1       3.276   5.832  18.968  0.00  0.00    +0.000 A 
ATOM     27  C   UNL     1       3.577   6.464  17.765  0.00  0.00    +0.000 A 
ATOM     28  C   UNL     1       3.067   7.734  17.499  0.00  0.00    +0.000 A 
ENDBRANCH  22  23
ENDBRANCH  21  22
ENDBRANCH   8  17
TORSDOF 4
ENDMDL
MODEL 3
REMARK VINA RESULT:      -6.1      1.963      3.515
REMARK  Name = 
REMARK  6 active torsions:
REMARK  status: ('A' for Active; 'I' for Inactive)
REMARK    1  A    between atoms: C_1  and  C_2
REMARK    2  A    between atoms: C_2  and  C_3
REMARK    3  A    between atoms: C_6  and  C_8
REMARK    4  A    between atoms: C_16  and  C_17
REMARK    5  A    between atoms: N_21  and  C_22
REMARK    6  A    between atoms: C_22  and  C_23
REMARK                            x       y       z     vdW  Elec       q    Type
REMARK                         _______ _______ _______ _____ _____    ______ ____
ROOT
ATOM      1  C   UNL     1       2.499  13.241  19.973  0.00  0.00    +0.000 C 
ATOM      2  C   UNL     1       1.327  14.140  20.368  0.00  0.00    +0.000 C 
ATOM      3  C   UNL     1       1.232  15.316  19.381  0.00  0.00    +0.000 C 
ATOM      4  C   UNL     1       1.290  14.684  21.808  0.00  0.00    +0.000 C 
ATOM      5  N   UNL     1      -0.071  14.161  21.908  0.00  0.00    +0.000 N 
ATOM      6  C   UNL     1      -1.084  14.560  22.751  0.00  0.00    +0.000 C 
ATOM      7  O   UNL     1      -0.852  15.441  23.586  0.00  0.00    +0.000 OA
ATOM      8  C   UNL     1      -0.030  13.413  20.668  0.00  0.00    +0.000 C 
ENDROOT
BRANCH   6   9
ATOM      9  C   UNL     1      -2.498  13.876  22.614  0.00  0.00    +0.000 C 
ATOM     10  C   UNL     1      -2.999  13.910  21.170  0.00  0.00    +0.000 C 
ATOM     11  C   UNL     1      -4.486  14.188  21.269  0.00  0.00    +0.000 C 
ATOM     12  C   UNL     1      -4.645  14.978  22.550  0.00  0.00    +0.000 C 
ATOM     13  N   UNL     1      -3.518  14.638  23.424  0.00  0.00    +0.000 NA
ATOM     14  C   UNL     1      -3.913  13.797  24.560  0.00  0.00    +0.000 C 
ATOM     15  C   UNL     1      -3.797  12.381  24.055  0.00  0.00    +0.000 C 
ATOM     16  C   UNL     1      -2.538  12.471  23.227  0.00  0.00    +0.000 C 
ENDBRANCH   6   9
BRANCH   8  17
ATOM     17  C   UNL     1       0.029  11.882  20.833  0.00  0.00    +0.000 A 
ATOM     18  N   UNL     1       0.304  11.394  22.029  0.00  0.00    +0.000 NA
ATOM     19  C   UNL     1       0.482  10.053  21.876  0.00  0.00    +0.000 A 
ATOM     20  C   UNL     1       0.317   9.700  20.558  0.00  0.00    +0.000 A 
ATOM     21  N   UNL     1      -0.042  10.858  19.903  0.00  0.00    +0.000 N 
BRANCH  21  22
ATOM     22  C   UNL     1      -0.200  10.908  18.450  0.00  0.00    +0.000 C 
BRANCH  22  23
ATOM     23  C   UNL     1      -1.616  10.765  17.941  0.00  0.00    +0.000 A 
ATOM     24  C   UNL     1      -1.974   9.954  16.856  0.00  0.00    +0.000 A 
ATOM     25  C   UNL     1      -3.278   9.973  16.351  0.00  0.00    +0.000 A 
ATOM     26  C   UNL     1      -4.240  10.777  16.942  0.00  0.00    +0.000 A 
ATOM     27  C   UNL     1      -3.919  11.544  18.058  0.00  0.00    +0.000 A 
ATOM     28  C   UNL     1      -2.616  11.540  18.554  0.00  0.00    +0.000 A 
ENDBRANCH  22  23
ENDBRANCH  21  22
ENDBRANCH   8  17
TORSDOF 4
ENDMDL
MODEL 4
REMARK VINA RESULT:      -6.0      0.533      1.054
REMARK  Name = 
REMARK  6 active torsions:
REMARK  status: ('A' for Active; 'I' for Inactive)
REMARK    1  A    between atoms: C_1  and  C_2
REMARK    2  A    between atoms: C_2  and  C_3
REMARK    3  A    between atoms: C_6  and  C_8
REMARK    4  A    between atoms: C_16  and  C_17
REMARK    5  A    between atoms: N_21  and  C_22
REMARK    6  A    between atoms: C_22  and  C_23
REMARK                            x       y       z     vdW  Elec       q    Type
REMARK                         _______ _______ _______ _____ _____    ______ ____
ROOT
ATOM      1  C   UNL     1       1.911  13.043  18.108  0.00  0.00    +0.000 C 
ATOM      2  C   UNL     1       1.268  14.005  19.107  0.00  0.00    +0.000 C 
ATOM      3  C   UNL     1       1.625  15.451  18.725  0.00  0.00    +0.000 C 
ATOM      4  C   UNL     1       1.563  13.791  20.604  0.00  0.00    +0.000 C 
ATOM      5  N   UNL     1       0.118  13.802  20.829  0.00  0.00    +0.000 N 
ATOM      6  C   UNL     1      -0.567  14.093  21.987  0.00  0.00    +0.000 C 
ATOM      7  O   UNL     1       0.074  14.340  23.014  0.00  0.00    +0.000 OA
ATOM      8  C   UNL     1      -0.246  13.757  19.428  0.00  0.00    +0.000 C 
ENDROOT
BRANCH   6   9
ATOM      9  C   UNL     1      -2.144  14.103  21.952  0.00  0.00    +0.000 C 
ATOM     10  C   UNL     1      -2.675  15.075  20.897  0.00  0.00    +0.000 C 
ATOM     11  C   UNL     1      -3.890  15.725  21.529  0.00  0.00    +0.000 C 
ATOM     12  C   UNL     1      -3.611  15.698  23.017  0.00  0.00    +0.000 C 
ATOM     13  N   UNL     1      -2.684  14.592  23.273  0.00  0.00    +0.000 NA
ATOM     14  C   UNL     1      -3.326  13.456  23.947  0.00  0.00    +0.000 C 
ATOM     15  C   UNL     1      -3.861  12.595  22.832  0.00  0.00    +0.000 C 
ATOM     16  C   UNL     1      -2.742  12.697  21.824  0.00  0.00    +0.000 C 
ENDBRANCH   6   9
BRANCH   8  17
ATOM     17  C   UNL     1      -0.841  12.415  18.954  0.00  0.00    +0.000 A 
ATOM     18  N   UNL     1      -1.949  12.443  18.238  0.00  0.00    +0.000 NA
ATOM     19  C   UNL     1      -2.366  11.153  18.107  0.00  0.00    +0.000 A 
ATOM     20  C   UNL     1      -1.502  10.308  18.759  0.00  0.00    +0.000 A 
ATOM     21  N   UNL     1      -0.488  11.107  19.239  0.00  0.00    +0.000 N 
BRANCH  21  22
ATOM     22  C   UNL     1       0.577  10.578  20.091  0.00  0.00    +0.000 C 
BRANCH  22  23
ATOM     23  C   UNL     1       1.253   9.323  19.588  0.00  0.00    +0.000 A 
ATOM     24  C   UNL     1       1.447   8.177  20.371  0.00  0.00    +0.000 A 
ATOM     25  C   UNL     1       2.200   7.102  19.889  0.00  0.00    +0.000 A 
ATOM     26  C   UNL     1       2.740   7.150  18.613  0.00  0.00    +0.000 A 
ATOM     27  C   UNL     1       2.508   8.254  17.798  0.00  0.00    +0.000 A 
ATOM     28  C   UNL     1       1.771   9.334  18.282  0.00  0.00    +0.000 A 
ENDBRANCH  22  23
ENDBRANCH  21  22
ENDBRANCH   8  17
TORSDOF 4
ENDMDL
MODEL 5
REMARK VINA RESULT:      -5.9      2.577      5.969
REMARK  Name = 
REMARK  6 active torsions:
REMARK  status: ('A' for Active; 'I' for Inactive)
REMARK    1  A    between atoms: C_1  and  C_2
REMARK    2  A    between atoms: C_2  and  C_3
REMARK    3  A    between atoms: C_6  and  C_8
REMARK    4  A    between atoms: C_16  and  C_17
REMARK    5  A    between atoms: N_21  and  C_22
REMARK    6  A    between atoms: C_22  and  C_23
REMARK                            x       y       z     vdW  Elec       q    Type
REMARK                         _______ _______ _______ _____ _____    ______ ____
ROOT
ATOM      1  C   UNL     1       0.806  12.507  19.231  0.00  0.00    +0.000 C 
ATOM      2  C   UNL     1      -0.495  12.009  19.861  0.00  0.00    +0.000 C 
ATOM      3  C   UNL     1      -0.437  10.479  20.008  0.00  0.00    +0.000 C 
ATOM      4  C   UNL     1      -1.820  12.401  19.180  0.00  0.00    +0.000 C 
ATOM      5  N   UNL     1      -2.274  12.892  20.481  0.00  0.00    +0.000 N 
ATOM      6  C   UNL     1      -3.563  13.061  20.932  0.00  0.00    +0.000 C 
ATOM      7  O   UNL     1      -4.500  12.826  20.161  0.00  0.00    +0.000 OA
ATOM      8  C   UNL     1      -0.985  12.781  21.134  0.00  0.00    +0.000 C 
ENDROOT
BRANCH   6   9
ATOM      9  C   UNL     1      -3.790  13.545  22.415  0.00  0.00    +0.000 C 
ATOM     10  C   UNL     1      -3.201  12.558  23.424  0.00  0.00    +0.000 C 
ATOM     11  C   UNL     1      -4.195  12.512  24.567  0.00  0.00    +0.000 C 
ATOM     12  C   UNL     1      -5.531  12.829  23.928  0.00  0.00    +0.000 C 
ATOM     13  N   UNL     1      -5.268  13.609  22.715  0.00  0.00    +0.000 NA
ATOM     14  C   UNL     1      -5.640  15.022  22.856  0.00  0.00    +0.000 C 
ATOM     15  C   UNL     1      -4.411  15.694  23.413  0.00  0.00    +0.000 C 
ATOM     16  C   UNL     1      -3.320  14.986  22.646  0.00  0.00    +0.000 C 
ENDBRANCH   6   9
BRANCH   8  17
ATOM     17  C   UNL     1      -0.292  14.125  21.436  0.00  0.00    +0.000 A 
ATOM     18  N   UNL     1       0.347  14.253  22.584  0.00  0.00    +0.000 NA
ATOM     19  C   UNL     1       0.703  15.562  22.693  0.00  0.00    +0.000 A 
ATOM     20  C   UNL     1       0.274  16.263  21.592  0.00  0.00    +0.000 A 
ATOM     21  N   UNL     1      -0.299  15.331  20.755  0.00  0.00    +0.000 N 
BRANCH  21  22
ATOM     22  C   UNL     1      -0.975  15.715  19.516  0.00  0.00    +0.000 C 
BRANCH  22  23
ATOM     23  C   UNL     1      -0.147  16.524  18.544  0.00  0.00    +0.000 A 
ATOM     24  C   UNL     1       1.236  16.370  18.385  0.00  0.00    +0.000 A 
ATOM     25  C   UNL     1       1.962  17.243  17.568  0.00  0.00    +0.000 A 
ATOM     26  C   UNL     1       1.310  18.257  16.884  0.00  0.00    +0.000 A 
ATOM     27  C   UNL     1      -0.072  18.389  16.983  0.00  0.00    +0.000 A 
ATOM     28  C   UNL     1      -0.797  17.530  17.808  0.00  0.00    +0.000 A 
ENDBRANCH  22  23
ENDBRANCH  21  22
ENDBRANCH   8  17
TORSDOF 4
ENDMDL
MODEL 6
REMARK VINA RESULT:      -5.9      1.904      3.657
REMARK  Name = 
REMARK  6 active torsions:
REMARK  status: ('A' for Active; 'I' for Inactive)
REMARK    1  A    between atoms: C_1  and  C_2
REMARK    2  A    between atoms: C_2  and  C_3
REMARK    3  A    between atoms: C_6  and  C_8
REMARK    4  A    between atoms: C_16  and  C_17
REMARK    5  A    between atoms: N_21  and  C_22
REMARK    6  A    between atoms: C_22  and  C_23
REMARK                            x       y       z     vdW  Elec       q    Type
REMARK                         _______ _______ _______ _____ _____    ______ ____
ROOT
ATOM      1  C   UNL     1       2.171  12.659  19.356  0.00  0.00    +0.000 C 
ATOM      2  C   UNL     1       1.089  13.635  19.819  0.00  0.00    +0.000 C 
ATOM      3  C   UNL     1       0.937  14.758  18.779  0.00  0.00    +0.000 C 
ATOM      4  C   UNL     1       1.235  14.260  21.219  0.00  0.00    +0.000 C 
ATOM      5  N   UNL     1      -0.128  13.811  21.497  0.00  0.00    +0.000 N 
ATOM      6  C   UNL     1      -1.023  14.305  22.418  0.00  0.00    +0.000 C 
ATOM      7  O   UNL     1      -0.664  15.220  23.167  0.00  0.00    +0.000 OA
ATOM      8  C   UNL     1      -0.255  12.994  20.307  0.00  0.00    +0.000 C 
ENDROOT
BRANCH   6   9
ATOM      9  C   UNL     1      -2.472  13.685  22.475  0.00  0.00    +0.000 C 
ATOM     10  C   UNL     1      -3.122  13.650  21.091  0.00  0.00    +0.000 C 
ATOM     11  C   UNL     1      -4.577  14.007  21.324  0.00  0.00    +0.000 C 
ATOM     12  C   UNL     1      -4.565  14.886  22.556  0.00  0.00    +0.000 C 
ATOM     13  N   UNL     1      -3.367  14.548  23.330  0.00  0.00    +0.000 NA
ATOM     14  C   UNL     1      -3.674  13.804  24.558  0.00  0.00    +0.000 C 
ATOM     15  C   UNL     1      -3.674  12.354  24.144  0.00  0.00    +0.000 C 
ATOM     16  C   UNL     1      -2.507  12.327  23.186  0.00  0.00    +0.000 C 
ENDBRANCH   6   9
BRANCH   8  17
ATOM     17  C   UNL     1      -0.244  11.473  20.558  0.00  0.00    +0.000 A 
ATOM     18  N   UNL     1       0.042  11.043  21.773  0.00  0.00    +0.000 NA
ATOM     19  C   UNL     1       0.171   9.690  21.693  0.00  0.00    +0.000 A 
ATOM     20  C   UNL     1      -0.036   9.271  20.401  0.00  0.00    +0.000 A 
ATOM     21  N   UNL     1      -0.372  10.401  19.690  0.00  0.00    +0.000 N 
BRANCH  21  22
ATOM     22  C   UNL     1      -0.562  10.376  18.239  0.00  0.00    +0.000 C 
BRANCH  22  23
ATOM     23  C   UNL     1      -1.947  10.740  17.756  0.00  0.00    +0.000 A 
ATOM     24  C   UNL     1      -2.915  11.356  18.560  0.00  0.00    +0.000 A 
ATOM     25  C   UNL     1      -4.220  11.541  18.092  0.00  0.00    +0.000 A 
ATOM     26  C   UNL     1      -4.560  11.141  16.810  0.00  0.00    +0.000 A 
ATOM     27  C   UNL     1      -3.597  10.582  15.974  0.00  0.00    +0.000 A 
ATOM     28  C   UNL     1      -2.300  10.381  16.443  0.00  0.00    +0.000 A 
ENDBRANCH  22  23
ENDBRANCH  21  22
ENDBRANCH   8  17
TORSDOF 4
ENDMDL
MODEL 7
REMARK VINA RESULT:      -5.8      1.932      3.794
REMARK  Name = 
REMARK  6 active torsions:
REMARK  status: ('A' for Active; 'I' for Inactive)
REMARK    1  A    between atoms: C_1  and  C_2
REMARK    2  A    between atoms: C_2  and  C_3
REMARK    3  A    between atoms: C_6  and  C_8
REMARK    4  A    between atoms: C_16  and  C_17
REMARK    5  A    between atoms: N_21  and  C_22
REMARK    6  A    between atoms: C_22  and  C_23
REMARK                            x       y       z     vdW  Elec       q    Type
REMARK                         _______ _______ _______ _____ _____    ______ ____
ROOT
ATOM      1  C   UNL     1      -0.445   8.313  21.609  0.00  0.00    +0.000 C 
ATOM      2  C   UNL     1       0.086   9.616  22.209  0.00  0.00    +0.000 C 
ATOM      3  C   UNL     1       1.225   9.297  23.192  0.00  0.00    +0.000 C 
ATOM      4  C   UNL     1      -0.923  10.557  22.894  0.00  0.00    +0.000 C 
ATOM      5  N   UNL     1      -0.406  11.631  22.047  0.00  0.00    +0.000 N 
ATOM      6  C   UNL     1      -0.447  12.989  22.264  0.00  0.00    +0.000 C 
ATOM      7  O   UNL     1      -1.025  13.416  23.269  0.00  0.00    +0.000 OA
ATOM      8  C   UNL     1       0.388  10.771  21.193  0.00  0.00    +0.000 C 
ENDROOT
BRANCH   6   9
ATOM      9  C   UNL     1       0.250  13.945  21.220  0.00  0.00    +0.000 C 
ATOM     10  C   UNL     1      -0.369  13.802  19.829  0.00  0.00    +0.000 C 
ATOM     11  C   UNL     1       0.796  13.884  18.862  0.00  0.00    +0.000 C 
ATOM     12  C   UNL     1       1.981  13.357  19.642  0.00  0.00    +0.000 C 
ATOM     13  N   UNL     1       1.703  13.565  21.066  0.00  0.00    +0.000 NA
ATOM     14  C   UNL     1       2.515  14.638  21.654  0.00  0.00    +0.000 C 
ATOM     15  C   UNL     1       1.715  15.896  21.433  0.00  0.00    +0.000 C 
ATOM     16  C   UNL     1       0.314  15.399  21.699  0.00  0.00    +0.000 C 
ENDBRANCH   6   9
BRANCH   8  17
ATOM     17  C   UNL     1      -0.157  10.592  19.762  0.00  0.00    +0.000 A 
ATOM     18  N   UNL     1      -1.463  10.663  19.579  0.00  0.00    +0.000 NA
ATOM     19  C   UNL     1      -1.701  10.292  18.291  0.00  0.00    +0.000 A 
ATOM     20  C   UNL     1      -0.520   9.981  17.661  0.00  0.00    +0.000 A 
ATOM     21  N   UNL     1       0.473  10.242  18.580  0.00  0.00    +0.000 N 
BRANCH  21  22
ATOM     22  C   UNL     1       1.877   9.927  18.313  0.00  0.00    +0.000 C 
BRANCH  22  23
ATOM     23  C   UNL     1       2.267   8.478  18.494  0.00  0.00    +0.000 A 
ATOM     24  C   UNL     1       1.942   7.721  19.628  0.00  0.00    +0.000 A 
ATOM     25  C   UNL     1       2.450   6.429  19.793  0.00  0.00    +0.000 A 
ATOM     26  C   UNL     1       3.260   5.872  18.816  0.00  0.00    +0.000 A 
ATOM     27  C   UNL     1       3.545   6.585  17.655  0.00  0.00    +0.000 A 
ATOM     28  C   UNL     1       3.053   7.879  17.495  0.00  0.00    +0.000 A 
ENDBRANCH  22  23
ENDBRANCH  21  22
ENDBRANCH   8  17
TORSDOF 4
ENDMDL
MODEL 8
REMARK VINA RESULT:      -5.8      2.052      5.535
REMARK  Name = 
REMARK  6 active torsions:
REMARK  status: ('A' for Active; 'I' for Inactive)
REMARK    1  A    between atoms: C_1  and  C_2
REMARK    2  A    between atoms: C_2  and  C_3
REMARK    3  A    between atoms: C_6  and  C_8
REMARK    4  A    between atoms: C_16  and  C_17
REMARK    5  A    between atoms: N_21  and  C_22
REMARK    6  A    between atoms: C_22  and  C_23
REMARK                            x       y       z     vdW  Elec       q    Type
REMARK                         _______ _______ _______ _____ _____    ______ ____
ROOT
ATOM      1  C   UNL     1      -2.735  12.630  22.132  0.00  0.00    +0.000 C 
ATOM      2  C   UNL     1      -1.740  13.790  22.084  0.00  0.00    +0.000 C 
ATOM      3  C   UNL     1      -1.846  14.606  23.383  0.00  0.00    +0.000 C 
ATOM      4  C   UNL     1      -1.810  14.748  20.879  0.00  0.00    +0.000 C 
ATOM      5  N   UNL     1      -0.378  14.518  20.690  0.00  0.00    +0.000 N 
ATOM      6  C   UNL     1       0.543  15.320  20.056  0.00  0.00    +0.000 C 
ATOM      7  O   UNL     1       0.156  16.363  19.518  0.00  0.00    +0.000 OA
ATOM      8  C   UNL     1      -0.280  13.430  21.642  0.00  0.00    +0.000 C 
ENDROOT
BRANCH   6   9
ATOM      9  C   UNL     1       2.056  14.875  20.046  0.00  0.00    +0.000 C 
ATOM     10  C   UNL     1       2.551  14.540  21.454  0.00  0.00    +0.000 C 
ATOM     11  C   UNL     1       3.966  15.081  21.519  0.00  0.00    +0.000 C 
ATOM     12  C   UNL     1       3.978  16.246  20.554  0.00  0.00    +0.000 C 
ATOM     13  N   UNL     1       2.923  16.012  19.563  0.00  0.00    +0.000 NA
ATOM     14  C   UNL     1       3.453  15.647  18.244  0.00  0.00    +0.000 C 
ATOM     15  C   UNL     1       3.589  14.147  18.281  0.00  0.00    +0.000 C 
ATOM     16  C   UNL     1       2.338  13.760  19.033  0.00  0.00    +0.000 C 
ENDBRANCH   6   9
BRANCH   8  17
ATOM     17  C   UNL     1      -0.072  12.036  21.017  0.00  0.00    +0.000 A 
ATOM     18  N   UNL     1       0.549  11.118  21.733  0.00  0.00    +0.000 NA
ATOM     19  C   UNL     1       0.772  10.058  20.908  0.00  0.00    +0.000 A 
ATOM     20  C   UNL     1       0.282  10.324  19.652  0.00  0.00    +0.000 A 
ATOM     21  N   UNL     1      -0.321  11.559  19.741  0.00  0.00    +0.000 N 
BRANCH  21  22
ATOM     22  C   UNL     1      -0.870  12.239  18.567  0.00  0.00    +0.000 C 
BRANCH  22  23
ATOM     23  C   UNL     1      -2.184  11.695  18.052  0.00  0.00    +0.000 A 
ATOM     24  C   UNL     1      -2.316  10.996  16.845  0.00  0.00    +0.000 A 
ATOM     25  C   UNL     1      -3.580  10.641  16.362  0.00  0.00    +0.000 A 
ATOM     26  C   UNL     1      -4.715  10.954  17.092  0.00  0.00    +0.000 A 
ATOM     27  C   UNL     1      -4.600  11.595  18.322  0.00  0.00    +0.000 A 
ATOM     28  C   UNL     1      -3.343  11.964  18.799  0.00  0.00    +0.000 A 
ENDBRANCH  22  23
ENDBRANCH  21  22
ENDBRANCH   8  17
TORSDOF 4
ENDMDL
MODEL 9
REMARK VINA RESULT:      -5.7      3.051      4.949
REMARK  Name = 
REMARK  6 active torsions:
REMARK  status: ('A' for Active; 'I' for Inactive)
REMARK    1  A    between atoms: C_1  and  C_2
REMARK    2  A    between atoms: C_2  and  C_3
REMARK    3  A    between atoms: C_6  and  C_8
REMARK    4  A    between atoms: C_16  and  C_17
REMARK    5  A    between atoms: N_21  and  C_22
REMARK    6  A    between atoms: C_22  and  C_23
REMARK                            x       y       z     vdW  Elec       q    Type
REMARK                         _______ _______ _______ _____ _____    ______ ____
ROOT
ATOM      1  C   UNL     1      -1.568  14.076  23.826  0.00  0.00    +0.000 C 
ATOM      2  C   UNL     1      -3.053  14.110  23.464  0.00  0.00    +0.000 C 
ATOM      3  C   UNL     1      -3.786  15.079  24.407  0.00  0.00    +0.000 C 
ATOM      4  C   UNL     1      -3.815  12.771  23.424  0.00  0.00    +0.000 C 
ATOM      5  N   UNL     1      -4.263  13.134  22.081  0.00  0.00    +0.000 N 
ATOM      6  C   UNL     1      -5.371  12.688  21.396  0.00  0.00    +0.000 C 
ATOM      7  O   UNL     1      -6.091  11.832  21.921  0.00  0.00    +0.000 OA
ATOM      8  C   UNL     1      -3.389  14.281  21.942  0.00  0.00    +0.000 C 
ENDROOT
BRANCH   6   9
ATOM      9  C   UNL     1      -5.675  13.291  19.972  0.00  0.00    +0.000 C 
ATOM     10  C   UNL     1      -5.602  14.819  19.982  0.00  0.00    +0.000 C 
ATOM     11  C   UNL     1      -6.735  15.280  19.087  0.00  0.00    +0.000 C 
ATOM     12  C   UNL     1      -7.778  14.188  19.192  0.00  0.00    +0.000 C 
ATOM     13  N   UNL     1      -7.086  12.949  19.559  0.00  0.00    +0.000 NA
ATOM     14  C   UNL     1      -7.012  11.988  18.451  0.00  0.00    +0.000 C 
ATOM     15  C   UNL     1      -5.744  12.340  17.716  0.00  0.00    +0.000 C 
ATOM     16  C   UNL     1      -4.821  12.660  18.867  0.00  0.00    +0.000 C 
ENDBRANCH   6   9
BRANCH   8  17
ATOM     17  C   UNL     1      -2.222  14.093  20.952  0.00  0.00    +0.000 A 
ATOM     18  N   UNL     1      -1.707  15.167  20.383  0.00  0.00    +0.000 NA
ATOM     19  C   UNL     1      -0.839  14.730  19.430  0.00  0.00    +0.000 A 
ATOM     20  C   UNL     1      -0.815  13.357  19.404  0.00  0.00    +0.000 A 
ATOM     21  N   UNL     1      -1.645  12.949  20.425  0.00  0.00    +0.000 N 
BRANCH  21  22
ATOM     22  C   UNL     1      -1.965  11.539  20.647  0.00  0.00    +0.000 C 
BRANCH  22  23
ATOM     23  C   UNL     1      -0.821  10.678  21.131  0.00  0.00    +0.000 A 
ATOM     24  C   UNL     1       0.048   9.988  20.276  0.00  0.00    +0.000 A 
ATOM     25  C   UNL     1       0.999   9.100  20.790  0.00  0.00    +0.000 A 
ATOM     26  C   UNL     1       1.109   8.918  22.159  0.00  0.00    +0.000 A 
ATOM     27  C   UNL     1       0.295   9.639  23.028  0.00  0.00    +0.000 A 
ATOM     28  C   UNL     1      -0.665  10.513  22.518  0.00  0.00    +0.000 A 
ENDBRANCH  22  23
ENDBRANCH  21  22
ENDBRANCH   8  17
TORSDOF 4
ENDMDL
