MODEL 1
REMARK VINA RESULT:      -8.8      0.000      0.000
REMARK  Name = 
REMARK  7 active torsions:
REMARK  status: ('A' for Active; 'I' for Inactive)
REMARK    1  A    between atoms: C_2  and  C_15
REMARK    2  A    between atoms: N_3  and  C_4
REMARK    3  A    between atoms: C_7  and  N_8
REMARK    4  A    between atoms: C_20  and  S_21
REMARK    5  A    between atoms: S_21  and  N_24
REMARK    6  A    between atoms: N_24  and  C_25
REMARK    7  A    between atoms: C_25  and  C_26
REMARK                            x       y       z     vdW  Elec       q    Type
REMARK                         _______ _______ _______ _____ _____    ______ ____
ROOT
ATOM      1  C   UNL     1       2.544   6.437  19.661  0.00  0.00    +0.000 A 
ATOM      2  C   UNL     1       1.938   5.269  20.132  0.00  0.00    +0.000 A 
ATOM      3  C   UNL     1       2.613   4.051  20.061  0.00  0.00    +0.000 A 
ATOM      4  C   UNL     1       3.899   3.975  19.511  0.00  0.00    +0.000 A 
ATOM      5 CL   UNL     1       4.628   2.414  19.540  0.00  0.00    +0.000 Cl
ATOM      6  C   UNL     1       4.506   5.139  19.025  0.00  0.00    +0.000 A 
ATOM      7  C   UNL     1       3.825   6.376  19.109  0.00  0.00    +0.000 A 
ENDROOT
BRANCH   1   9
ATOM      8  O   UNL     1       1.920   8.539  18.937  0.00  0.00    +0.000 OA
ATOM      9  C   UNL     1       1.798   7.708  19.831  0.00  0.00    +0.000 C 
ATOM     10  N   UNL     1       1.086   7.861  21.010  0.00  0.00    +0.000 N 
ATOM     11  H   UNL     1       1.225   7.175  21.743  0.00  0.00    +0.000 HD
BRANCH  10  12
ATOM     12  C   UNL     1       0.355   9.017  21.362  0.00  0.00    +0.000 A 
ATOM     13  C   UNL     1      -0.052   9.972  20.426  0.00  0.00    +0.000 A 
ATOM     14  C   UNL     1      -0.730  11.127  20.816  0.00  0.00    +0.000 A 
ATOM     15  C   UNL     1      -1.013  11.348  22.166  0.00  0.00    +0.000 A 
ATOM     16  C   UNL     1      -0.628  10.389  23.114  0.00  0.00    +0.000 A 
ATOM     17  C   UNL     1       0.035   9.222  22.709  0.00  0.00    +0.000 A 
BRANCH  15  18
ATOM     18  N   UNL     1      -1.672  12.531  22.574  0.00  0.00    +0.000 N 
ATOM     19  C   UNL     1      -2.806  13.112  22.067  0.00  0.00    +0.000 A 
ATOM     20  N   UNL     1      -3.065  14.216  22.729  0.00  0.00    +0.000 NA
ATOM     21  N   UNL     1      -2.077  14.321  23.673  0.00  0.00    +0.000 NA
ATOM     22  N   UNL     1      -1.232  13.302  23.593  0.00  0.00    +0.000 NA
ENDBRANCH  15  18
ENDBRANCH  10  12
ENDBRANCH   1   9
BRANCH   6  23
ATOM     23  S   UNL     1       6.046   5.139  18.125  0.00  0.00    +0.000 S 
ATOM     24  O   UNL     1       6.243   6.427  17.499  0.00  0.00    +0.000 OA
ATOM     25  O   UNL     1       7.030   4.619  19.048  0.00  0.00    +0.000 OA
BRANCH  23  26
ATOM     26  N   UNL     1       5.841   3.961  16.949  0.00  0.00    +0.000 NA
ATOM     27  H   UNL     1       5.702   3.020  17.315  0.00  0.00    +0.000 HD
BRANCH  26  28
ATOM     28  C   UNL     1       4.965   4.290  15.817  0.00  0.00    +0.000 C 
BRANCH  28  29
ATOM     29  C   UNL     1       5.716   4.260  14.506  0.00  0.00    +0.000 A 
ATOM     30  C   UNL     1       6.931   4.947  14.370  0.00  0.00    +0.000 A 
ATOM     31  C   UNL     1       7.643   4.898  13.171  0.00  0.00    +0.000 A 
ATOM     32  C   UNL     1       7.149   4.163  12.095  0.00  0.00    +0.000 A 
ATOM     33  C   UNL     1       5.942   3.476  12.216  0.00  0.00    +0.000 A 
ATOM     34  C   UNL     1       5.228   3.524  13.416  0.00  0.00    +0.000 A 
ENDBRANCH  28  29
ENDBRANCH  26  28
ENDBRANCH  23  26
ENDBRANCH   6  23
TORSDOF 7
ENDMDL
MODEL 2
REMARK VINA RESULT:      -8.7      0.640      1.311
REMARK  Name = 
REMARK  7 active torsions:
REMARK  status: ('A' for Active; 'I' for Inactive)
REMARK    1  A    between atoms: C_2  and  C_15
REMARK    2  A    between atoms: N_3  and  C_4
REMARK    3  A    between atoms: C_7  and  N_8
REMARK    4  A    between atoms: C_20  and  S_21
REMARK    5  A    between atoms: S_21  and  N_24
REMARK    6  A    between atoms: N_24  and  C_25
REMARK    7  A    between atoms: C_25  and  C_26
REMARK                            x       y       z     vdW  Elec       q    Type
REMARK                         _______ _______ _______ _____ _____    ______ ____
ROOT
ATOM      1  C   UNL     1       2.480   6.421  19.791  0.00  0.00    +0.000 A 
ATOM      2  C   UNL     1       1.884   5.250  20.265  0.00  0.00    +0.000 A 
ATOM      3  C   UNL     1       2.556   4.031  20.166  0.00  0.00    +0.000 A 
ATOM      4  C   UNL     1       3.829   3.960  19.585  0.00  0.00    +0.000 A 
ATOM      5 CL   UNL     1       4.557   2.399  19.581  0.00  0.00    +0.000 Cl
ATOM      6  C   UNL     1       4.425   5.128  19.096  0.00  0.00    +0.000 A 
ATOM      7  C   UNL     1       3.748   6.365  19.209  0.00  0.00    +0.000 A 
ENDROOT
BRANCH   1   9
ATOM      8  O   UNL     1       1.524   8.365  18.989  0.00  0.00    +0.000 OA
ATOM      9  C   UNL     1       1.740   7.691  19.992  0.00  0.00    +0.000 C 
ATOM     10  N   UNL     1       1.417   8.027  21.297  0.00  0.00    +0.000 N 
ATOM     11  H   UNL     1       1.821   7.475  22.044  0.00  0.00    +0.000 HD
BRANCH  10  12
ATOM     12  C   UNL     1       0.755   9.214  21.681  0.00  0.00    +0.000 A 
ATOM     13  C   UNL     1      -0.259   9.239  22.643  0.00  0.00    +0.000 A 
ATOM     14  C   UNL     1      -0.926  10.423  22.962  0.00  0.00    +0.000 A 
ATOM     15  C   UNL     1      -0.586  11.612  22.314  0.00  0.00    +0.000 A 
ATOM     16  C   UNL     1       0.443  11.605  21.360  0.00  0.00    +0.000 A 
ATOM     17  C   UNL     1       1.121  10.414  21.062  0.00  0.00    +0.000 A 
BRANCH  15  18
ATOM     18  N   UNL     1      -1.277  12.811  22.608  0.00  0.00    +0.000 N 
ATOM     19  C   UNL     1      -2.206  13.060  23.586  0.00  0.00    +0.000 A 
ATOM     20  N   UNL     1      -2.611  14.305  23.496  0.00  0.00    +0.000 NA
ATOM     21  N   UNL     1      -1.917  14.845  22.445  0.00  0.00    +0.000 NA
ATOM     22  N   UNL     1      -1.100  13.951  21.904  0.00  0.00    +0.000 NA
ENDBRANCH  15  18
ENDBRANCH  10  12
ENDBRANCH   1   9
BRANCH   6  23
ATOM     23  S   UNL     1       5.944   5.136  18.160  0.00  0.00    +0.000 S 
ATOM     24  O   UNL     1       6.138   6.437  17.561  0.00  0.00    +0.000 OA
ATOM     25  O   UNL     1       6.944   4.586  19.047  0.00  0.00    +0.000 OA
BRANCH  23  26
ATOM     26  N   UNL     1       5.700   3.988  16.962  0.00  0.00    +0.000 NA
ATOM     27  H   UNL     1       5.463   3.061  17.310  0.00  0.00    +0.000 HD
BRANCH  26  28
ATOM     28  C   UNL     1       4.914   4.400  15.791  0.00  0.00    +0.000 C 
BRANCH  28  29
ATOM     29  C   UNL     1       5.721   4.302  14.517  0.00  0.00    +0.000 A 
ATOM     30  C   UNL     1       5.242   3.551  13.433  0.00  0.00    +0.000 A 
ATOM     31  C   UNL     1       5.970   3.482  12.244  0.00  0.00    +0.000 A 
ATOM     32  C   UNL     1       7.182   4.160  12.125  0.00  0.00    +0.000 A 
ATOM     33  C   UNL     1       7.668   4.909  13.195  0.00  0.00    +0.000 A 
ATOM     34  C   UNL     1       6.941   4.980  14.387  0.00  0.00    +0.000 A 
ENDBRANCH  28  29
ENDBRANCH  26  28
ENDBRANCH  23  26
ENDBRANCH   6  23
TORSDOF 7
ENDMDL
MODEL 3
REMARK VINA RESULT:      -8.7      2.865      4.580
REMARK  Name = 
REMARK  7 active torsions:
REMARK  status: ('A' for Active; 'I' for Inactive)
REMARK    1  A    between atoms: C_2  and  C_15
REMARK    2  A    between atoms: N_3  and  C_4
REMARK    3  A    between atoms: C_7  and  N_8
REMARK    4  A    between atoms: C_20  and  S_21
REMARK    5  A    between atoms: S_21  and  N_24
REMARK    6  A    between atoms: N_24  and  C_25
REMARK    7  A    between atoms: C_25  and  C_26
REMARK                            x       y       z     vdW  Elec       q    Type
REMARK                         _______ _______ _______ _____ _____    ______ ____
ROOT
ATOM      1  C   UNL     1       3.639   7.300  17.734  0.00  0.00    +0.000 A 
ATOM      2  C   UNL     1       3.871   7.562  16.382  0.00  0.00    +0.000 A 
ATOM      3  C   UNL     1       4.878   6.880  15.698  0.00  0.00    +0.000 A 
ATOM      4  C   UNL     1       5.674   5.932  16.354  0.00  0.00    +0.000 A 
ATOM      5 CL   UNL     1       6.839   5.132  15.369  0.00  0.00    +0.000 Cl
ATOM      6  C   UNL     1       5.455   5.675  17.712  0.00  0.00    +0.000 A 
ATOM      7  C   UNL     1       4.426   6.359  18.402  0.00  0.00    +0.000 A 
ENDROOT
BRANCH   1   9
ATOM      8  O   UNL     1       2.065   7.512  19.411  0.00  0.00    +0.000 OA
ATOM      9  C   UNL     1       2.508   8.010  18.381  0.00  0.00    +0.000 C 
ATOM     10  N   UNL     1       2.020   9.131  17.729  0.00  0.00    +0.000 N 
ATOM     11  H   UNL     1       2.355   9.321  16.792  0.00  0.00    +0.000 HD
BRANCH  10  12
ATOM     12  C   UNL     1       0.924   9.905  18.173  0.00  0.00    +0.000 A 
ATOM     13  C   UNL     1       1.056  10.947  19.095  0.00  0.00    +0.000 A 
ATOM     14  C   UNL     1      -0.056  11.659  19.548  0.00  0.00    +0.000 A 
ATOM     15  C   UNL     1      -1.332  11.331  19.082  0.00  0.00    +0.000 A 
ATOM     16  C   UNL     1      -1.476  10.300  18.142  0.00  0.00    +0.000 A 
ATOM     17  C   UNL     1      -0.350   9.606  17.677  0.00  0.00    +0.000 A 
BRANCH  15  18
ATOM     18  N   UNL     1      -2.467  12.026  19.559  0.00  0.00    +0.000 N 
ATOM     19  C   UNL     1      -3.771  11.952  19.138  0.00  0.00    +0.000 A 
ATOM     20  N   UNL     1      -4.505  12.783  19.841  0.00  0.00    +0.000 NA
ATOM     21  N   UNL     1      -3.643  13.381  20.723  0.00  0.00    +0.000 NA
ATOM     22  N   UNL     1      -2.408  12.925  20.566  0.00  0.00    +0.000 NA
ENDBRANCH  15  18
ENDBRANCH  10  12
ENDBRANCH   1   9
BRANCH   6  23
ATOM     23  S   UNL     1       6.526   4.647  18.701  0.00  0.00    +0.000 S 
ATOM     24  O   UNL     1       7.668   4.238  17.916  0.00  0.00    +0.000 OA
ATOM     25  O   UNL     1       6.714   5.369  19.940  0.00  0.00    +0.000 OA
BRANCH  23  26
ATOM     26  N   UNL     1       5.587   3.310  19.078  0.00  0.00    +0.000 NA
ATOM     27  H   UNL     1       5.336   3.236  20.063  0.00  0.00    +0.000 HD
BRANCH  26  28
ATOM     28  C   UNL     1       4.487   2.984  18.161  0.00  0.00    +0.000 C 
BRANCH  28  29
ATOM     29  C   UNL     1       3.150   3.008  18.865  0.00  0.00    +0.000 A 
ATOM     30  C   UNL     1       3.047   3.512  20.170  0.00  0.00    +0.000 A 
ATOM     31  C   UNL     1       1.809   3.563  20.814  0.00  0.00    +0.000 A 
ATOM     32  C   UNL     1       0.663   3.113  20.161  0.00  0.00    +0.000 A 
ATOM     33  C   UNL     1       0.752   2.611  18.864  0.00  0.00    +0.000 A 
ATOM     34  C   UNL     1       1.990   2.558  18.218  0.00  0.00    +0.000 A 
ENDBRANCH  28  29
ENDBRANCH  26  28
ENDBRANCH  23  26
ENDBRANCH   6  23
TORSDOF 7
ENDMDL
MODEL 4
REMARK VINA RESULT:      -8.6      4.372     10.178
REMARK  Name = 
REMARK  7 active torsions:
REMARK  status: ('A' for Active; 'I' for Inactive)
REMARK    1  A    between atoms: C_2  and  C_15
REMARK    2  A    between atoms: N_3  and  C_4
REMARK    3  A    between atoms: C_7  and  N_8
REMARK    4  A    between atoms: C_20  and  S_21
REMARK    5  A    between atoms: S_21  and  N_24
REMARK    6  A    between atoms: N_24  and  C_25
REMARK    7  A    between atoms: C_25  and  C_26
REMARK                            x       y       z     vdW  Elec       q    Type
REMARK                         _______ _______ _______ _____ _____    ______ ____
ROOT
ATOM      1  C   UNL     1       0.199   9.946  21.508  0.00  0.00    +0.000 A 
ATOM      2  C   UNL     1      -0.342   9.804  22.789  0.00  0.00    +0.000 A 
ATOM      3  C   UNL     1      -1.273  10.727  23.263  0.00  0.00    +0.000 A 
ATOM      4  C   UNL     1      -1.673  11.812  22.472  0.00  0.00    +0.000 A 
ATOM      5 CL   UNL     1      -2.869  12.838  23.169  0.00  0.00    +0.000 Cl
ATOM      6  C   UNL     1      -1.125  11.967  21.194  0.00  0.00    +0.000 A 
ATOM      7  C   UNL     1      -0.191  11.023  20.709  0.00  0.00    +0.000 A 
ENDROOT
BRANCH   1   9
ATOM      8  O   UNL     1       1.699   8.237  21.909  0.00  0.00    +0.000 OA
ATOM      9  C   UNL     1       1.130   8.890  21.041  0.00  0.00    +0.000 C 
ATOM     10  N   UNL     1       1.316   8.782  19.671  0.00  0.00    +0.000 N 
ATOM     11  H   UNL     1       0.928   9.507  19.080  0.00  0.00    +0.000 HD
BRANCH  10  12
ATOM     12  C   UNL     1       2.194   7.867  19.049  0.00  0.00    +0.000 A 
ATOM     13  C   UNL     1       2.498   6.617  19.597  0.00  0.00    +0.000 A 
ATOM     14  C   UNL     1       3.408   5.758  18.980  0.00  0.00    +0.000 A 
ATOM     15  C   UNL     1       4.037   6.142  17.793  0.00  0.00    +0.000 A 
ATOM     16  C   UNL     1       3.726   7.385  17.222  0.00  0.00    +0.000 A 
ATOM     17  C   UNL     1       2.794   8.232  17.840  0.00  0.00    +0.000 A 
BRANCH  15  18
ATOM     18  N   UNL     1       4.984   5.291  17.177  0.00  0.00    +0.000 N 
ATOM     19  C   UNL     1       6.349   5.272  17.308  0.00  0.00    +0.000 A 
ATOM     20  N   UNL     1       6.848   4.330  16.541  0.00  0.00    +0.000 NA
ATOM     21  N   UNL     1       5.772   3.747  15.924  0.00  0.00    +0.000 NA
ATOM     22  N   UNL     1       4.637   4.316  16.308  0.00  0.00    +0.000 NA
ENDBRANCH  15  18
ENDBRANCH  10  12
ENDBRANCH   1   9
BRANCH   6  23
ATOM     23  S   UNL     1      -1.401  13.407  20.177  0.00  0.00    +0.000 S 
ATOM     24  O   UNL     1      -1.291  14.600  20.984  0.00  0.00    +0.000 OA
ATOM     25  O   UNL     1      -0.550  13.228  19.020  0.00  0.00    +0.000 OA
BRANCH  23  26
ATOM     26  N   UNL     1      -2.976  13.234  19.628  0.00  0.00    +0.000 NA
ATOM     27  H   UNL     1      -3.204  13.804  18.816  0.00  0.00    +0.000 HD
BRANCH  26  28
ATOM     28  C   UNL     1      -3.516  11.869  19.564  0.00  0.00    +0.000 C 
BRANCH  28  29
ATOM     29  C   UNL     1      -3.285  11.243  18.209  0.00  0.00    +0.000 A 
ATOM     30  C   UNL     1      -4.117  11.569  17.127  0.00  0.00    +0.000 A 
ATOM     31  C   UNL     1      -3.890  11.015  15.867  0.00  0.00    +0.000 A 
ATOM     32  C   UNL     1      -2.830  10.132  15.672  0.00  0.00    +0.000 A 
ATOM     33  C   UNL     1      -1.995   9.800  16.738  0.00  0.00    +0.000 A 
ATOM     34  C   UNL     1      -2.221  10.353  18.001  0.00  0.00    +0.000 A 
ENDBRANCH  28  29
ENDBRANCH  26  28
ENDBRANCH  23  26
ENDBRANCH   6  23
TORSDOF 7
ENDMDL
MODEL 5
REMARK VINA RESULT:      -8.6      0.730      1.124
REMARK  Name = 
REMARK  7 active torsions:
REMARK  status: ('A' for Active; 'I' for Inactive)
REMARK    1  A    between atoms: C_2  and  C_15
REMARK    2  A    between atoms: N_3  and  C_4
REMARK    3  A    between atoms: C_7  and  N_8
REMARK    4  A    between atoms: C_20  and  S_21
REMARK    5  A    between atoms: S_21  and  N_24
REMARK    6  A    between atoms: N_24  and  C_25
REMARK    7  A    between atoms: C_25  and  C_26
REMARK                            x       y       z     vdW  Elec       q    Type
REMARK                         _______ _______ _______ _____ _____    ______ ____
ROOT
ATOM      1  C   UNL     1       2.352   6.762  19.825  0.00  0.00    +0.000 A 
ATOM      2  C   UNL     1       1.884   5.614  20.469  0.00  0.00    +0.000 A 
ATOM      3  C   UNL     1       2.587   4.414  20.363  0.00  0.00    +0.000 A 
ATOM      4  C   UNL     1       3.763   4.337  19.606  0.00  0.00    +0.000 A 
ATOM      5 CL   UNL     1       4.551   2.805  19.611  0.00  0.00    +0.000 Cl
ATOM      6  C   UNL     1       4.230   5.480  18.947  0.00  0.00    +0.000 A 
ATOM      7  C   UNL     1       3.523   6.700  19.066  0.00  0.00    +0.000 A 
ENDROOT
BRANCH   1   9
ATOM      8  O   UNL     1       1.380   8.705  19.043  0.00  0.00    +0.000 OA
ATOM      9  C   UNL     1       1.594   8.019  20.037  0.00  0.00    +0.000 C 
ATOM     10  N   UNL     1       1.255   8.331  21.344  0.00  0.00    +0.000 N 
ATOM     11  H   UNL     1       1.658   7.772  22.087  0.00  0.00    +0.000 HD
BRANCH  10  12
ATOM     12  C   UNL     1       0.573   9.503  21.739  0.00  0.00    +0.000 A 
ATOM     13  C   UNL     1       0.835  10.757  21.180  0.00  0.00    +0.000 A 
ATOM     14  C   UNL     1       0.177  11.903  21.629  0.00  0.00    +0.000 A 
ATOM     15  C   UNL     1      -0.761  11.810  22.659  0.00  0.00    +0.000 A 
ATOM     16  C   UNL     1      -1.048  10.555  23.216  0.00  0.00    +0.000 A 
ATOM     17  C   UNL     1      -0.397   9.408  22.743  0.00  0.00    +0.000 A 
BRANCH  15  18
ATOM     18  N   UNL     1      -1.410  12.970  23.142  0.00  0.00    +0.000 N 
ATOM     19  C   UNL     1      -2.743  13.297  23.112  0.00  0.00    +0.000 A 
ATOM     20  N   UNL     1      -2.914  14.480  23.654  0.00  0.00    +0.000 NA
ATOM     21  N   UNL     1      -1.666  14.897  24.035  0.00  0.00    +0.000 NA
ATOM     22  N   UNL     1      -0.748  13.987  23.738  0.00  0.00    +0.000 NA
ENDBRANCH  15  18
ENDBRANCH  10  12
ENDBRANCH   1   9
BRANCH   6  23
ATOM     23  S   UNL     1       5.594   5.462  17.797  0.00  0.00    +0.000 S 
ATOM     24  O   UNL     1       6.018   6.816  17.524  0.00  0.00    +0.000 OA
ATOM     25  O   UNL     1       6.531   4.498  18.329  0.00  0.00    +0.000 OA
BRANCH  23  26
ATOM     26  N   UNL     1       4.956   4.774  16.407  0.00  0.00    +0.000 NA
ATOM     27  H   UNL     1       4.637   5.448  15.712  0.00  0.00    +0.000 HD
BRANCH  26  28
ATOM     28  C   UNL     1       5.679   3.631  15.834  0.00  0.00    +0.000 C 
BRANCH  28  29
ATOM     29  C   UNL     1       6.283   3.971  14.491  0.00  0.00    +0.000 A 
ATOM     30  C   UNL     1       5.857   3.302  13.334  0.00  0.00    +0.000 A 
ATOM     31  C   UNL     1       6.392   3.633  12.087  0.00  0.00    +0.000 A 
ATOM     32  C   UNL     1       7.355   4.635  11.984  0.00  0.00    +0.000 A 
ATOM     33  C   UNL     1       7.786   5.307  13.126  0.00  0.00    +0.000 A 
ATOM     34  C   UNL     1       7.253   4.977  14.375  0.00  0.00    +0.000 A 
ENDBRANCH  28  29
ENDBRANCH  26  28
ENDBRANCH  23  26
ENDBRANCH   6  23
TORSDOF 7
ENDMDL
MODEL 6
REMARK VINA RESULT:      -8.5      2.876      4.728
REMARK  Name = 
REMARK  7 active torsions:
REMARK  status: ('A' for Active; 'I' for Inactive)
REMARK    1  A    between atoms: C_2  and  C_15
REMARK    2  A    between atoms: N_3  and  C_4
REMARK    3  A    between atoms: C_7  and  N_8
REMARK    4  A    between atoms: C_20  and  S_21
REMARK    5  A    between atoms: S_21  and  N_24
REMARK    6  A    between atoms: N_24  and  C_25
REMARK    7  A    between atoms: C_25  and  C_26
REMARK                            x       y       z     vdW  Elec       q    Type
REMARK                         _______ _______ _______ _____ _____    ______ ____
ROOT
ATOM      1  C   UNL     1       3.603   7.290  17.750  0.00  0.00    +0.000 A 
ATOM      2  C   UNL     1       3.845   7.567  16.402  0.00  0.00    +0.000 A 
ATOM      3  C   UNL     1       4.846   6.882  15.713  0.00  0.00    +0.000 A 
ATOM      4  C   UNL     1       5.627   5.915  16.360  0.00  0.00    +0.000 A 
ATOM      5 CL   UNL     1       6.787   5.114  15.370  0.00  0.00    +0.000 Cl
ATOM      6  C   UNL     1       5.398   5.643  17.714  0.00  0.00    +0.000 A 
ATOM      7  C   UNL     1       4.375   6.329  18.407  0.00  0.00    +0.000 A 
ENDROOT
BRANCH   1   9
ATOM      8  O   UNL     1       2.055   7.524  19.447  0.00  0.00    +0.000 OA
ATOM      9  C   UNL     1       2.478   8.005  18.401  0.00  0.00    +0.000 C 
ATOM     10  N   UNL     1       1.972   9.111  17.736  0.00  0.00    +0.000 N 
ATOM     11  H   UNL     1       2.291   9.284  16.790  0.00  0.00    +0.000 HD
BRANCH  10  12
ATOM     12  C   UNL     1       0.879   9.885  18.182  0.00  0.00    +0.000 A 
ATOM     13  C   UNL     1       1.019  10.951  19.076  0.00  0.00    +0.000 A 
ATOM     14  C   UNL     1      -0.089  11.665  19.533  0.00  0.00    +0.000 A 
ATOM     15  C   UNL     1      -1.371  11.316  19.101  0.00  0.00    +0.000 A 
ATOM     16  C   UNL     1      -1.525  10.260  18.190  0.00  0.00    +0.000 A 
ATOM     17  C   UNL     1      -0.402   9.564  17.720  0.00  0.00    +0.000 A 
BRANCH  15  18
ATOM     18  N   UNL     1      -2.503  12.012  19.584  0.00  0.00    +0.000 N 
ATOM     19  C   UNL     1      -2.619  12.826  20.682  0.00  0.00    +0.000 A 
ATOM     20  N   UNL     1      -3.856  13.256  20.777  0.00  0.00    +0.000 NA
ATOM     21  N   UNL     1      -4.522  12.705  19.714  0.00  0.00    +0.000 NA
ATOM     22  N   UNL     1      -3.711  11.956  18.980  0.00  0.00    +0.000 NA
ENDBRANCH  15  18
ENDBRANCH  10  12
ENDBRANCH   1   9
BRANCH   6  23
ATOM     23  S   UNL     1       6.452   4.587  18.693  0.00  0.00    +0.000 S 
ATOM     24  O   UNL     1       7.667   4.303  17.966  0.00  0.00    +0.000 OA
ATOM     25  O   UNL     1       6.512   5.209  19.998  0.00  0.00    +0.000 OA
BRANCH  23  26
ATOM     26  N   UNL     1       5.563   3.178  18.888  0.00  0.00    +0.000 NA
ATOM     27  H   UNL     1       6.045   2.332  18.590  0.00  0.00    +0.000 HD
BRANCH  26  28
ATOM     28  C   UNL     1       4.820   3.024  20.147  0.00  0.00    +0.000 C 
BRANCH  28  29
ATOM     29  C   UNL     1       3.327   3.053  19.918  0.00  0.00    +0.000 A 
ATOM     30  C   UNL     1       2.811   3.047  18.613  0.00  0.00    +0.000 A 
ATOM     31  C   UNL     1       1.432   3.044  18.397  0.00  0.00    +0.000 A 
ATOM     32  C   UNL     1       0.555   3.047  19.480  0.00  0.00    +0.000 A 
ATOM     33  C   UNL     1       1.055   3.053  20.781  0.00  0.00    +0.000 A 
ATOM     34  C   UNL     1       2.435   3.056  21.000  0.00  0.00    +0.000 A 
ENDBRANCH  28  29
ENDBRANCH  26  28
ENDBRANCH  23  26
ENDBRANCH   6  23
TORSDOF 7
ENDMDL
MODEL 7
REMARK VINA RESULT:      -8.5      5.424     10.537
REMARK  Name = 
REMARK  7 active torsions:
REMARK  status: ('A' for Active; 'I' for Inactive)
REMARK    1  A    between atoms: C_2  and  C_15
REMARK    2  A    between atoms: N_3  and  C_4
REMARK    3  A    between atoms: C_7  and  N_8
REMARK    4  A    between atoms: C_20  and  S_21
REMARK    5  A    between atoms: S_21  and  N_24
REMARK    6  A    between atoms: N_24  and  C_25
REMARK    7  A    between atoms: C_25  and  C_26
REMARK                            x       y       z     vdW  Elec       q    Type
REMARK                         _______ _______ _______ _____ _____    ______ ____
ROOT
ATOM      1  C   UNL     1      -0.624  12.710  21.299  0.00  0.00    +0.000 A 
ATOM      2  C   UNL     1      -0.198  13.614  22.275  0.00  0.00    +0.000 A 
ATOM      3  C   UNL     1      -1.126  14.411  22.946  0.00  0.00    +0.000 A 
ATOM      4  C   UNL     1      -2.492  14.324  22.648  0.00  0.00    +0.000 A 
ATOM      5 CL   UNL     1      -3.523  15.329  23.594  0.00  0.00    +0.000 Cl
ATOM      6  C   UNL     1      -2.923  13.429  21.662  0.00  0.00    +0.000 A 
ATOM      7  C   UNL     1      -1.983  12.613  20.991  0.00  0.00    +0.000 A 
ENDROOT
BRANCH   1   9
ATOM      8  O   UNL     1       1.486  12.372  20.423  0.00  0.00    +0.000 OA
ATOM      9  C   UNL     1       0.408  11.845  20.675  0.00  0.00    +0.000 C 
ATOM     10  N   UNL     1       0.035  10.543  20.378  0.00  0.00    +0.000 N 
ATOM     11  H   UNL     1      -0.943  10.296  20.466  0.00  0.00    +0.000 HD
BRANCH  10  12
ATOM     12  C   UNL     1       0.869   9.594  19.746  0.00  0.00    +0.000 A 
ATOM     13  C   UNL     1       1.214   9.669  18.394  0.00  0.00    +0.000 A 
ATOM     14  C   UNL     1       2.000   8.687  17.791  0.00  0.00    +0.000 A 
ATOM     15  C   UNL     1       2.455   7.599  18.540  0.00  0.00    +0.000 A 
ATOM     16  C   UNL     1       2.132   7.521  19.903  0.00  0.00    +0.000 A 
ATOM     17  C   UNL     1       1.359   8.524  20.504  0.00  0.00    +0.000 A 
BRANCH  15  18
ATOM     18  N   UNL     1       3.226   6.582  17.931  0.00  0.00    +0.000 N 
ATOM     19  C   UNL     1       4.486   6.652  17.391  0.00  0.00    +0.000 A 
ATOM     20  N   UNL     1       4.821   5.477  16.911  0.00  0.00    +0.000 NA
ATOM     21  N   UNL     1       3.752   4.657  17.161  0.00  0.00    +0.000 NA
ATOM     22  N   UNL     1       2.783   5.313  17.785  0.00  0.00    +0.000 NA
ENDBRANCH  15  18
ENDBRANCH  10  12
ENDBRANCH   1   9
BRANCH   6  23
ATOM     23  S   UNL     1      -4.600  13.372  21.055  0.00  0.00    +0.000 S 
ATOM     24  O   UNL     1      -5.331  12.334  21.745  0.00  0.00    +0.000 OA
ATOM     25  O   UNL     1      -5.069  14.740  21.091  0.00  0.00    +0.000 OA
BRANCH  23  26
ATOM     26  N   UNL     1      -4.442  12.975  19.433  0.00  0.00    +0.000 NA
ATOM     27  H   UNL     1      -3.569  13.281  19.008  0.00  0.00    +0.000 HD
BRANCH  26  28
ATOM     28  C   UNL     1      -4.854  11.623  19.032  0.00  0.00    +0.000 C 
BRANCH  28  29
ATOM     29  C   UNL     1      -4.030  11.112  17.873  0.00  0.00    +0.000 A 
ATOM     30  C   UNL     1      -2.870  10.358  18.108  0.00  0.00    +0.000 A 
ATOM     31  C   UNL     1      -2.122   9.859  17.041  0.00  0.00    +0.000 A 
ATOM     32  C   UNL     1      -2.523  10.107  15.729  0.00  0.00    +0.000 A 
ATOM     33  C   UNL     1      -3.673  10.855  15.483  0.00  0.00    +0.000 A 
ATOM     34  C   UNL     1      -4.424  11.355  16.549  0.00  0.00    +0.000 A 
ENDBRANCH  28  29
ENDBRANCH  26  28
ENDBRANCH  23  26
ENDBRANCH   6  23
TORSDOF 7
ENDMDL
MODEL 8
REMARK VINA RESULT:      -8.5      2.766      4.532
REMARK  Name = 
REMARK  7 active torsions:
REMARK  status: ('A' for Active; 'I' for Inactive)
REMARK    1  A    between atoms: C_2  and  C_15
REMARK    2  A    between atoms: N_3  and  C_4
REMARK    3  A    between atoms: C_7  and  N_8
REMARK    4  A    between atoms: C_20  and  S_21
REMARK    5  A    between atoms: S_21  and  N_24
REMARK    6  A    between atoms: N_24  and  C_25
REMARK    7  A    between atoms: C_25  and  C_26
REMARK                            x       y       z     vdW  Elec       q    Type
REMARK                         _______ _______ _______ _____ _____    ______ ____
ROOT
ATOM      1  C   UNL     1       3.571   7.258  17.841  0.00  0.00    +0.000 A 
ATOM      2  C   UNL     1       3.775   7.551  16.490  0.00  0.00    +0.000 A 
ATOM      3  C   UNL     1       4.778   6.897  15.775  0.00  0.00    +0.000 A 
ATOM      4  C   UNL     1       5.599   5.947  16.397  0.00  0.00    +0.000 A 
ATOM      5 CL   UNL     1       6.757   5.183  15.374  0.00  0.00    +0.000 Cl
ATOM      6  C   UNL     1       5.407   5.659  17.752  0.00  0.00    +0.000 A 
ATOM      7  C   UNL     1       4.382   6.313  18.474  0.00  0.00    +0.000 A 
ENDROOT
BRANCH   1   9
ATOM      8  O   UNL     1       1.993   7.388  19.522  0.00  0.00    +0.000 OA
ATOM      9  C   UNL     1       2.443   7.939  18.523  0.00  0.00    +0.000 C 
ATOM     10  N   UNL     1       1.963   9.097  17.931  0.00  0.00    +0.000 N 
ATOM     11  H   UNL     1       2.303   9.336  17.008  0.00  0.00    +0.000 HD
BRANCH  10  12
ATOM     12  C   UNL     1       0.871   9.853  18.414  0.00  0.00    +0.000 A 
ATOM     13  C   UNL     1      -0.424   9.722  17.905  0.00  0.00    +0.000 A 
ATOM     14  C   UNL     1      -1.470  10.520  18.372  0.00  0.00    +0.000 A 
ATOM     15  C   UNL     1      -1.231  11.473  19.365  0.00  0.00    +0.000 A 
ATOM     16  C   UNL     1       0.060  11.601  19.898  0.00  0.00    +0.000 A 
ATOM     17  C   UNL     1       1.099  10.780  19.436  0.00  0.00    +0.000 A 
BRANCH  15  18
ATOM     18  N   UNL     1      -2.277  12.307  19.823  0.00  0.00    +0.000 N 
ATOM     19  C   UNL     1      -3.619  12.251  19.542  0.00  0.00    +0.000 A 
ATOM     20  N   UNL     1      -4.236  13.230  20.162  0.00  0.00    +0.000 NA
ATOM     21  N   UNL     1      -3.261  13.906  20.848  0.00  0.00    +0.000 NA
ATOM     22  N   UNL     1      -2.072  13.351  20.656  0.00  0.00    +0.000 NA
ENDBRANCH  15  18
ENDBRANCH  10  12
ENDBRANCH   1   9
BRANCH   6  23
ATOM     23  S   UNL     1       6.509   4.624  18.700  0.00  0.00    +0.000 S 
ATOM     24  O   UNL     1       7.629   4.226  17.879  0.00  0.00    +0.000 OA
ATOM     25  O   UNL     1       6.731   5.335  19.940  0.00  0.00    +0.000 OA
BRANCH  23  26
ATOM     26  N   UNL     1       5.584   3.281  19.092  0.00  0.00    +0.000 NA
ATOM     27  H   UNL     1       5.346   3.207  20.080  0.00  0.00    +0.000 HD
BRANCH  26  28
ATOM     28  C   UNL     1       4.475   2.946  18.189  0.00  0.00    +0.000 C 
BRANCH  28  29
ATOM     29  C   UNL     1       3.142   3.010  18.898  0.00  0.00    +0.000 A 
ATOM     30  C   UNL     1       1.986   2.512  18.278  0.00  0.00    +0.000 A 
ATOM     31  C   UNL     1       0.758   2.543  18.941  0.00  0.00    +0.000 A 
ATOM     32  C   UNL     1       0.671   3.070  20.228  0.00  0.00    +0.000 A 
ATOM     33  C   UNL     1       1.812   3.567  20.855  0.00  0.00    +0.000 A 
ATOM     34  C   UNL     1       3.043   3.538  20.194  0.00  0.00    +0.000 A 
ENDBRANCH  28  29
ENDBRANCH  26  28
ENDBRANCH  23  26
ENDBRANCH   6  23
TORSDOF 7
ENDMDL
MODEL 9
REMARK VINA RESULT:      -8.5      2.052      2.447
REMARK  Name = 
REMARK  7 active torsions:
REMARK  status: ('A' for Active; 'I' for Inactive)
REMARK    1  A    between atoms: C_2  and  C_15
REMARK    2  A    between atoms: N_3  and  C_4
REMARK    3  A    between atoms: C_7  and  N_8
REMARK    4  A    between atoms: C_20  and  S_21
REMARK    5  A    between atoms: S_21  and  N_24
REMARK    6  A    between atoms: N_24  and  C_25
REMARK    7  A    between atoms: C_25  and  C_26
REMARK                            x       y       z     vdW  Elec       q    Type
REMARK                         _______ _______ _______ _____ _____    ______ ____
ROOT
ATOM      1  C   UNL     1       2.344   6.924  19.337  0.00  0.00    +0.000 A 
ATOM      2  C   UNL     1       1.735   6.284  20.419  0.00  0.00    +0.000 A 
ATOM      3  C   UNL     1       2.112   4.988  20.770  0.00  0.00    +0.000 A 
ATOM      4  C   UNL     1       3.096   4.306  20.041  0.00  0.00    +0.000 A 
ATOM      5 CL   UNL     1       3.496   2.734  20.624  0.00  0.00    +0.000 Cl
ATOM      6  C   UNL     1       3.700   4.938  18.948  0.00  0.00    +0.000 A 
ATOM      7  C   UNL     1       3.326   6.257  18.601  0.00  0.00    +0.000 A 
ENDROOT
BRANCH   1   9
ATOM      8  O   UNL     1       2.494   8.878  18.114  0.00  0.00    +0.000 OA
ATOM      9  C   UNL     1       1.945   8.327  19.063  0.00  0.00    +0.000 C 
ATOM     10  N   UNL     1       1.038   8.901  19.940  0.00  0.00    +0.000 N 
ATOM     11  H   UNL     1       0.810   8.395  20.787  0.00  0.00    +0.000 HD
BRANCH  10  12
ATOM     12  C   UNL     1       0.578  10.234  19.861  0.00  0.00    +0.000 A 
ATOM     13  C   UNL     1      -0.180  10.713  18.789  0.00  0.00    +0.000 A 
ATOM     14  C   UNL     1      -0.576  12.049  18.721  0.00  0.00    +0.000 A 
ATOM     15  C   UNL     1      -0.212  12.938  19.735  0.00  0.00    +0.000 A 
ATOM     16  C   UNL     1       0.533  12.466  20.826  0.00  0.00    +0.000 A 
ATOM     17  C   UNL     1       0.907  11.117  20.895  0.00  0.00    +0.000 A 
BRANCH  15  18
ATOM     18  N   UNL     1      -0.581  14.301  19.659  0.00  0.00    +0.000 N 
ATOM     19  C   UNL     1      -0.122  15.280  18.814  0.00  0.00    +0.000 A 
ATOM     20  N   UNL     1      -0.719  16.414  19.096  0.00  0.00    +0.000 NA
ATOM     21  N   UNL     1      -1.572  16.136  20.132  0.00  0.00    +0.000 NA
ATOM     22  N   UNL     1      -1.503  14.857  20.476  0.00  0.00    +0.000 NA
ENDBRANCH  15  18
ENDBRANCH  10  12
ENDBRANCH   1   9
BRANCH   6  23
ATOM     23  S   UNL     1       4.813   4.107  17.827  0.00  0.00    +0.000 S 
ATOM     24  O   UNL     1       6.133   4.045  18.410  0.00  0.00    +0.000 OA
ATOM     25  O   UNL     1       4.130   2.893  17.439  0.00  0.00    +0.000 OA
BRANCH  23  26
ATOM     26  N   UNL     1       4.837   5.085  16.465  0.00  0.00    +0.000 NA
ATOM     27  H   UNL     1       4.157   5.844  16.479  0.00  0.00    +0.000 HD
BRANCH  26  28
ATOM     28  C   UNL     1       6.154   5.480  15.948  0.00  0.00    +0.000 C 
BRANCH  28  29
ATOM     29  C   UNL     1       6.405   4.910  14.571  0.00  0.00    +0.000 A 
ATOM     30  C   UNL     1       5.535   3.949  14.034  0.00  0.00    +0.000 A 
ATOM     31  C   UNL     1       5.747   3.441  12.752  0.00  0.00    +0.000 A 
ATOM     32  C   UNL     1       6.827   3.887  11.993  0.00  0.00    +0.000 A 
ATOM     33  C   UNL     1       7.699   4.840  12.515  0.00  0.00    +0.000 A 
ATOM     34  C   UNL     1       7.489   5.351  13.799  0.00  0.00    +0.000 A 
ENDBRANCH  28  29
ENDBRANCH  26  28
ENDBRANCH  23  26
ENDBRANCH   6  23
TORSDOF 7
ENDMDL
