MODEL 1
REMARK VINA RESULT:      -8.6      0.000      0.000
REMARK  Name = 
REMARK  4 active torsions:
REMARK  status: ('A' for Active; 'I' for Inactive)
REMARK    1  A    between atoms: C_2  and  C_15
REMARK    2  A    between atoms: N_3  and  C_4
REMARK    3  A    between atoms: C_8  and  C_9
REMARK    4  A    between atoms: N_18  and  C_19
REMARK                            x       y       z     vdW  Elec       q    Type
REMARK                         _______ _______ _______ _____ _____    ______ ____
ROOT
ATOM      1  O   UNL     1       3.802   5.875  19.830  0.00  0.00    +0.000 OA
ATOM      2  C   UNL     1       2.876   6.111  19.059  0.00  0.00    +0.000 C 
ATOM      3  N   UNL     1       2.223   5.200  18.254  0.00  0.00    +0.000 N 
ATOM      4  H   UNL     1       1.467   5.563  17.670  0.00  0.00    +0.000 HD
ENDROOT
BRANCH   3   5
ATOM      5  C   UNL     1       2.496   3.852  18.139  0.00  0.00    +0.000 A 
ATOM      6  C   UNL     1       1.711   2.801  18.544  0.00  0.00    +0.000 A 
ATOM      7  N   UNL     1       2.392   1.674  18.216  0.00  0.00    +0.000 N 
ATOM      8  N   UNL     1       3.577   1.903  17.633  0.00  0.00    +0.000 NA
ATOM      9  C   UNL     1       3.675   3.248  17.582  0.00  0.00    +0.000 A 
ATOM     10  H   UNL     1       2.109   0.711  18.364  0.00  0.00    +0.000 HD
BRANCH   9  11
ATOM     11  C   UNL     1       4.870   3.918  17.041  0.00  0.00    +0.000 A 
ATOM     12  C   UNL     1       4.951   4.236  15.684  0.00  0.00    +0.000 A 
ATOM     13  C   UNL     1       6.113   4.824  15.192  0.00  0.00    +0.000 A 
ATOM     14  C   UNL     1       7.161   5.085  16.063  0.00  0.00    +0.000 A 
ATOM     15  C   UNL     1       7.000   4.749  17.398  0.00  0.00    +0.000 A 
ATOM     16  N   UNL     1       5.887   4.173  17.910  0.00  0.00    +0.000 NA
ENDBRANCH   9  11
ENDBRANCH   3   5
BRANCH   2  17
ATOM     17  C   UNL     1       2.345   7.473  18.890  0.00  0.00    +0.000 A 
ATOM     18  C   UNL     1       2.496   8.333  17.779  0.00  0.00    +0.000 A 
ATOM     19  C   UNL     1       1.773   9.461  18.091  0.00  0.00    +0.000 A 
ATOM     20  N   UNL     1       1.237   9.258  19.341  0.00  0.00    +0.000 N 
ATOM     21  N   UNL     1       1.599   8.055  19.845  0.00  0.00    +0.000 NA
BRANCH  20  22
ATOM     22  C   UNL     1       0.386  10.114  20.093  0.00  0.00    +0.000 A 
ATOM     23  C   UNL     1      -0.266  11.174  19.437  0.00  0.00    +0.000 A 
ATOM     24  C   UNL     1      -1.088  12.052  20.147  0.00  0.00    +0.000 A 
ATOM     25  C   UNL     1      -1.261  11.878  21.516  0.00  0.00    +0.000 A 
ATOM     26  C   UNL     1      -0.619  10.825  22.160  0.00  0.00    +0.000 A 
ATOM     27  F   UNL     1      -0.788  10.665  23.479  0.00  0.00    +0.000 F 
ATOM     28  C   UNL     1       0.199   9.936  21.466  0.00  0.00    +0.000 A 
ENDBRANCH  20  22
ENDBRANCH   2  17
TORSDOF 4
ENDMDL
MODEL 2
REMARK VINA RESULT:      -8.5      0.863      1.325
REMARK  Name = 
REMARK  4 active torsions:
REMARK  status: ('A' for Active; 'I' for Inactive)
REMARK    1  A    between atoms: C_2  and  C_15
REMARK    2  A    between atoms: N_3  and  C_4
REMARK    3  A    between atoms: C_8  and  C_9
REMARK    4  A    between atoms: N_18  and  C_19
REMARK                            x       y       z     vdW  Elec       q    Type
REMARK                         _______ _______ _______ _____ _____    ______ ____
ROOT
ATOM      1  O   UNL     1       4.067   5.746  19.879  0.00  0.00    +0.000 OA
ATOM      2  C   UNL     1       2.985   5.924  19.325  0.00  0.00    +0.000 C 
ATOM      3  N   UNL     1       2.237   4.975  18.659  0.00  0.00    +0.000 N 
ATOM      4  H   UNL     1       1.352   5.290  18.254  0.00  0.00    +0.000 HD
ENDROOT
BRANCH   3   5
ATOM      5  C   UNL     1       2.565   3.650  18.463  0.00  0.00    +0.000 A 
ATOM      6  C   UNL     1       1.856   2.543  18.863  0.00  0.00    +0.000 A 
ATOM      7  N   UNL     1       2.567   1.467  18.442  0.00  0.00    +0.000 N 
ATOM      8  N   UNL     1       3.702   1.781  17.802  0.00  0.00    +0.000 NA
ATOM      9  C   UNL     1       3.734   3.130  17.810  0.00  0.00    +0.000 A 
ATOM     10  H   UNL     1       2.339   0.486  18.561  0.00  0.00    +0.000 HD
BRANCH   9  11
ATOM     11  C   UNL     1       4.861   3.883  17.232  0.00  0.00    +0.000 A 
ATOM     12  C   UNL     1       4.764   4.432  15.952  0.00  0.00    +0.000 A 
ATOM     13  C   UNL     1       5.863   5.095  15.412  0.00  0.00    +0.000 A 
ATOM     14  C   UNL     1       7.026   5.198  16.161  0.00  0.00    +0.000 A 
ATOM     15  C   UNL     1       7.041   4.634  17.427  0.00  0.00    +0.000 A 
ATOM     16  N   UNL     1       5.994   3.980  17.982  0.00  0.00    +0.000 NA
ENDBRANCH   9  11
ENDBRANCH   3   5
BRANCH   2  17
ATOM     17  C   UNL     1       2.343   7.249  19.297  0.00  0.00    +0.000 A 
ATOM     18  C   UNL     1       2.253   8.148  18.211  0.00  0.00    +0.000 A 
ATOM     19  C   UNL     1       1.517   9.212  18.679  0.00  0.00    +0.000 A 
ATOM     20  N   UNL     1       1.209   8.936  19.992  0.00  0.00    +0.000 N 
ATOM     21  N   UNL     1       1.728   7.748  20.383  0.00  0.00    +0.000 NA
BRANCH  20  22
ATOM     22  C   UNL     1       0.439   9.707  20.904  0.00  0.00    +0.000 A 
ATOM     23  C   UNL     1       0.268   9.237  22.220  0.00  0.00    +0.000 A 
ATOM     24  C   UNL     1      -0.504   9.952  23.137  0.00  0.00    +0.000 A 
ATOM     25  C   UNL     1      -1.113  11.139  22.745  0.00  0.00    +0.000 A 
ATOM     26  C   UNL     1      -0.938  11.604  21.446  0.00  0.00    +0.000 A 
ATOM     27  F   UNL     1      -1.531  12.747  21.074  0.00  0.00    +0.000 F 
ATOM     28  C   UNL     1      -0.165  10.907  20.519  0.00  0.00    +0.000 A 
ENDBRANCH  20  22
ENDBRANCH   2  17
TORSDOF 4
ENDMDL
MODEL 3
REMARK VINA RESULT:      -8.3      0.830      1.150
REMARK  Name = 
REMARK  4 active torsions:
REMARK  status: ('A' for Active; 'I' for Inactive)
REMARK    1  A    between atoms: C_2  and  C_15
REMARK    2  A    between atoms: N_3  and  C_4
REMARK    3  A    between atoms: C_8  and  C_9
REMARK    4  A    between atoms: N_18  and  C_19
REMARK                            x       y       z     vdW  Elec       q    Type
REMARK                         _______ _______ _______ _____ _____    ______ ____
ROOT
ATOM      1  O   UNL     1       3.047   5.562  20.463  0.00  0.00    +0.000 OA
ATOM      2  C   UNL     1       2.491   5.943  19.437  0.00  0.00    +0.000 C 
ATOM      3  N   UNL     1       2.166   5.169  18.342  0.00  0.00    +0.000 N 
ATOM      4  H   UNL     1       1.699   5.644  17.566  0.00  0.00    +0.000 HD
ENDROOT
BRANCH   3   5
ATOM      5  C   UNL     1       2.421   3.824  18.173  0.00  0.00    +0.000 A 
ATOM      6  C   UNL     1       1.556   2.775  18.370  0.00  0.00    +0.000 A 
ATOM      7  N   UNL     1       2.254   1.650  18.074  0.00  0.00    +0.000 N 
ATOM      8  N   UNL     1       3.523   1.876  17.706  0.00  0.00    +0.000 NA
ATOM      9  C   UNL     1       3.660   3.217  17.769  0.00  0.00    +0.000 A 
ATOM     10  H   UNL     1       1.928   0.690  18.105  0.00  0.00    +0.000 HD
BRANCH   9  11
ATOM     11  C   UNL     1       4.942   3.880  17.476  0.00  0.00    +0.000 A 
ATOM     12  C   UNL     1       5.708   4.430  18.506  0.00  0.00    +0.000 A 
ATOM     13  C   UNL     1       6.890   5.095  18.194  0.00  0.00    +0.000 A 
ATOM     14  C   UNL     1       7.282   5.191  16.866  0.00  0.00    +0.000 A 
ATOM     15  C   UNL     1       6.473   4.611  15.902  0.00  0.00    +0.000 A 
ATOM     16  N   UNL     1       5.316   3.961  16.169  0.00  0.00    +0.000 NA
ENDBRANCH   9  11
ENDBRANCH   3   5
BRANCH   2  17
ATOM     17  C   UNL     1       2.105   7.351  19.248  0.00  0.00    +0.000 A 
ATOM     18  C   UNL     1       2.197   8.127  18.071  0.00  0.00    +0.000 A 
ATOM     19  C   UNL     1       1.664   9.352  18.400  0.00  0.00    +0.000 A 
ATOM     20  N   UNL     1       1.291   9.283  19.723  0.00  0.00    +0.000 N 
ATOM     21  N   UNL     1       1.577   8.070  20.254  0.00  0.00    +0.000 NA
BRANCH  20  22
ATOM     22  C   UNL     1       0.664  10.276  20.522  0.00  0.00    +0.000 A 
ATOM     23  C   UNL     1       0.855  11.632  20.200  0.00  0.00    +0.000 A 
ATOM     24  C   UNL     1       0.277  12.637  20.978  0.00  0.00    +0.000 A 
ATOM     25  C   UNL     1      -0.493  12.294  22.084  0.00  0.00    +0.000 A 
ATOM     26  C   UNL     1      -0.685  10.952  22.396  0.00  0.00    +0.000 A 
ATOM     27  F   UNL     1      -1.425  10.629  23.465  0.00  0.00    +0.000 F 
ATOM     28  C   UNL     1      -0.121   9.936  21.627  0.00  0.00    +0.000 A 
ENDBRANCH  20  22
ENDBRANCH   2  17
TORSDOF 4
ENDMDL
MODEL 4
REMARK VINA RESULT:      -8.3      2.401      2.832
REMARK  Name = 
REMARK  4 active torsions:
REMARK  status: ('A' for Active; 'I' for Inactive)
REMARK    1  A    between atoms: C_2  and  C_15
REMARK    2  A    between atoms: N_3  and  C_4
REMARK    3  A    between atoms: C_8  and  C_9
REMARK    4  A    between atoms: N_18  and  C_19
REMARK                            x       y       z     vdW  Elec       q    Type
REMARK                         _______ _______ _______ _____ _____    ______ ____
ROOT
ATOM      1  O   UNL     1       2.323   6.368  18.008  0.00  0.00    +0.000 OA
ATOM      2  C   UNL     1       2.365   6.586  19.215  0.00  0.00    +0.000 C 
ATOM      3  N   UNL     1       2.912   5.766  20.181  0.00  0.00    +0.000 N 
ATOM      4  H   UNL     1       2.867   6.100  21.147  0.00  0.00    +0.000 HD
ENDROOT
BRANCH   3   5
ATOM      5  C   UNL     1       3.496   4.532  19.985  0.00  0.00    +0.000 A 
ATOM      6  C   UNL     1       2.985   3.301  20.317  0.00  0.00    +0.000 A 
ATOM      7  N   UNL     1       3.912   2.390  19.927  0.00  0.00    +0.000 N 
ATOM      8  N   UNL     1       5.006   2.929  19.372  0.00  0.00    +0.000 NA
ATOM      9  C   UNL     1       4.782   4.259  19.404  0.00  0.00    +0.000 A 
ATOM     10  H   UNL     1       3.866   1.380  20.013  0.00  0.00    +0.000 HD
BRANCH   9  11
ATOM     11  C   UNL     1       5.781   5.227  18.918  0.00  0.00    +0.000 A 
ATOM     12  C   UNL     1       5.549   5.959  17.752  0.00  0.00    +0.000 A 
ATOM     13  C   UNL     1       6.533   6.829  17.289  0.00  0.00    +0.000 A 
ATOM     14  C   UNL     1       7.718   6.950  18.000  0.00  0.00    +0.000 A 
ATOM     15  C   UNL     1       7.869   6.196  19.153  0.00  0.00    +0.000 A 
ATOM     16  N   UNL     1       6.937   5.338  19.630  0.00  0.00    +0.000 NA
ENDBRANCH   9  11
ENDBRANCH   3   5
BRANCH   2  17
ATOM     17  C   UNL     1       1.788   7.810  19.797  0.00  0.00    +0.000 A 
ATOM     18  C   UNL     1       1.506   8.077  21.155  0.00  0.00    +0.000 A 
ATOM     19  C   UNL     1       1.029   9.367  21.181  0.00  0.00    +0.000 A 
ATOM     20  N   UNL     1       1.027   9.817  19.880  0.00  0.00    +0.000 N 
ATOM     21  N   UNL     1       1.469   8.864  19.026  0.00  0.00    +0.000 NA
BRANCH  20  22
ATOM     22  C   UNL     1       0.654  11.096  19.383  0.00  0.00    +0.000 A 
ATOM     23  C   UNL     1      -0.713  11.418  19.288  0.00  0.00    +0.000 A 
ATOM     24  C   UNL     1      -1.118  12.654  18.779  0.00  0.00    +0.000 A 
ATOM     25  C   UNL     1      -0.163  13.573  18.359  0.00  0.00    +0.000 A 
ATOM     26  C   UNL     1       1.188  13.253  18.461  0.00  0.00    +0.000 A 
ATOM     27  F   UNL     1       2.102  14.141  18.052  0.00  0.00    +0.000 F 
ATOM     28  C   UNL     1       1.611  12.028  18.972  0.00  0.00    +0.000 A 
ENDBRANCH  20  22
ENDBRANCH   2  17
TORSDOF 4
ENDMDL
MODEL 5
REMARK VINA RESULT:      -8.3      1.665      2.192
REMARK  Name = 
REMARK  4 active torsions:
REMARK  status: ('A' for Active; 'I' for Inactive)
REMARK    1  A    between atoms: C_2  and  C_15
REMARK    2  A    between atoms: N_3  and  C_4
REMARK    3  A    between atoms: C_8  and  C_9
REMARK    4  A    between atoms: N_18  and  C_19
REMARK                            x       y       z     vdW  Elec       q    Type
REMARK                         _______ _______ _______ _____ _____    ______ ____
ROOT
ATOM      1  O   UNL     1       2.564   5.848  17.584  0.00  0.00    +0.000 OA
ATOM      2  C   UNL     1       2.552   6.346  18.706  0.00  0.00    +0.000 C 
ATOM      3  N   UNL     1       2.967   5.745  19.877  0.00  0.00    +0.000 N 
ATOM      4  H   UNL     1       2.893   6.302  20.731  0.00  0.00    +0.000 HD
ENDROOT
BRANCH   3   5
ATOM      5  C   UNL     1       3.455   4.462  20.022  0.00  0.00    +0.000 A 
ATOM      6  C   UNL     1       2.893   3.428  20.730  0.00  0.00    +0.000 A 
ATOM      7  N   UNL     1       3.727   2.369  20.574  0.00  0.00    +0.000 N 
ATOM      8  N   UNL     1       4.807   2.631  19.826  0.00  0.00    +0.000 NA
ATOM      9  C   UNL     1       4.672   3.927  19.477  0.00  0.00    +0.000 A 
ATOM     10  H   UNL     1       3.624   1.434  20.957  0.00  0.00    +0.000 HD
BRANCH   9  11
ATOM     11  C   UNL     1       5.690   4.625  18.673  0.00  0.00    +0.000 A 
ATOM     12  C   UNL     1       6.598   5.494  19.279  0.00  0.00    +0.000 A 
ATOM     13  C   UNL     1       7.516   6.178  18.487  0.00  0.00    +0.000 A 
ATOM     14  C   UNL     1       7.510   5.974  17.114  0.00  0.00    +0.000 A 
ATOM     15  C   UNL     1       6.584   5.088  16.589  0.00  0.00    +0.000 A 
ATOM     16  N   UNL     1       5.675   4.410  17.328  0.00  0.00    +0.000 NA
ENDBRANCH   9  11
ENDBRANCH   3   5
BRANCH   2  17
ATOM     17  C   UNL     1       2.047   7.709  18.938  0.00  0.00    +0.000 A 
ATOM     18  C   UNL     1       2.112   8.820  18.067  0.00  0.00    +0.000 A 
ATOM     19  C   UNL     1       1.459   9.837  18.725  0.00  0.00    +0.000 A 
ATOM     20  N   UNL     1       1.045   9.328  19.935  0.00  0.00    +0.000 N 
ATOM     21  N   UNL     1       1.419   8.035  20.082  0.00  0.00    +0.000 NA
BRANCH  20  22
ATOM     22  C   UNL     1       0.301   9.971  20.961  0.00  0.00    +0.000 A 
ATOM     23  C   UNL     1       0.217   9.360  22.226  0.00  0.00    +0.000 A 
ATOM     24  C   UNL     1      -0.527   9.947  23.252  0.00  0.00    +0.000 A 
ATOM     25  C   UNL     1      -1.194  11.145  23.019  0.00  0.00    +0.000 A 
ATOM     26  C   UNL     1      -1.103  11.749  21.769  0.00  0.00    +0.000 A 
ATOM     27  F   UNL     1      -1.751  12.901  21.551  0.00  0.00    +0.000 F 
ATOM     28  C   UNL     1      -0.360  11.181  20.736  0.00  0.00    +0.000 A 
ENDBRANCH  20  22
ENDBRANCH   2  17
TORSDOF 4
ENDMDL
MODEL 6
REMARK VINA RESULT:      -8.2      1.916      3.602
REMARK  Name = 
REMARK  4 active torsions:
REMARK  status: ('A' for Active; 'I' for Inactive)
REMARK    1  A    between atoms: C_2  and  C_15
REMARK    2  A    between atoms: N_3  and  C_4
REMARK    3  A    between atoms: C_8  and  C_9
REMARK    4  A    between atoms: N_18  and  C_19
REMARK                            x       y       z     vdW  Elec       q    Type
REMARK                         _______ _______ _______ _____ _____    ______ ____
ROOT
ATOM      1  O   UNL     1       2.277   5.960  17.519  0.00  0.00    +0.000 OA
ATOM      2  C   UNL     1       2.814   6.789  18.248  0.00  0.00    +0.000 C 
ATOM      3  N   UNL     1       4.048   6.674  18.856  0.00  0.00    +0.000 N 
ATOM      4  H   UNL     1       4.351   7.462  19.433  0.00  0.00    +0.000 HD
ENDROOT
BRANCH   3   5
ATOM      5  C   UNL     1       4.909   5.598  18.785  0.00  0.00    +0.000 A 
ATOM      6  C   UNL     1       6.197   5.586  18.309  0.00  0.00    +0.000 A 
ATOM      7  N   UNL     1       6.638   4.310  18.446  0.00  0.00    +0.000 N 
ATOM      8  N   UNL     1       5.730   3.473  18.966  0.00  0.00    +0.000 NA
ATOM      9  C   UNL     1       4.642   4.242  19.176  0.00  0.00    +0.000 A 
ATOM     10  H   UNL     1       7.549   3.937  18.200  0.00  0.00    +0.000 HD
BRANCH   9  11
ATOM     11  C   UNL     1       3.387   3.681  19.709  0.00  0.00    +0.000 A 
ATOM     12  C   UNL     1       2.816   2.546  19.130  0.00  0.00    +0.000 A 
ATOM     13  C   UNL     1       1.604   2.070  19.623  0.00  0.00    +0.000 A 
ATOM     14  C   UNL     1       0.996   2.731  20.681  0.00  0.00    +0.000 A 
ATOM     15  C   UNL     1       1.631   3.845  21.206  0.00  0.00    +0.000 A 
ATOM     16  N   UNL     1       2.806   4.338  20.750  0.00  0.00    +0.000 NA
ENDBRANCH   9  11
ENDBRANCH   3   5
BRANCH   2  17
ATOM     17  C   UNL     1       2.154   8.061  18.585  0.00  0.00    +0.000 A 
ATOM     18  C   UNL     1       1.986   9.198  17.763  0.00  0.00    +0.000 A 
ATOM     19  C   UNL     1       1.265  10.092  18.521  0.00  0.00    +0.000 A 
ATOM     20  N   UNL     1       1.038   9.491  19.738  0.00  0.00    +0.000 N 
ATOM     21  N   UNL     1       1.596   8.258  19.793  0.00  0.00    +0.000 NA
BRANCH  20  22
ATOM     22  C   UNL     1       0.313   9.990  20.854  0.00  0.00    +0.000 A 
ATOM     23  C   UNL     1       0.357   9.280  22.069  0.00  0.00    +0.000 A 
ATOM     24  C   UNL     1      -0.364   9.723  23.179  0.00  0.00    +0.000 A 
ATOM     25  C   UNL     1      -1.137  10.876  23.082  0.00  0.00    +0.000 A 
ATOM     26  C   UNL     1      -1.173  11.578  21.882  0.00  0.00    +0.000 A 
ATOM     27  F   UNL     1      -1.922  12.685  21.794  0.00  0.00    +0.000 F 
ATOM     28  C   UNL     1      -0.455  11.154  20.766  0.00  0.00    +0.000 A 
ENDBRANCH  20  22
ENDBRANCH   2  17
TORSDOF 4
ENDMDL
MODEL 7
REMARK VINA RESULT:      -8.2      1.507      1.554
REMARK  Name = 
REMARK  4 active torsions:
REMARK  status: ('A' for Active; 'I' for Inactive)
REMARK    1  A    between atoms: C_2  and  C_15
REMARK    2  A    between atoms: N_3  and  C_4
REMARK    3  A    between atoms: C_8  and  C_9
REMARK    4  A    between atoms: N_18  and  C_19
REMARK                            x       y       z     vdW  Elec       q    Type
REMARK                         _______ _______ _______ _____ _____    ______ ____
ROOT
ATOM      1  O   UNL     1       2.058   5.625  17.721  0.00  0.00    +0.000 OA
ATOM      2  C   UNL     1       2.342   6.282  18.719  0.00  0.00    +0.000 C 
ATOM      3  N   UNL     1       2.900   5.805  19.887  0.00  0.00    +0.000 N 
ATOM      4  H   UNL     1       3.077   6.491  20.625  0.00  0.00    +0.000 HD
ENDROOT
BRANCH   3   5
ATOM      5  C   UNL     1       3.228   4.497  20.175  0.00  0.00    +0.000 A 
ATOM      6  C   UNL     1       2.638   3.669  21.099  0.00  0.00    +0.000 A 
ATOM      7  N   UNL     1       3.293   2.484  21.016  0.00  0.00    +0.000 N 
ATOM      8  N   UNL     1       4.283   2.470  20.112  0.00  0.00    +0.000 NA
ATOM      9  C   UNL     1       4.274   3.711  19.581  0.00  0.00    +0.000 A 
ATOM     10  H   UNL     1       3.121   1.639  21.551  0.00  0.00    +0.000 HD
BRANCH   9  11
ATOM     11  C   UNL     1       5.253   4.125  18.561  0.00  0.00    +0.000 A 
ATOM     12  C   UNL     1       4.977   3.956  17.204  0.00  0.00    +0.000 A 
ATOM     13  C   UNL     1       5.942   4.310  16.265  0.00  0.00    +0.000 A 
ATOM     14  C   UNL     1       7.153   4.828  16.701  0.00  0.00    +0.000 A 
ATOM     15  C   UNL     1       7.348   4.974  18.065  0.00  0.00    +0.000 A 
ATOM     16  N   UNL     1       6.435   4.637  19.006  0.00  0.00    +0.000 NA
ENDBRANCH   9  11
ENDBRANCH   3   5
BRANCH   2  17
ATOM     17  C   UNL     1       2.085   7.731  18.784  0.00  0.00    +0.000 A 
ATOM     18  C   UNL     1       2.394   8.713  17.816  0.00  0.00    +0.000 A 
ATOM     19  C   UNL     1       1.907   9.893  18.328  0.00  0.00    +0.000 A 
ATOM     20  N   UNL     1       1.350   9.598  19.551  0.00  0.00    +0.000 N 
ATOM     21  N   UNL     1       1.473   8.283  19.846  0.00  0.00    +0.000 NA
BRANCH  20  22
ATOM     22  C   UNL     1       0.687  10.469  20.458  0.00  0.00    +0.000 A 
ATOM     23  C   UNL     1       0.775  11.859  20.257  0.00  0.00    +0.000 A 
ATOM     24  C   UNL     1       0.160  12.746  21.143  0.00  0.00    +0.000 A 
ATOM     25  C   UNL     1      -0.543  12.252  22.236  0.00  0.00    +0.000 A 
ATOM     26  C   UNL     1      -0.633  10.876  22.428  0.00  0.00    +0.000 A 
ATOM     27  F   UNL     1      -1.309  10.407  23.485  0.00  0.00    +0.000 F 
ATOM     28  C   UNL     1      -0.032   9.976  21.551  0.00  0.00    +0.000 A 
ENDBRANCH  20  22
ENDBRANCH   2  17
TORSDOF 4
ENDMDL
MODEL 8
REMARK VINA RESULT:      -8.2      1.341      1.821
REMARK  Name = 
REMARK  4 active torsions:
REMARK  status: ('A' for Active; 'I' for Inactive)
REMARK    1  A    between atoms: C_2  and  C_15
REMARK    2  A    between atoms: N_3  and  C_4
REMARK    3  A    between atoms: C_8  and  C_9
REMARK    4  A    between atoms: N_18  and  C_19
REMARK                            x       y       z     vdW  Elec       q    Type
REMARK                         _______ _______ _______ _____ _____    ______ ____
ROOT
ATOM      1  O   UNL     1       3.475   6.300  17.202  0.00  0.00    +0.000 OA
ATOM      2  C   UNL     1       2.810   6.456  18.222  0.00  0.00    +0.000 C 
ATOM      3  N   UNL     1       2.484   5.485  19.147  0.00  0.00    +0.000 N 
ATOM      4  H   UNL     1       1.922   5.784  19.948  0.00  0.00    +0.000 HD
ENDROOT
BRANCH   3   5
ATOM      5  C   UNL     1       2.818   4.147  19.097  0.00  0.00    +0.000 A 
ATOM      6  C   UNL     1       1.991   3.069  19.296  0.00  0.00    +0.000 A 
ATOM      7  N   UNL     1       2.765   1.966  19.140  0.00  0.00    +0.000 N 
ATOM      8  N   UNL     1       4.048   2.236  18.863  0.00  0.00    +0.000 NA
ATOM      9  C   UNL     1       4.114   3.583  18.842  0.00  0.00    +0.000 A 
ATOM     10  H   UNL     1       2.484   0.994  19.212  0.00  0.00    +0.000 HD
BRANCH   9  11
ATOM     11  C   UNL     1       5.384   4.294  18.609  0.00  0.00    +0.000 A 
ATOM     12  C   UNL     1       6.066   4.149  17.400  0.00  0.00    +0.000 A 
ATOM     13  C   UNL     1       7.288   4.793  17.229  0.00  0.00    +0.000 A 
ATOM     14  C   UNL     1       7.797   5.568  18.261  0.00  0.00    +0.000 A 
ATOM     15  C   UNL     1       7.055   5.669  19.427  0.00  0.00    +0.000 A 
ATOM     16  N   UNL     1       5.867   5.055  19.631  0.00  0.00    +0.000 NA
ENDBRANCH   9  11
ENDBRANCH   3   5
BRANCH   2  17
ATOM     17  C   UNL     1       2.244   7.767  18.579  0.00  0.00    +0.000 A 
ATOM     18  C   UNL     1       2.185   8.934  17.784  0.00  0.00    +0.000 A 
ATOM     19  C   UNL     1       1.519   9.862  18.551  0.00  0.00    +0.000 A 
ATOM     20  N   UNL     1       1.218   9.251  19.746  0.00  0.00    +0.000 N 
ATOM     21  N   UNL     1       1.676   7.977  19.780  0.00  0.00    +0.000 NA
BRANCH  20  22
ATOM     22  C   UNL     1       0.509   9.778  20.860  0.00  0.00    +0.000 A 
ATOM     23  C   UNL     1       0.594   9.114  22.098  0.00  0.00    +0.000 A 
ATOM     24  C   UNL     1      -0.111   9.586  23.208  0.00  0.00    +0.000 A 
ATOM     25  C   UNL     1      -0.906  10.720  23.087  0.00  0.00    +0.000 A 
ATOM     26  C   UNL     1      -0.983  11.377  21.863  0.00  0.00    +0.000 A 
ATOM     27  F   UNL     1      -1.754  12.467  21.753  0.00  0.00    +0.000 F 
ATOM     28  C   UNL     1      -0.282  10.925  20.747  0.00  0.00    +0.000 A 
ENDBRANCH  20  22
ENDBRANCH   2  17
TORSDOF 4
ENDMDL
MODEL 9
REMARK VINA RESULT:      -8.2      1.612      1.870
REMARK  Name = 
REMARK  4 active torsions:
REMARK  status: ('A' for Active; 'I' for Inactive)
REMARK    1  A    between atoms: C_2  and  C_15
REMARK    2  A    between atoms: N_3  and  C_4
REMARK    3  A    between atoms: C_8  and  C_9
REMARK    4  A    between atoms: N_18  and  C_19
REMARK                            x       y       z     vdW  Elec       q    Type
REMARK                         _______ _______ _______ _____ _____    ______ ____
ROOT
ATOM      1  O   UNL     1       2.040   5.407  17.767  0.00  0.00    +0.000 OA
ATOM      2  C   UNL     1       2.370   6.051  18.759  0.00  0.00    +0.000 C 
ATOM      3  N   UNL     1       3.050   5.574  19.860  0.00  0.00    +0.000 N 
ATOM      4  H   UNL     1       3.251   6.247  20.603  0.00  0.00    +0.000 HD
ENDROOT
BRANCH   3   5
ATOM      5  C   UNL     1       3.473   4.278  20.076  0.00  0.00    +0.000 A 
ATOM      6  C   UNL     1       2.983   3.379  20.991  0.00  0.00    +0.000 A 
ATOM      7  N   UNL     1       3.706   2.242  20.826  0.00  0.00    +0.000 N 
ATOM      8  N   UNL     1       4.647   2.327  19.877  0.00  0.00    +0.000 NA
ATOM      9  C   UNL     1       4.534   3.585  19.400  0.00  0.00    +0.000 A 
ATOM     10  H   UNL     1       3.613   1.367  21.333  0.00  0.00    +0.000 HD
BRANCH   9  11
ATOM     11  C   UNL     1       5.433   4.101  18.353  0.00  0.00    +0.000 A 
ATOM     12  C   UNL     1       5.051   4.064  17.010  0.00  0.00    +0.000 A 
ATOM     13  C   UNL     1       5.942   4.512  16.039  0.00  0.00    +0.000 A 
ATOM     14  C   UNL     1       7.185   4.990  16.428  0.00  0.00    +0.000 A 
ATOM     15  C   UNL     1       7.486   5.003  17.781  0.00  0.00    +0.000 A 
ATOM     16  N   UNL     1       6.647   4.571  18.752  0.00  0.00    +0.000 NA
ENDBRANCH   9  11
ENDBRANCH   3   5
BRANCH   2  17
ATOM     17  C   UNL     1       2.040   7.479  18.893  0.00  0.00    +0.000 A 
ATOM     18  C   UNL     1       2.243   8.511  17.949  0.00  0.00    +0.000 A 
ATOM     19  C   UNL     1       1.722   9.644  18.531  0.00  0.00    +0.000 A 
ATOM     20  N   UNL     1       1.249   9.275  19.769  0.00  0.00    +0.000 N 
ATOM     21  N   UNL     1       1.458   7.958  20.007  0.00  0.00    +0.000 NA
BRANCH  20  22
ATOM     22  C   UNL     1       0.592  10.074  20.744  0.00  0.00    +0.000 A 
ATOM     23  C   UNL     1       0.004   9.446  21.858  0.00  0.00    +0.000 A 
ATOM     24  C   UNL     1      -0.674  10.194  22.822  0.00  0.00    +0.000 A 
ATOM     25  C   UNL     1      -0.772  11.574  22.678  0.00  0.00    +0.000 A 
ATOM     26  C   UNL     1      -0.184  12.193  21.579  0.00  0.00    +0.000 A 
ATOM     27  F   UNL     1      -0.285  13.522  21.445  0.00  0.00    +0.000 F 
ATOM     28  C   UNL     1       0.502  11.462  20.611  0.00  0.00    +0.000 A 
ENDBRANCH  20  22
ENDBRANCH   2  17
TORSDOF 4
ENDMDL
