MODEL 1
REMARK VINA RESULT:      -9.7      0.000      0.000
REMARK  Name = 
REMARK  5 active torsions:
REMARK  status: ('A' for Active; 'I' for Inactive)
REMARK    1  A    between atoms: C_1  and  C_2
REMARK    2  A    between atoms: C_6  and  C_7
REMARK    3  A    between atoms: N_13  and  C_14
REMARK    4  A    between atoms: C_14  and  C_15
REMARK    5  A    between atoms: N_23  and  C_24
REMARK                            x       y       z     vdW  Elec       q    Type
REMARK                         _______ _______ _______ _____ _____    ______ ____
ROOT
ATOM      1  C   UNL     1       4.564   5.498  17.924  0.00  0.00    +0.000 C 
ATOM      2  C   UNL     1       4.229   5.316  19.410  0.00  0.00    +0.000 C 
ATOM      3  C   UNL     1       2.783   5.781  19.655  0.00  0.00    +0.000 C 
ATOM      4  N   UNL     1       2.566   7.151  19.169  0.00  0.00    +0.000 N 
ATOM      5  C   UNL     1       1.764   7.998  19.918  0.00  0.00    +0.000 C 
ATOM      6  O   UNL     1       1.257   7.656  20.989  0.00  0.00    +0.000 OA
ATOM      7  N   UNL     1       1.561   9.248  19.390  0.00  0.00    +0.000 N 
ATOM      8  C   UNL     1       2.945   7.381  17.775  0.00  0.00    +0.000 C 
ATOM      9  C   UNL     1       4.396   6.978  17.551  0.00  0.00    +0.000 C 
ATOM     10  H   UNL     1       2.344   9.628  18.873  0.00  0.00    +0.000 HD
ENDROOT
BRANCH   1  16
ATOM     11  C   UNL     1       5.411   4.840  14.906  0.00  0.00    +0.000 C 
ATOM     12  C   UNL     1       6.260   4.712  16.118  0.00  0.00    +0.000 A 
ATOM     13  N   UNL     1       7.543   4.350  16.012  0.00  0.00    +0.000 NA
ATOM     14  N   UNL     1       7.995   4.385  17.268  0.00  0.00    +0.000 N 
ATOM     15  C   UNL     1       7.041   4.716  18.188  0.00  0.00    +0.000 A 
ATOM     16  C   UNL     1       5.888   4.968  17.471  0.00  0.00    +0.000 A 
ATOM     17  H   UNL     1       8.977   4.191  17.432  0.00  0.00    +0.000 HD
ENDBRANCH   1  16
BRANCH   7  18
ATOM     18  C   UNL     1       0.843  10.258  20.142  0.00  0.00    +0.000 C 
BRANCH  18  19
ATOM     19  C   UNL     1      -0.441  10.630  19.455  0.00  0.00    +0.000 A 
ATOM     20  C   UNL     1      -0.763  10.151  18.244  0.00  0.00    +0.000 A 
ATOM     21  C   UNL     1      -2.021  10.497  17.597  0.00  0.00    +0.000 A 
ATOM     22  C   UNL     1      -2.322   9.948  16.342  0.00  0.00    +0.000 A 
ATOM     23  C   UNL     1      -3.497  10.296  15.681  0.00  0.00    +0.000 A 
ATOM     24  C   UNL     1      -4.372  11.196  16.272  0.00  0.00    +0.000 A 
ATOM     25  C   UNL     1      -4.084  11.735  17.536  0.00  0.00    +0.000 A 
ATOM     26  C   UNL     1      -2.911  11.388  18.222  0.00  0.00    +0.000 A 
ATOM     27  N   UNL     1      -2.581  11.882  19.523  0.00  0.00    +0.000 N 
ATOM     28  C   UNL     1      -3.461  12.768  20.261  0.00  0.00    +0.000 C 
ATOM     29  C   UNL     1      -1.404  11.507  20.184  0.00  0.00    +0.000 A 
ATOM     30  O   UNL     1      -1.127  11.884  21.324  0.00  0.00    +0.000 OA
ENDBRANCH  18  19
ENDBRANCH   7  18
TORSDOF 3
ENDMDL
MODEL 2
REMARK VINA RESULT:      -9.2      0.332      1.147
REMARK  Name = 
REMARK  5 active torsions:
REMARK  status: ('A' for Active; 'I' for Inactive)
REMARK    1  A    between atoms: C_1  and  C_2
REMARK    2  A    between atoms: C_6  and  C_7
REMARK    3  A    between atoms: N_13  and  C_14
REMARK    4  A    between atoms: C_14  and  C_15
REMARK    5  A    between atoms: N_23  and  C_24
REMARK                            x       y       z     vdW  Elec       q    Type
REMARK                         _______ _______ _______ _____ _____    ______ ____
ROOT
ATOM      1  C   UNL     1       4.515   5.528  17.800  0.00  0.00    +0.000 C 
ATOM      2  C   UNL     1       4.296   5.379  19.311  0.00  0.00    +0.000 C 
ATOM      3  C   UNL     1       2.856   5.803  19.650  0.00  0.00    +0.000 C 
ATOM      4  N   UNL     1       2.556   7.151  19.144  0.00  0.00    +0.000 N 
ATOM      5  C   UNL     1       1.782   7.993  19.927  0.00  0.00    +0.000 C 
ATOM      6  O   UNL     1       1.367   7.666  21.042  0.00  0.00    +0.000 OA
ATOM      7  N   UNL     1       1.496   9.219  19.382  0.00  0.00    +0.000 N 
ATOM      8  C   UNL     1       2.824   7.351  17.720  0.00  0.00    +0.000 C 
ATOM      9  C   UNL     1       4.268   6.990  17.400  0.00  0.00    +0.000 C 
ATOM     10  H   UNL     1       2.226   9.609  18.798  0.00  0.00    +0.000 HD
ENDROOT
BRANCH   1  16
ATOM     11  C   UNL     1       7.360   5.706  19.263  0.00  0.00    +0.000 C 
ATOM     12  C   UNL     1       7.073   5.087  17.944  0.00  0.00    +0.000 A 
ATOM     13  N   UNL     1       8.040   4.462  17.264  0.00  0.00    +0.000 NA
ATOM     14  N   UNL     1       7.423   3.997  16.174  0.00  0.00    +0.000 N 
ATOM     15  C   UNL     1       6.100   4.335  16.104  0.00  0.00    +0.000 A 
ATOM     16  C   UNL     1       5.820   5.029  17.264  0.00  0.00    +0.000 A 
ATOM     17  H   UNL     1       7.958   3.436  15.520  0.00  0.00    +0.000 HD
ENDBRANCH   1  16
BRANCH   7  18
ATOM     18  C   UNL     1       0.801  10.226  20.157  0.00  0.00    +0.000 C 
BRANCH  18  19
ATOM     19  C   UNL     1      -0.489  10.621  19.493  0.00  0.00    +0.000 A 
ATOM     20  C   UNL     1      -0.839  10.152  18.287  0.00  0.00    +0.000 A 
ATOM     21  C   UNL     1      -2.101  10.521  17.662  0.00  0.00    +0.000 A 
ATOM     22  C   UNL     1      -2.433   9.981  16.410  0.00  0.00    +0.000 A 
ATOM     23  C   UNL     1      -3.613  10.350  15.770  0.00  0.00    +0.000 A 
ATOM     24  C   UNL     1      -4.463  11.263  16.379  0.00  0.00    +0.000 A 
ATOM     25  C   UNL     1      -4.145  11.793  17.639  0.00  0.00    +0.000 A 
ATOM     26  C   UNL     1      -2.966  11.425  18.304  0.00  0.00    +0.000 A 
ATOM     27  N   UNL     1      -2.605  11.909  19.601  0.00  0.00    +0.000 N 
ATOM     28  C   UNL     1      -3.458  12.807  20.356  0.00  0.00    +0.000 C 
ATOM     29  C   UNL     1      -1.424  11.512  20.241  0.00  0.00    +0.000 A 
ATOM     30  O   UNL     1      -1.121  11.881  21.377  0.00  0.00    +0.000 OA
ENDBRANCH  18  19
ENDBRANCH   7  18
TORSDOF 3
ENDMDL
MODEL 3
REMARK VINA RESULT:      -8.5      2.559      2.964
REMARK  Name = 
REMARK  5 active torsions:
REMARK  status: ('A' for Active; 'I' for Inactive)
REMARK    1  A    between atoms: C_1  and  C_2
REMARK    2  A    between atoms: C_6  and  C_7
REMARK    3  A    between atoms: N_13  and  C_14
REMARK    4  A    between atoms: C_14  and  C_15
REMARK    5  A    between atoms: N_23  and  C_24
REMARK                            x       y       z     vdW  Elec       q    Type
REMARK                         _______ _______ _______ _____ _____    ______ ____
ROOT
ATOM      1  C   UNL     1       4.299   5.385  17.021  0.00  0.00    +0.000 C 
ATOM      2  C   UNL     1       4.068   4.526  18.270  0.00  0.00    +0.000 C 
ATOM      3  C   UNL     1       2.695   4.877  18.870  0.00  0.00    +0.000 C 
ATOM      4  N   UNL     1       2.568   6.320  19.119  0.00  0.00    +0.000 N 
ATOM      5  C   UNL     1       1.910   6.737  20.267  0.00  0.00    +0.000 C 
ATOM      6  O   UNL     1       1.461   5.944  21.098  0.00  0.00    +0.000 OA
ATOM      7  N   UNL     1       1.782   8.094  20.421  0.00  0.00    +0.000 N 
ATOM      8  C   UNL     1       2.855   7.176  17.967  0.00  0.00    +0.000 C 
ATOM      9  C   UNL     1       4.239   6.868  17.415  0.00  0.00    +0.000 C 
ATOM     10  H   UNL     1       2.553   8.642  20.060  0.00  0.00    +0.000 HD
ENDROOT
BRANCH   1  16
ATOM     11  C   UNL     1       7.295   5.208  18.142  0.00  0.00    +0.000 C 
ATOM     12  C   UNL     1       6.851   4.975  16.744  0.00  0.00    +0.000 A 
ATOM     13  N   UNL     1       7.726   4.584  15.811  0.00  0.00    +0.000 NA
ATOM     14  N   UNL     1       6.982   4.428  14.713  0.00  0.00    +0.000 N 
ATOM     15  C   UNL     1       5.665   4.745  14.890  0.00  0.00    +0.000 A 
ATOM     16  C   UNL     1       5.528   5.082  16.223  0.00  0.00    +0.000 A 
ATOM     17  H   UNL     1       7.432   4.082  13.872  0.00  0.00    +0.000 HD
ENDBRANCH   1  16
BRANCH   7  18
ATOM     18  C   UNL     1       1.223   8.648  21.638  0.00  0.00    +0.000 C 
BRANCH  18  19
ATOM     19  C   UNL     1       0.639  10.010  21.391  0.00  0.00    +0.000 A 
ATOM     20  C   UNL     1       0.822  10.662  20.233  0.00  0.00    +0.000 A 
ATOM     21  C   UNL     1       0.231  11.972  19.994  0.00  0.00    +0.000 A 
ATOM     22  C   UNL     1       0.431  12.600  18.755  0.00  0.00    +0.000 A 
ATOM     23  C   UNL     1      -0.085  13.870  18.515  0.00  0.00    +0.000 A 
ATOM     24  C   UNL     1      -0.800  14.517  19.514  0.00  0.00    +0.000 A 
ATOM     25  C   UNL     1      -1.018  13.886  20.748  0.00  0.00    +0.000 A 
ATOM     26  C   UNL     1      -0.515  12.602  21.005  0.00  0.00    +0.000 A 
ATOM     27  N   UNL     1      -0.732  11.899  22.232  0.00  0.00    +0.000 N 
ATOM     28  C   UNL     1      -1.527  12.453  23.311  0.00  0.00    +0.000 C 
ATOM     29  C   UNL     1      -0.222  10.612  22.451  0.00  0.00    +0.000 A 
ATOM     30  O   UNL     1      -0.439   9.973  23.482  0.00  0.00    +0.000 OA
ENDBRANCH  18  19
ENDBRANCH   7  18
TORSDOF 3
ENDMDL
MODEL 4
REMARK VINA RESULT:      -8.5      1.745      2.503
REMARK  Name = 
REMARK  5 active torsions:
REMARK  status: ('A' for Active; 'I' for Inactive)
REMARK    1  A    between atoms: C_1  and  C_2
REMARK    2  A    between atoms: C_6  and  C_7
REMARK    3  A    between atoms: N_13  and  C_14
REMARK    4  A    between atoms: C_14  and  C_15
REMARK    5  A    between atoms: N_23  and  C_24
REMARK                            x       y       z     vdW  Elec       q    Type
REMARK                         _______ _______ _______ _____ _____    ______ ____
ROOT
ATOM      1  C   UNL     1       4.374   5.209  16.811  0.00  0.00    +0.000 C 
ATOM      2  C   UNL     1       4.481   4.456  18.143  0.00  0.00    +0.000 C 
ATOM      3  C   UNL     1       3.156   4.613  18.912  0.00  0.00    +0.000 C 
ATOM      4  N   UNL     1       2.785   6.027  19.066  0.00  0.00    +0.000 N 
ATOM      5  C   UNL     1       2.216   6.434  20.263  0.00  0.00    +0.000 C 
ATOM      6  O   UNL     1       2.043   5.664  21.210  0.00  0.00    +0.000 OA
ATOM      7  N   UNL     1       1.848   7.754  20.330  0.00  0.00    +0.000 N 
ATOM      8  C   UNL     1       2.746   6.796  17.822  0.00  0.00    +0.000 C 
ATOM      9  C   UNL     1       4.079   6.689  17.095  0.00  0.00    +0.000 C 
ATOM     10  H   UNL     1       2.444   8.392  19.817  0.00  0.00    +0.000 HD
ENDROOT
BRANCH   1  16
ATOM     11  C   UNL     1       7.341   6.343  17.224  0.00  0.00    +0.000 C 
ATOM     12  C   UNL     1       6.846   5.536  16.079  0.00  0.00    +0.000 A 
ATOM     13  N   UNL     1       7.683   5.148  15.111  0.00  0.00    +0.000 NA
ATOM     14  N   UNL     1       6.920   4.417  14.295  0.00  0.00    +0.000 N 
ATOM     15  C   UNL     1       5.609   4.353  14.677  0.00  0.00    +0.000 A 
ATOM     16  C   UNL     1       5.521   5.053  15.865  0.00  0.00    +0.000 A 
ATOM     17  H   UNL     1       7.359   3.969  13.498  0.00  0.00    +0.000 HD
ENDBRANCH   1  16
BRANCH   7  18
ATOM     18  C   UNL     1       1.358   8.321  21.570  0.00  0.00    +0.000 C 
BRANCH  18  19
ATOM     19  C   UNL     1       0.348   9.403  21.306  0.00  0.00    +0.000 A 
ATOM     20  C   UNL     1      -0.137   9.636  20.077  0.00  0.00    +0.000 A 
ATOM     21  C   UNL     1      -1.133  10.671  19.835  0.00  0.00    +0.000 A 
ATOM     22  C   UNL     1      -1.628  10.857  18.535  0.00  0.00    +0.000 A 
ATOM     23  C   UNL     1      -2.548  11.867  18.267  0.00  0.00    +0.000 A 
ATOM     24  C   UNL     1      -2.973  12.695  19.297  0.00  0.00    +0.000 A 
ATOM     25  C   UNL     1      -2.494  12.502  20.602  0.00  0.00    +0.000 A 
ATOM     26  C   UNL     1      -1.575  11.483  20.893  0.00  0.00    +0.000 A 
ATOM     27  N   UNL     1      -1.077  11.220  22.209  0.00  0.00    +0.000 N 
ATOM     28  C   UNL     1      -1.512  11.978  23.367  0.00  0.00    +0.000 C 
ATOM     29  C   UNL     1      -0.166  10.188  22.466  0.00  0.00    +0.000 A 
ATOM     30  O   UNL     1       0.236   9.916  23.599  0.00  0.00    +0.000 OA
ENDBRANCH  18  19
ENDBRANCH   7  18
TORSDOF 3
ENDMDL
MODEL 5
REMARK VINA RESULT:      -8.4      2.172      3.346
REMARK  Name = 
REMARK  5 active torsions:
REMARK  status: ('A' for Active; 'I' for Inactive)
REMARK    1  A    between atoms: C_1  and  C_2
REMARK    2  A    between atoms: C_6  and  C_7
REMARK    3  A    between atoms: N_13  and  C_14
REMARK    4  A    between atoms: C_14  and  C_15
REMARK    5  A    between atoms: N_23  and  C_24
REMARK                            x       y       z     vdW  Elec       q    Type
REMARK                         _______ _______ _______ _____ _____    ______ ____
ROOT
ATOM      1  C   UNL     1       4.250   5.449  16.993  0.00  0.00    +0.000 C 
ATOM      2  C   UNL     1       4.001   4.538  18.201  0.00  0.00    +0.000 C 
ATOM      3  C   UNL     1       2.646   4.905  18.832  0.00  0.00    +0.000 C 
ATOM      4  N   UNL     1       2.569   6.337  19.153  0.00  0.00    +0.000 N 
ATOM      5  C   UNL     1       1.936   6.718  20.326  0.00  0.00    +0.000 C 
ATOM      6  O   UNL     1       1.468   5.901  21.122  0.00  0.00    +0.000 OA
ATOM      7  N   UNL     1       1.855   8.070  20.547  0.00  0.00    +0.000 N 
ATOM      8  C   UNL     1       2.874   7.238  18.041  0.00  0.00    +0.000 C 
ATOM      9  C   UNL     1       4.243   6.912  17.460  0.00  0.00    +0.000 C 
ATOM     10  H   UNL     1       2.640   8.609  20.205  0.00  0.00    +0.000 HD
ENDROOT
BRANCH   1  16
ATOM     11  C   UNL     1       7.298   5.603  17.968  0.00  0.00    +0.000 C 
ATOM     12  C   UNL     1       6.810   5.187  16.628  0.00  0.00    +0.000 A 
ATOM     13  N   UNL     1       7.669   4.757  15.698  0.00  0.00    +0.000 NA
ATOM     14  N   UNL     1       6.890   4.430  14.663  0.00  0.00    +0.000 N 
ATOM     15  C   UNL     1       5.562   4.673  14.874  0.00  0.00    +0.000 A 
ATOM     16  C   UNL     1       5.460   5.146  16.168  0.00  0.00    +0.000 A 
ATOM     17  H   UNL     1       7.326   4.026  13.841  0.00  0.00    +0.000 HD
ENDBRANCH   1  16
BRANCH   7  18
ATOM     18  C   UNL     1       1.326   8.581  21.795  0.00  0.00    +0.000 C 
BRANCH  18  19
ATOM     19  C   UNL     1       0.382   9.726  21.552  0.00  0.00    +0.000 A 
ATOM     20  C   UNL     1      -0.462  10.164  22.498  0.00  0.00    +0.000 A 
ATOM     21  C   UNL     1      -1.356  11.289  22.260  0.00  0.00    +0.000 A 
ATOM     22  C   UNL     1      -2.201  11.726  23.292  0.00  0.00    +0.000 A 
ATOM     23  C   UNL     1      -3.096  12.770  23.079  0.00  0.00    +0.000 A 
ATOM     24  C   UNL     1      -3.151  13.379  21.833  0.00  0.00    +0.000 A 
ATOM     25  C   UNL     1      -2.297  12.958  20.803  0.00  0.00    +0.000 A 
ATOM     26  C   UNL     1      -1.381  11.914  21.002  0.00  0.00    +0.000 A 
ATOM     27  N   UNL     1      -0.465  11.464  19.999  0.00  0.00    +0.000 N 
ATOM     28  C   UNL     1      -0.389  12.080  18.687  0.00  0.00    +0.000 C 
ATOM     29  C   UNL     1       0.444  10.424  20.234  0.00  0.00    +0.000 A 
ATOM     30  O   UNL     1       1.272  10.056  19.399  0.00  0.00    +0.000 OA
ENDBRANCH  18  19
ENDBRANCH   7  18
TORSDOF 3
ENDMDL
MODEL 6
REMARK VINA RESULT:      -8.4      4.255      5.233
REMARK  Name = 
REMARK  5 active torsions:
REMARK  status: ('A' for Active; 'I' for Inactive)
REMARK    1  A    between atoms: C_1  and  C_2
REMARK    2  A    between atoms: C_6  and  C_7
REMARK    3  A    between atoms: N_13  and  C_14
REMARK    4  A    between atoms: C_14  and  C_15
REMARK    5  A    between atoms: N_23  and  C_24
REMARK                            x       y       z     vdW  Elec       q    Type
REMARK                         _______ _______ _______ _____ _____    ______ ____
ROOT
ATOM      1  C   UNL     1       2.215   7.409  18.542  0.00  0.00    +0.000 C 
ATOM      2  C   UNL     1       2.209   7.511  20.072  0.00  0.00    +0.000 C 
ATOM      3  C   UNL     1       1.046   8.422  20.506  0.00  0.00    +0.000 C 
ATOM      4  N   UNL     1       1.101   9.727  19.831  0.00  0.00    +0.000 N 
ATOM      5  C   UNL     1       0.764  10.860  20.556  0.00  0.00    +0.000 C 
ATOM      6  O   UNL     1       0.455  10.816  21.749  0.00  0.00    +0.000 OA
ATOM      7  N   UNL     1       0.789  12.042  19.860  0.00  0.00    +0.000 N 
ATOM      8  C   UNL     1       1.184   9.666  18.371  0.00  0.00    +0.000 C 
ATOM      9  C   UNL     1       2.372   8.815  17.947  0.00  0.00    +0.000 C 
ATOM     10  H   UNL     1       1.499  12.101  19.140  0.00  0.00    +0.000 HD
ENDROOT
BRANCH   1  16
ATOM     11  C   UNL     1       1.831   4.243  18.243  0.00  0.00    +0.000 C 
ATOM     12  C   UNL     1       2.994   5.046  17.788  0.00  0.00    +0.000 A 
ATOM     13  N   UNL     1       3.997   4.469  17.119  0.00  0.00    +0.000 NA
ATOM     14  N   UNL     1       4.823   5.479  16.835  0.00  0.00    +0.000 N 
ATOM     15  C   UNL     1       4.411   6.684  17.333  0.00  0.00    +0.000 A 
ATOM     16  C   UNL     1       3.195   6.450  17.944  0.00  0.00    +0.000 A 
ATOM     17  H   UNL     1       5.648   5.285  16.277  0.00  0.00    +0.000 HD
ENDBRANCH   1  16
BRANCH   7  18
ATOM     18  C   UNL     1       0.576  13.303  20.541  0.00  0.00    +0.000 C 
BRANCH  18  19
ATOM     19  C   UNL     1       0.878  14.463  19.633  0.00  0.00    +0.000 A 
ATOM     20  C   UNL     1      -0.060  15.358  19.288  0.00  0.00    +0.000 A 
ATOM     21  C   UNL     1       0.248  16.492  18.428  0.00  0.00    +0.000 A 
ATOM     22  C   UNL     1      -0.763  17.414  18.118  0.00  0.00    +0.000 A 
ATOM     23  C   UNL     1      -0.508  18.483  17.263  0.00  0.00    +0.000 A 
ATOM     24  C   UNL     1       0.758  18.630  16.714  0.00  0.00    +0.000 A 
ATOM     25  C   UNL     1       1.777  17.721  17.034  0.00  0.00    +0.000 A 
ATOM     26  C   UNL     1       1.542  16.644  17.902  0.00  0.00    +0.000 A 
ATOM     27  N   UNL     1       2.550  15.705  18.288  0.00  0.00    +0.000 N 
ATOM     28  C   UNL     1       3.923  15.812  17.831  0.00  0.00    +0.000 C 
ATOM     29  C   UNL     1       2.283  14.646  19.164  0.00  0.00    +0.000 A 
ATOM     30  O   UNL     1       3.150  13.857  19.545  0.00  0.00    +0.000 OA
ENDBRANCH  18  19
ENDBRANCH   7  18
TORSDOF 3
ENDMDL
MODEL 7
REMARK VINA RESULT:      -8.2      0.960      1.042
REMARK  Name = 
REMARK  5 active torsions:
REMARK  status: ('A' for Active; 'I' for Inactive)
REMARK    1  A    between atoms: C_1  and  C_2
REMARK    2  A    between atoms: C_6  and  C_7
REMARK    3  A    between atoms: N_13  and  C_14
REMARK    4  A    between atoms: C_14  and  C_15
REMARK    5  A    between atoms: N_23  and  C_24
REMARK                            x       y       z     vdW  Elec       q    Type
REMARK                         _______ _______ _______ _____ _____    ______ ____
ROOT
ATOM      1  C   UNL     1       4.171   6.201  17.758  0.00  0.00    +0.000 C 
ATOM      2  C   UNL     1       4.019   5.943  19.262  0.00  0.00    +0.000 C 
ATOM      3  C   UNL     1       2.580   6.292  19.684  0.00  0.00    +0.000 C 
ATOM      4  N   UNL     1       2.216   7.659  19.284  0.00  0.00    +0.000 N 
ATOM      5  C   UNL     1       1.447   8.418  20.152  0.00  0.00    +0.000 C 
ATOM      6  O   UNL     1       1.088   8.003  21.256  0.00  0.00    +0.000 OA
ATOM      7  N   UNL     1       1.100   9.668  19.703  0.00  0.00    +0.000 N 
ATOM      8  C   UNL     1       2.420   7.964  17.867  0.00  0.00    +0.000 C 
ATOM      9  C   UNL     1       3.860   7.676  17.469  0.00  0.00    +0.000 C 
ATOM     10  H   UNL     1       1.792  10.122  19.120  0.00  0.00    +0.000 HD
ENDROOT
BRANCH   1  16
ATOM     11  C   UNL     1       4.802   3.373  16.392  0.00  0.00    +0.000 C 
ATOM     12  C   UNL     1       5.723   4.533  16.506  0.00  0.00    +0.000 A 
ATOM     13  N   UNL     1       6.938   4.492  15.949  0.00  0.00    +0.000 NA
ATOM     14  N   UNL     1       7.454   5.697  16.204  0.00  0.00    +0.000 N 
ATOM     15  C   UNL     1       6.633   6.502  16.943  0.00  0.00    +0.000 A 
ATOM     16  C   UNL     1       5.469   5.785  17.140  0.00  0.00    +0.000 A 
ATOM     17  H   UNL     1       8.369   5.918  15.828  0.00  0.00    +0.000 HD
ENDBRANCH   1  16
BRANCH   7  18
ATOM     18  C   UNL     1       0.404  10.596  20.572  0.00  0.00    +0.000 C 
BRANCH  18  19
ATOM     19  C   UNL     1      -0.908  11.015  19.970  0.00  0.00    +0.000 A 
ATOM     20  C   UNL     1      -1.327  10.548  18.785  0.00  0.00    +0.000 A 
ATOM     21  C   UNL     1      -2.611  10.941  18.221  0.00  0.00    +0.000 A 
ATOM     22  C   UNL     1      -3.015  10.404  16.989  0.00  0.00    +0.000 A 
ATOM     23  C   UNL     1      -4.217  10.795  16.407  0.00  0.00    +0.000 A 
ATOM     24  C   UNL     1      -5.017  11.728  17.052  0.00  0.00    +0.000 A 
ATOM     25  C   UNL     1      -4.626  12.256  18.292  0.00  0.00    +0.000 A 
ATOM     26  C   UNL     1      -3.424  11.866  18.900  0.00  0.00    +0.000 A 
ATOM     27  N   UNL     1      -2.990  12.347  20.176  0.00  0.00    +0.000 N 
ATOM     28  C   UNL     1      -3.785  13.266  20.968  0.00  0.00    +0.000 C 
ATOM     29  C   UNL     1      -1.787  11.928  20.758  0.00  0.00    +0.000 A 
ATOM     30  O   UNL     1      -1.421  12.295  21.877  0.00  0.00    +0.000 OA
ENDBRANCH  18  19
ENDBRANCH   7  18
TORSDOF 3
ENDMDL
MODEL 8
REMARK VINA RESULT:      -8.2      2.831      9.862
REMARK  Name = 
REMARK  5 active torsions:
REMARK  status: ('A' for Active; 'I' for Inactive)
REMARK    1  A    between atoms: C_1  and  C_2
REMARK    2  A    between atoms: C_6  and  C_7
REMARK    3  A    between atoms: N_13  and  C_14
REMARK    4  A    between atoms: C_14  and  C_15
REMARK    5  A    between atoms: N_23  and  C_24
REMARK                            x       y       z     vdW  Elec       q    Type
REMARK                         _______ _______ _______ _____ _____    ______ ____
ROOT
ATOM      1  C   UNL     1      -1.413  12.175  21.784  0.00  0.00    +0.000 C 
ATOM      2  C   UNL     1      -1.543  12.521  20.296  0.00  0.00    +0.000 C 
ATOM      3  C   UNL     1      -1.462  11.222  19.474  0.00  0.00    +0.000 C 
ATOM      4  N   UNL     1      -0.250  10.455  19.794  0.00  0.00    +0.000 N 
ATOM      5  C   UNL     1       0.416   9.811  18.761  0.00  0.00    +0.000 C 
ATOM      6  O   UNL     1       0.049   9.888  17.586  0.00  0.00    +0.000 OA
ATOM      7  N   UNL     1       1.513   9.073  19.128  0.00  0.00    +0.000 N 
ATOM      8  C   UNL     1      -0.054  10.171  21.216  0.00  0.00    +0.000 C 
ATOM      9  C   UNL     1      -0.072  11.464  22.018  0.00  0.00    +0.000 C 
ATOM     10  H   UNL     1       2.040   9.446  19.908  0.00  0.00    +0.000 HD
ENDROOT
BRANCH   1  16
ATOM     11  C   UNL     1      -3.823  12.491  23.871  0.00  0.00    +0.000 C 
ATOM     12  C   UNL     1      -2.670  13.411  23.695  0.00  0.00    +0.000 A 
ATOM     13  N   UNL     1      -2.519  14.470  24.497  0.00  0.00    +0.000 NA
ATOM     14  N   UNL     1      -1.375  15.027  24.088  0.00  0.00    +0.000 N 
ATOM     15  C   UNL     1      -0.803  14.391  23.022  0.00  0.00    +0.000 A 
ATOM     16  C   UNL     1      -1.607  13.302  22.748  0.00  0.00    +0.000 A 
ATOM     17  H   UNL     1      -1.026  15.835  24.593  0.00  0.00    +0.000 HD
ENDBRANCH   1  16
BRANCH   7  18
ATOM     18  C   UNL     1       2.357   8.459  18.124  0.00  0.00    +0.000 C 
BRANCH  18  19
ATOM     19  C   UNL     1       2.765   7.072  18.537  0.00  0.00    +0.000 A 
ATOM     20  C   UNL     1       2.156   6.423  19.541  0.00  0.00    +0.000 A 
ATOM     21  C   UNL     1       2.541   5.070  19.919  0.00  0.00    +0.000 A 
ATOM     22  C   UNL     1       1.855   4.425  20.959  0.00  0.00    +0.000 A 
ATOM     23  C   UNL     1       2.230   3.149  21.369  0.00  0.00    +0.000 A 
ATOM     24  C   UNL     1       3.296   2.516  20.743  0.00  0.00    +0.000 A 
ATOM     25  C   UNL     1       3.974   3.150  19.691  0.00  0.00    +0.000 A 
ATOM     26  C   UNL     1       3.603   4.431  19.256  0.00  0.00    +0.000 A 
ATOM     27  N   UNL     1       4.238   5.112  18.169  0.00  0.00    +0.000 N 
ATOM     28  C   UNL     1       5.310   4.510  17.400  0.00  0.00    +0.000 C 
ATOM     29  C   UNL     1       3.836   6.388  17.755  0.00  0.00    +0.000 A 
ATOM     30  O   UNL     1       4.338   6.969  16.791  0.00  0.00    +0.000 OA
ENDBRANCH  18  19
ENDBRANCH   7  18
TORSDOF 3
ENDMDL
MODEL 9
REMARK VINA RESULT:      -8.2      1.101      2.123
REMARK  Name = 
REMARK  5 active torsions:
REMARK  status: ('A' for Active; 'I' for Inactive)
REMARK    1  A    between atoms: C_1  and  C_2
REMARK    2  A    between atoms: C_6  and  C_7
REMARK    3  A    between atoms: N_13  and  C_14
REMARK    4  A    between atoms: C_14  and  C_15
REMARK    5  A    between atoms: N_23  and  C_24
REMARK                            x       y       z     vdW  Elec       q    Type
REMARK                         _______ _______ _______ _____ _____    ______ ____
ROOT
ATOM      1  C   UNL     1       4.430   5.573  17.938  0.00  0.00    +0.000 C 
ATOM      2  C   UNL     1       4.145   5.449  19.440  0.00  0.00    +0.000 C 
ATOM      3  C   UNL     1       2.710   5.933  19.716  0.00  0.00    +0.000 C 
ATOM      4  N   UNL     1       2.484   7.285  19.185  0.00  0.00    +0.000 N 
ATOM      5  C   UNL     1       1.712   8.165  19.928  0.00  0.00    +0.000 C 
ATOM      6  O   UNL     1       1.240   7.867  21.028  0.00  0.00    +0.000 OA
ATOM      7  N   UNL     1       1.497   9.395  19.360  0.00  0.00    +0.000 N 
ATOM      8  C   UNL     1       2.817   7.459  17.771  0.00  0.00    +0.000 C 
ATOM      9  C   UNL     1       4.257   7.038  17.515  0.00  0.00    +0.000 C 
ATOM     10  H   UNL     1       2.264   9.750  18.802  0.00  0.00    +0.000 HD
ENDROOT
BRANCH   1  16
ATOM     11  C   UNL     1       5.218   4.922  14.902  0.00  0.00    +0.000 C 
ATOM     12  C   UNL     1       6.082   4.764  16.101  0.00  0.00    +0.000 A 
ATOM     13  N   UNL     1       7.354   4.375  15.973  0.00  0.00    +0.000 NA
ATOM     14  N   UNL     1       7.826   4.390  17.223  0.00  0.00    +0.000 N 
ATOM     15  C   UNL     1       6.893   4.734  18.160  0.00  0.00    +0.000 A 
ATOM     16  C   UNL     1       5.735   5.018  17.461  0.00  0.00    +0.000 A 
ATOM     17  H   UNL     1       8.806   4.173  17.370  0.00  0.00    +0.000 HD
ENDBRANCH   1  16
BRANCH   7  18
ATOM     18  C   UNL     1       0.811  10.438  20.096  0.00  0.00    +0.000 C 
BRANCH  18  19
ATOM     19  C   UNL     1      -0.533  10.730  19.489  0.00  0.00    +0.000 A 
ATOM     20  C   UNL     1      -1.453  11.471  20.125  0.00  0.00    +0.000 A 
ATOM     21  C   UNL     1      -2.743  11.770  19.518  0.00  0.00    +0.000 A 
ATOM     22  C   UNL     1      -3.661  12.571  20.214  0.00  0.00    +0.000 A 
ATOM     23  C   UNL     1      -4.917  12.837  19.677  0.00  0.00    +0.000 A 
ATOM     24  C   UNL     1      -5.261  12.299  18.444  0.00  0.00    +0.000 A 
ATOM     25  C   UNL     1      -4.341  11.511  17.736  0.00  0.00    +0.000 A 
ATOM     26  C   UNL     1      -3.066  11.242  18.256  0.00  0.00    +0.000 A 
ATOM     27  N   UNL     1      -2.077  10.471  17.566  0.00  0.00    +0.000 N 
ATOM     28  C   UNL     1      -2.306   9.927  16.241  0.00  0.00    +0.000 C 
ATOM     29  C   UNL     1      -0.810  10.229  18.111  0.00  0.00    +0.000 A 
ATOM     30  O   UNL     1       0.070   9.610  17.510  0.00  0.00    +0.000 OA
ENDBRANCH  18  19
ENDBRANCH   7  18
TORSDOF 3
ENDMDL
