MODEL 1
REMARK VINA RESULT:      -9.5      0.000      0.000
REMARK  Name = 
REMARK  6 active torsions:
REMARK  status: ('A' for Active; 'I' for Inactive)
REMARK    1  A    between atoms: C_1  and  O_2
REMARK    2  A    between atoms: O_2  and  C_3
REMARK    3  A    between atoms: C_6  and  S_7
REMARK    4  A    between atoms: S_7  and  N_10
REMARK    5  A    between atoms: C_17  and  N_18
REMARK    6  A    between atoms: C_19  and  C_21
REMARK                            x       y       z     vdW  Elec       q    Type
REMARK                         _______ _______ _______ _____ _____    ______ ____
ROOT
ATOM      1  C   UNL     1       2.812   4.641  18.156  0.00  0.00    +0.000 A 
ATOM      2  C   UNL     1       3.477   3.633  17.447  0.00  0.00    +0.000 A 
ATOM      3  C   UNL     1       4.706   3.881  16.840  0.00  0.00    +0.000 A 
ATOM      4  C   UNL     1       5.290   5.143  16.944  0.00  0.00    +0.000 A 
ATOM      5  C   UNL     1       4.663   6.148  17.697  0.00  0.00    +0.000 A 
ATOM      6  C   UNL     1       3.410   5.921  18.295  0.00  0.00    +0.000 A 
ENDROOT
BRANCH   6   7
ATOM      7  N   UNL     1       2.728   6.899  19.078  0.00  0.00    +0.000 N 
ATOM      8  C   UNL     1       2.185   8.106  18.646  0.00  0.00    +0.000 C 
ATOM      9  O   UNL     1       2.130   8.456  17.470  0.00  0.00    +0.000 OA
ATOM     10  H   UNL     1       2.562   6.611  20.038  0.00  0.00    +0.000 HD
BRANCH   8  11
ATOM     11  C   UNL     1       1.581   8.969  19.766  0.00  0.00    +0.000 C 
ATOM     12  C   UNL     1       1.286   8.177  21.071  0.00  0.00    +0.000 C 
ATOM     13  O   UNL     1      -0.016   8.390  21.674  0.00  0.00    +0.000 OA
ATOM     14  C   UNL     1      -0.354   9.718  21.680  0.00  0.00    +0.000 A 
ATOM     15  C   UNL     1      -0.865  10.300  22.834  0.00  0.00    +0.000 A 
ATOM     16  C   UNL     1      -1.060  11.681  22.863  0.00  0.00    +0.000 A 
ATOM     17  C   UNL     1      -0.767  12.453  21.733  0.00  0.00    +0.000 A 
ATOM     18  C   UNL     1      -0.340  11.846  20.550  0.00  0.00    +0.000 A 
ATOM     19  C   UNL     1      -0.154  10.465  20.519  0.00  0.00    +0.000 A 
ATOM     20  C   UNL     1       0.327   9.704  19.315  0.00  0.00    +0.000 C 
ENDBRANCH   8  11
ENDBRANCH   6   7
BRANCH   4  21
ATOM     21  S   UNL     1       6.926   5.379  16.246  0.00  0.00    +0.000 S 
ATOM     22  O   UNL     1       7.234   6.786  16.376  0.00  0.00    +0.000 OA
ATOM     23  O   UNL     1       7.784   4.375  16.834  0.00  0.00    +0.000 OA
BRANCH  21  24
ATOM     24  N   UNL     1       6.781   4.995  14.582  0.00  0.00    +0.000 NA
ATOM     25  C   UNL     1       7.925   5.371  13.725  0.00  0.00    +0.000 C 
ATOM     26  C   UNL     1       7.576   5.235  12.241  0.00  0.00    +0.000 C 
ATOM     27  C   UNL     1       7.035   3.849  11.930  0.00  0.00    +0.000 C 
ATOM     28  C   UNL     1       5.801   3.591  12.781  0.00  0.00    +0.000 C 
ATOM     29  C   UNL     1       6.132   3.702  14.269  0.00  0.00    +0.000 C 
ENDBRANCH  21  24
ENDBRANCH   4  21
BRANCH   1  31
ATOM     30  C   UNL     1       1.174   3.120  18.994  0.00  0.00    +0.000 C 
ATOM     31  O   UNL     1       1.573   4.470  18.743  0.00  0.00    +0.000 OA
ENDBRANCH   1  31
TORSDOF 5
ENDMDL
MODEL 2
REMARK VINA RESULT:      -9.5      0.887      1.405
REMARK  Name = 
REMARK  6 active torsions:
REMARK  status: ('A' for Active; 'I' for Inactive)
REMARK    1  A    between atoms: C_1  and  O_2
REMARK    2  A    between atoms: O_2  and  C_3
REMARK    3  A    between atoms: C_6  and  S_7
REMARK    4  A    between atoms: S_7  and  N_10
REMARK    5  A    between atoms: C_17  and  N_18
REMARK    6  A    between atoms: C_19  and  C_21
REMARK                            x       y       z     vdW  Elec       q    Type
REMARK                         _______ _______ _______ _____ _____    ______ ____
ROOT
ATOM      1  C   UNL     1       2.762   4.495  18.137  0.00  0.00    +0.000 A 
ATOM      2  C   UNL     1       3.572   3.482  17.608  0.00  0.00    +0.000 A 
ATOM      3  C   UNL     1       4.795   3.786  17.014  0.00  0.00    +0.000 A 
ATOM      4  C   UNL     1       5.227   5.110  16.952  0.00  0.00    +0.000 A 
ATOM      5  C   UNL     1       4.452   6.131  17.526  0.00  0.00    +0.000 A 
ATOM      6  C   UNL     1       3.203   5.843  18.107  0.00  0.00    +0.000 A 
ENDROOT
BRANCH   6   7
ATOM      7  N   UNL     1       2.376   6.835  18.712  0.00  0.00    +0.000 N 
ATOM      8  C   UNL     1       2.155   8.139  18.279  0.00  0.00    +0.000 C 
ATOM      9  O   UNL     1       2.581   8.595  17.220  0.00  0.00    +0.000 OA
ATOM     10  H   UNL     1       1.834   6.489  19.500  0.00  0.00    +0.000 HD
BRANCH   8  11
ATOM     11  C   UNL     1       1.262   8.976  19.208  0.00  0.00    +0.000 C 
ATOM     12  C   UNL     1       1.164  10.472  18.796  0.00  0.00    +0.000 C 
ATOM     13  O   UNL     1       1.338  11.446  19.857  0.00  0.00    +0.000 OA
ATOM     14  C   UNL     1       0.656  11.081  20.988  0.00  0.00    +0.000 A 
ATOM     15  C   UNL     1      -0.124  12.015  21.660  0.00  0.00    +0.000 A 
ATOM     16  C   UNL     1      -0.926  11.587  22.718  0.00  0.00    +0.000 A 
ATOM     17  C   UNL     1      -0.916  10.242  23.104  0.00  0.00    +0.000 A 
ATOM     18  C   UNL     1      -0.060   9.332  22.480  0.00  0.00    +0.000 A 
ATOM     19  C   UNL     1       0.748   9.761  21.429  0.00  0.00    +0.000 A 
ATOM     20  C   UNL     1       1.687   8.870  20.666  0.00  0.00    +0.000 C 
ENDBRANCH   8  11
ENDBRANCH   6   7
BRANCH   4  21
ATOM     21  S   UNL     1       6.860   5.437  16.284  0.00  0.00    +0.000 S 
ATOM     22  O   UNL     1       7.091   6.857  16.429  0.00  0.00    +0.000 OA
ATOM     23  O   UNL     1       7.759   4.476  16.881  0.00  0.00    +0.000 OA
BRANCH  21  24
ATOM     24  N   UNL     1       6.764   5.058  14.616  0.00  0.00    +0.000 NA
ATOM     25  C   UNL     1       7.928   5.449  13.792  0.00  0.00    +0.000 C 
ATOM     26  C   UNL     1       7.620   5.316  12.298  0.00  0.00    +0.000 C 
ATOM     27  C   UNL     1       7.102   3.925  11.967  0.00  0.00    +0.000 C 
ATOM     28  C   UNL     1       5.848   3.652  12.784  0.00  0.00    +0.000 C 
ATOM     29  C   UNL     1       6.137   3.760  14.280  0.00  0.00    +0.000 C 
ENDBRANCH  21  24
ENDBRANCH   4  21
BRANCH   1  31
ATOM     30  C   UNL     1       1.506   3.494  19.904  0.00  0.00    +0.000 C 
ATOM     31  O   UNL     1       1.521   4.262  18.699  0.00  0.00    +0.000 OA
ENDBRANCH   1  31
TORSDOF 5
ENDMDL
MODEL 3
REMARK VINA RESULT:      -9.1      1.013      1.539
REMARK  Name = 
REMARK  6 active torsions:
REMARK  status: ('A' for Active; 'I' for Inactive)
REMARK    1  A    between atoms: C_1  and  O_2
REMARK    2  A    between atoms: O_2  and  C_3
REMARK    3  A    between atoms: C_6  and  S_7
REMARK    4  A    between atoms: S_7  and  N_10
REMARK    5  A    between atoms: C_17  and  N_18
REMARK    6  A    between atoms: C_19  and  C_21
REMARK                            x       y       z     vdW  Elec       q    Type
REMARK                         _______ _______ _______ _____ _____    ______ ____
ROOT
ATOM      1  C   UNL     1       2.614   4.615  17.939  0.00  0.00    +0.000 A 
ATOM      2  C   UNL     1       3.371   3.595  17.346  0.00  0.00    +0.000 A 
ATOM      3  C   UNL     1       4.624   3.865  16.800  0.00  0.00    +0.000 A 
ATOM      4  C   UNL     1       5.140   5.159  16.851  0.00  0.00    +0.000 A 
ATOM      5  C   UNL     1       4.418   6.180  17.490  0.00  0.00    +0.000 A 
ATOM      6  C   UNL     1       3.141   5.930  18.024  0.00  0.00    +0.000 A 
ENDROOT
BRANCH   6   7
ATOM      7  N   UNL     1       2.364   6.923  18.690  0.00  0.00    +0.000 N 
ATOM      8  C   UNL     1       2.030   6.977  20.041  0.00  0.00    +0.000 C 
ATOM      9  O   UNL     1       2.462   6.201  20.890  0.00  0.00    +0.000 OA
ATOM     10  H   UNL     1       2.112   7.710  18.098  0.00  0.00    +0.000 HD
BRANCH   8  11
ATOM     11  C   UNL     1       1.109   8.147  20.422  0.00  0.00    +0.000 C 
ATOM     12  C   UNL     1       1.129   9.315  19.395  0.00  0.00    +0.000 C 
ATOM     13  O   UNL     1       1.267  10.652  19.940  0.00  0.00    +0.000 OA
ATOM     14  C   UNL     1       0.473  10.826  21.044  0.00  0.00    +0.000 A 
ATOM     15  C   UNL     1      -0.308  11.970  21.163  0.00  0.00    +0.000 A 
ATOM     16  C   UNL     1      -1.218  12.057  22.217  0.00  0.00    +0.000 A 
ATOM     17  C   UNL     1      -1.315  11.015  23.146  0.00  0.00    +0.000 A 
ATOM     18  C   UNL     1      -0.461   9.913  23.067  0.00  0.00    +0.000 A 
ATOM     19  C   UNL     1       0.455   9.830  22.020  0.00  0.00    +0.000 A 
ATOM     20  C   UNL     1       1.404   8.683  21.816  0.00  0.00    +0.000 C 
ENDBRANCH   8  11
ENDBRANCH   6   7
BRANCH   4  21
ATOM     21  S   UNL     1       6.806   5.431  16.241  0.00  0.00    +0.000 S 
ATOM     22  O   UNL     1       7.079   6.843  16.393  0.00  0.00    +0.000 OA
ATOM     23  O   UNL     1       7.651   4.441  16.869  0.00  0.00    +0.000 OA
BRANCH  21  24
ATOM     24  N   UNL     1       6.755   5.053  14.570  0.00  0.00    +0.000 NA
ATOM     25  C   UNL     1       7.926   5.476  13.771  0.00  0.00    +0.000 C 
ATOM     26  C   UNL     1       7.654   5.338  12.272  0.00  0.00    +0.000 C 
ATOM     27  C   UNL     1       7.179   3.936  11.927  0.00  0.00    +0.000 C 
ATOM     28  C   UNL     1       5.916   3.628  12.716  0.00  0.00    +0.000 C 
ATOM     29  C   UNL     1       6.169   3.740  14.218  0.00  0.00    +0.000 C 
ENDBRANCH  21  24
ENDBRANCH   4  21
BRANCH   1  31
ATOM     30  C   UNL     1       1.131   3.187  19.149  0.00  0.00    +0.000 C 
ATOM     31  O   UNL     1       1.349   4.420  18.458  0.00  0.00    +0.000 OA
ENDBRANCH   1  31
TORSDOF 5
ENDMDL
MODEL 4
REMARK VINA RESULT:      -8.6      2.246      2.786
REMARK  Name = 
REMARK  6 active torsions:
REMARK  status: ('A' for Active; 'I' for Inactive)
REMARK    1  A    between atoms: C_1  and  O_2
REMARK    2  A    between atoms: O_2  and  C_3
REMARK    3  A    between atoms: C_6  and  S_7
REMARK    4  A    between atoms: S_7  and  N_10
REMARK    5  A    between atoms: C_17  and  N_18
REMARK    6  A    between atoms: C_19  and  C_21
REMARK                            x       y       z     vdW  Elec       q    Type
REMARK                         _______ _______ _______ _____ _____    ______ ____
ROOT
ATOM      1  C   UNL     1       2.052   4.404  19.144  0.00  0.00    +0.000 A 
ATOM      2  C   UNL     1       2.614   3.292  18.504  0.00  0.00    +0.000 A 
ATOM      3  C   UNL     1       3.633   3.448  17.567  0.00  0.00    +0.000 A 
ATOM      4  C   UNL     1       4.111   4.723  17.266  0.00  0.00    +0.000 A 
ATOM      5  C   UNL     1       3.596   5.844  17.939  0.00  0.00    +0.000 A 
ATOM      6  C   UNL     1       2.549   5.705  18.869  0.00  0.00    +0.000 A 
ENDROOT
BRANCH   6   7
ATOM      7  N   UNL     1       1.991   6.803  19.588  0.00  0.00    +0.000 N 
ATOM      8  C   UNL     1       1.816   8.110  19.143  0.00  0.00    +0.000 C 
ATOM      9  O   UNL     1       2.035   8.483  17.992  0.00  0.00    +0.000 OA
ATOM     10  H   UNL     1       1.610   6.546  20.494  0.00  0.00    +0.000 HD
BRANCH   8  11
ATOM     11  C   UNL     1       1.252   9.072  20.201  0.00  0.00    +0.000 C 
ATOM     12  C   UNL     1       0.848   8.370  21.528  0.00  0.00    +0.000 C 
ATOM     13  O   UNL     1      -0.450   8.720  22.073  0.00  0.00    +0.000 OA
ATOM     14  C   UNL     1      -0.673  10.070  22.008  0.00  0.00    +0.000 A 
ATOM     15  C   UNL     1      -1.170  10.746  23.116  0.00  0.00    +0.000 A 
ATOM     16  C   UNL     1      -1.247  12.139  23.077  0.00  0.00    +0.000 A 
ATOM     17  C   UNL     1      -0.853  12.830  21.926  0.00  0.00    +0.000 A 
ATOM     18  C   UNL     1      -0.441  12.133  20.787  0.00  0.00    +0.000 A 
ATOM     19  C   UNL     1      -0.372  10.742  20.823  0.00  0.00    +0.000 A 
ATOM     20  C   UNL     1       0.081   9.888  19.672  0.00  0.00    +0.000 C 
ENDBRANCH   8  11
ENDBRANCH   6   7
BRANCH   4  21
ATOM     21  S   UNL     1       5.503   4.863  16.143  0.00  0.00    +0.000 S 
ATOM     22  O   UNL     1       5.939   3.515  15.853  0.00  0.00    +0.000 OA
ATOM     23  O   UNL     1       5.099   5.755  15.080  0.00  0.00    +0.000 OA
BRANCH  21  24
ATOM     24  N   UNL     1       6.732   5.665  17.026  0.00  0.00    +0.000 NA
ATOM     25  C   UNL     1       6.748   7.141  16.926  0.00  0.00    +0.000 C 
ATOM     26  C   UNL     1       8.033   7.724  17.519  0.00  0.00    +0.000 C 
ATOM     27  C   UNL     1       8.258   7.225  18.937  0.00  0.00    +0.000 C 
ATOM     28  C   UNL     1       8.332   5.706  18.927  0.00  0.00    +0.000 C 
ATOM     29  C   UNL     1       7.050   5.101  18.357  0.00  0.00    +0.000 C 
ENDBRANCH  21  24
ENDBRANCH   4  21
BRANCH   1  31
ATOM     30  C   UNL     1       1.084   3.251  20.997  0.00  0.00    +0.000 C 
ATOM     31  O   UNL     1       1.011   4.318  20.047  0.00  0.00    +0.000 OA
ENDBRANCH   1  31
TORSDOF 5
ENDMDL
MODEL 5
REMARK VINA RESULT:      -8.6      0.566      1.043
REMARK  Name = 
REMARK  6 active torsions:
REMARK  status: ('A' for Active; 'I' for Inactive)
REMARK    1  A    between atoms: C_1  and  O_2
REMARK    2  A    between atoms: O_2  and  C_3
REMARK    3  A    between atoms: C_6  and  S_7
REMARK    4  A    between atoms: S_7  and  N_10
REMARK    5  A    between atoms: C_17  and  N_18
REMARK    6  A    between atoms: C_19  and  C_21
REMARK                            x       y       z     vdW  Elec       q    Type
REMARK                         _______ _______ _______ _____ _____    ______ ____
ROOT
ATOM      1  C   UNL     1       3.120   4.413  18.895  0.00  0.00    +0.000 A 
ATOM      2  C   UNL     1       3.818   3.373  18.265  0.00  0.00    +0.000 A 
ATOM      3  C   UNL     1       4.943   3.640  17.487  0.00  0.00    +0.000 A 
ATOM      4  C   UNL     1       5.389   4.953  17.338  0.00  0.00    +0.000 A 
ATOM      5  C   UNL     1       4.733   5.999  18.007  0.00  0.00    +0.000 A 
ATOM      6  C   UNL     1       3.582   5.749  18.776  0.00  0.00    +0.000 A 
ENDROOT
BRANCH   6   7
ATOM      7  N   UNL     1       2.878   6.768  19.483  0.00  0.00    +0.000 N 
ATOM      8  C   UNL     1       2.203   7.863  18.951  0.00  0.00    +0.000 C 
ATOM      9  O   UNL     1       2.031   8.048  17.748  0.00  0.00    +0.000 OA
ATOM     10  H   UNL     1       2.810   6.598  20.483  0.00  0.00    +0.000 HD
BRANCH   8  11
ATOM     11  C   UNL     1       1.612   8.818  20.000  0.00  0.00    +0.000 C 
ATOM     12  C   UNL     1       1.100   8.098  21.279  0.00  0.00    +0.000 C 
ATOM     13  O   UNL     1      -0.214   8.485  21.755  0.00  0.00    +0.000 OA
ATOM     14  C   UNL     1      -0.381   9.844  21.715  0.00  0.00    +0.000 A 
ATOM     15  C   UNL     1      -0.919  10.510  22.810  0.00  0.00    +0.000 A 
ATOM     16  C   UNL     1      -0.940  11.905  22.807  0.00  0.00    +0.000 A 
ATOM     17  C   UNL     1      -0.448  12.610  21.703  0.00  0.00    +0.000 A 
ATOM     18  C   UNL     1       0.006  11.928  20.571  0.00  0.00    +0.000 A 
ATOM     19  C   UNL     1       0.018  10.535  20.571  0.00  0.00    +0.000 A 
ATOM     20  C   UNL     1       0.508   9.694  19.425  0.00  0.00    +0.000 C 
ENDBRANCH   8  11
ENDBRANCH   6   7
BRANCH   4  21
ATOM     21  S   UNL     1       6.908   5.231  16.425  0.00  0.00    +0.000 S 
ATOM     22  O   UNL     1       7.057   6.664  16.293  0.00  0.00    +0.000 OA
ATOM     23  O   UNL     1       7.934   4.436  17.060  0.00  0.00    +0.000 OA
BRANCH  21  24
ATOM     24  N   UNL     1       6.646   4.556  14.872  0.00  0.00    +0.000 NA
ATOM     25  C   UNL     1       5.235   4.338  14.486  0.00  0.00    +0.000 C 
ATOM     26  C   UNL     1       5.131   3.489  13.217  0.00  0.00    +0.000 C 
ATOM     27  C   UNL     1       5.966   4.080  12.092  0.00  0.00    +0.000 C 
ATOM     28  C   UNL     1       7.417   4.169  12.541  0.00  0.00    +0.000 C 
ATOM     29  C   UNL     1       7.547   5.030  13.797  0.00  0.00    +0.000 C 
ENDBRANCH  21  24
ENDBRANCH   4  21
BRANCH   1  31
ATOM     30  C   UNL     1       1.158   3.105  19.269  0.00  0.00    +0.000 C 
ATOM     31  O   UNL     1       1.975   4.217  19.642  0.00  0.00    +0.000 OA
ENDBRANCH   1  31
TORSDOF 5
ENDMDL
MODEL 6
REMARK VINA RESULT:      -8.4      1.439      2.096
REMARK  Name = 
REMARK  6 active torsions:
REMARK  status: ('A' for Active; 'I' for Inactive)
REMARK    1  A    between atoms: C_1  and  O_2
REMARK    2  A    between atoms: O_2  and  C_3
REMARK    3  A    between atoms: C_6  and  S_7
REMARK    4  A    between atoms: S_7  and  N_10
REMARK    5  A    between atoms: C_17  and  N_18
REMARK    6  A    between atoms: C_19  and  C_21
REMARK                            x       y       z     vdW  Elec       q    Type
REMARK                         _______ _______ _______ _____ _____    ______ ____
ROOT
ATOM      1  C   UNL     1       2.959   4.596  20.056  0.00  0.00    +0.000 A 
ATOM      2  C   UNL     1       3.846   3.541  19.802  0.00  0.00    +0.000 A 
ATOM      3  C   UNL     1       5.015   3.754  19.074  0.00  0.00    +0.000 A 
ATOM      4  C   UNL     1       5.316   5.030  18.600  0.00  0.00    +0.000 A 
ATOM      5  C   UNL     1       4.465   6.108  18.893  0.00  0.00    +0.000 A 
ATOM      6  C   UNL     1       3.268   5.905  19.605  0.00  0.00    +0.000 A 
ENDROOT
BRANCH   6   7
ATOM      7  N   UNL     1       2.368   6.960  19.939  0.00  0.00    +0.000 N 
ATOM      8  C   UNL     1       1.998   8.045  19.148  0.00  0.00    +0.000 C 
ATOM      9  O   UNL     1       2.333   8.189  17.975  0.00  0.00    +0.000 OA
ATOM     10  H   UNL     1       1.897   6.828  20.829  0.00  0.00    +0.000 HD
BRANCH   8  11
ATOM     11  C   UNL     1       1.062   9.047  19.842  0.00  0.00    +0.000 C 
ATOM     12  C   UNL     1       1.094  10.468  19.211  0.00  0.00    +0.000 C 
ATOM     13  O   UNL     1       1.211  11.581  20.133  0.00  0.00    +0.000 OA
ATOM     14  C   UNL     1       0.395  11.418  21.221  0.00  0.00    +0.000 A 
ATOM     15  C   UNL     1      -0.396  12.473  21.660  0.00  0.00    +0.000 A 
ATOM     16  C   UNL     1      -1.328  12.241  22.672  0.00  0.00    +0.000 A 
ATOM     17  C   UNL     1      -1.436  10.969  23.246  0.00  0.00    +0.000 A 
ATOM     18  C   UNL     1      -0.573   9.941  22.860  0.00  0.00    +0.000 A 
ATOM     19  C   UNL     1       0.364  10.176  21.855  0.00  0.00    +0.000 A 
ATOM     20  C   UNL     1       1.325   9.142  21.338  0.00  0.00    +0.000 C 
ENDBRANCH   8  11
ENDBRANCH   6   7
BRANCH   4  21
ATOM     21  S   UNL     1       6.888   5.277  17.772  0.00  0.00    +0.000 S 
ATOM     22  O   UNL     1       7.104   6.705  17.708  0.00  0.00    +0.000 OA
ATOM     23  O   UNL     1       7.846   4.411  18.421  0.00  0.00    +0.000 OA
BRANCH  21  24
ATOM     24  N   UNL     1       6.674   4.677  16.181  0.00  0.00    +0.000 NA
ATOM     25  C   UNL     1       5.341   4.116  15.871  0.00  0.00    +0.000 C 
ATOM     26  C   UNL     1       5.349   3.370  14.535  0.00  0.00    +0.000 C 
ATOM     27  C   UNL     1       5.894   4.249  13.420  0.00  0.00    +0.000 C 
ATOM     28  C   UNL     1       7.305   4.692  13.778  0.00  0.00    +0.000 C 
ATOM     29  C   UNL     1       7.317   5.457  15.101  0.00  0.00    +0.000 C 
ENDBRANCH  21  24
ENDBRANCH   4  21
BRANCH   1  31
ATOM     30  C   UNL     1       0.883   3.431  20.235  0.00  0.00    +0.000 C 
ATOM     31  O   UNL     1       1.765   4.440  20.732  0.00  0.00    +0.000 OA
ENDBRANCH   1  31
TORSDOF 5
ENDMDL
MODEL 7
REMARK VINA RESULT:      -8.4      4.063      9.286
REMARK  Name = 
REMARK  6 active torsions:
REMARK  status: ('A' for Active; 'I' for Inactive)
REMARK    1  A    between atoms: C_1  and  O_2
REMARK    2  A    between atoms: O_2  and  C_3
REMARK    3  A    between atoms: C_6  and  S_7
REMARK    4  A    between atoms: S_7  and  N_10
REMARK    5  A    between atoms: C_17  and  N_18
REMARK    6  A    between atoms: C_19  and  C_21
REMARK                            x       y       z     vdW  Elec       q    Type
REMARK                         _______ _______ _______ _____ _____    ______ ____
ROOT
ATOM      1  C   UNL     1      -0.615  10.695  18.170  0.00  0.00    +0.000 A 
ATOM      2  C   UNL     1      -1.254  11.870  18.586  0.00  0.00    +0.000 A 
ATOM      3  C   UNL     1      -0.589  12.797  19.386  0.00  0.00    +0.000 A 
ATOM      4  C   UNL     1       0.731  12.562  19.771  0.00  0.00    +0.000 A 
ATOM      5  C   UNL     1       1.403  11.416  19.317  0.00  0.00    +0.000 A 
ATOM      6  C   UNL     1       0.737  10.458  18.530  0.00  0.00    +0.000 A 
ENDROOT
BRANCH   6   7
ATOM      7  N   UNL     1       1.368   9.279  18.033  0.00  0.00    +0.000 N 
ATOM      8  C   UNL     1       1.889   8.219  18.768  0.00  0.00    +0.000 C 
ATOM      9  O   UNL     1       1.781   8.106  19.987  0.00  0.00    +0.000 OA
ATOM     10  H   UNL     1       1.340   9.198  17.020  0.00  0.00    +0.000 HD
BRANCH   8  11
ATOM     11  C   UNL     1       2.573   7.133  17.922  0.00  0.00    +0.000 C 
ATOM     12  C   UNL     1       2.366   5.693  18.471  0.00  0.00    +0.000 C 
ATOM     13  O   UNL     1       3.548   4.858  18.555  0.00  0.00    +0.000 OA
ATOM     14  C   UNL     1       4.323   4.974  17.431  0.00  0.00    +0.000 A 
ATOM     15  C   UNL     1       4.819   3.834  16.809  0.00  0.00    +0.000 A 
ATOM     16  C   UNL     1       5.476   3.966  15.586  0.00  0.00    +0.000 A 
ATOM     17  C   UNL     1       5.652   5.233  15.018  0.00  0.00    +0.000 A 
ATOM     18  C   UNL     1       5.230   6.378  15.697  0.00  0.00    +0.000 A 
ATOM     19  C   UNL     1       4.581   6.247  16.923  0.00  0.00    +0.000 A 
ATOM     20  C   UNL     1       4.059   7.402  17.731  0.00  0.00    +0.000 C 
ENDBRANCH   8  11
ENDBRANCH   6   7
BRANCH   4  21
ATOM     21  S   UNL     1       1.581  13.839  20.701  0.00  0.00    +0.000 S 
ATOM     22  O   UNL     1       0.561  14.606  21.381  0.00  0.00    +0.000 OA
ATOM     23  O   UNL     1       2.636  13.188  21.444  0.00  0.00    +0.000 OA
BRANCH  21  24
ATOM     24  N   UNL     1       2.338  14.838  19.533  0.00  0.00    +0.000 NA
ATOM     25  C   UNL     1       3.374  14.192  18.697  0.00  0.00    +0.000 C 
ATOM     26  C   UNL     1       4.164  15.227  17.893  0.00  0.00    +0.000 C 
ATOM     27  C   UNL     1       3.235  16.125  17.093  0.00  0.00    +0.000 C 
ATOM     28  C   UNL     1       2.276  16.825  18.043  0.00  0.00    +0.000 C 
ATOM     29  C   UNL     1       1.461  15.810  18.842  0.00  0.00    +0.000 C 
ENDBRANCH  21  24
ENDBRANCH   4  21
BRANCH   1  31
ATOM     30  C   UNL     1      -2.604   9.953  17.077  0.00  0.00    +0.000 C 
ATOM     31  O   UNL     1      -1.235   9.719  17.414  0.00  0.00    +0.000 OA
ENDBRANCH   1  31
TORSDOF 5
ENDMDL
MODEL 8
REMARK VINA RESULT:      -8.4      2.270      3.059
REMARK  Name = 
REMARK  6 active torsions:
REMARK  status: ('A' for Active; 'I' for Inactive)
REMARK    1  A    between atoms: C_1  and  O_2
REMARK    2  A    between atoms: O_2  and  C_3
REMARK    3  A    between atoms: C_6  and  S_7
REMARK    4  A    between atoms: S_7  and  N_10
REMARK    5  A    between atoms: C_17  and  N_18
REMARK    6  A    between atoms: C_19  and  C_21
REMARK                            x       y       z     vdW  Elec       q    Type
REMARK                         _______ _______ _______ _____ _____    ______ ____
ROOT
ATOM      1  C   UNL     1       2.108   4.423  18.576  0.00  0.00    +0.000 A 
ATOM      2  C   UNL     1       2.824   3.329  18.071  0.00  0.00    +0.000 A 
ATOM      3  C   UNL     1       3.928   3.522  17.243  0.00  0.00    +0.000 A 
ATOM      4  C   UNL     1       4.335   4.815  16.918  0.00  0.00    +0.000 A 
ATOM      5  C   UNL     1       3.662   5.922  17.460  0.00  0.00    +0.000 A 
ATOM      6  C   UNL     1       2.530   5.744  18.277  0.00  0.00    +0.000 A 
ENDROOT
BRANCH   6   7
ATOM      7  N   UNL     1       1.810   6.828  18.862  0.00  0.00    +0.000 N 
ATOM      8  C   UNL     1       1.810   8.162  18.465  0.00  0.00    +0.000 C 
ATOM      9  O   UNL     1       2.373   8.581  17.457  0.00  0.00    +0.000 OA
ATOM     10  H   UNL     1       1.169   6.542  19.597  0.00  0.00    +0.000 HD
BRANCH   8  11
ATOM     11  C   UNL     1       0.980   9.092  19.362  0.00  0.00    +0.000 C 
ATOM     12  C   UNL     1       1.041  10.587  18.936  0.00  0.00    +0.000 C 
ATOM     13  O   UNL     1       1.282  11.550  19.992  0.00  0.00    +0.000 OA
ATOM     14  C   UNL     1       0.538  11.267  21.108  0.00  0.00    +0.000 A 
ATOM     15  C   UNL     1      -0.164  12.280  21.750  0.00  0.00    +0.000 A 
ATOM     16  C   UNL     1      -1.032  11.944  22.789  0.00  0.00    +0.000 A 
ATOM     17  C   UNL     1      -1.165  10.609  23.187  0.00  0.00    +0.000 A 
ATOM     18  C   UNL     1      -0.386   9.612  22.594  0.00  0.00    +0.000 A 
ATOM     19  C   UNL     1       0.487   9.949  21.562  0.00  0.00    +0.000 A 
ATOM     20  C   UNL     1       1.353   8.961  20.832  0.00  0.00    +0.000 C 
ENDBRANCH   8  11
ENDBRANCH   6   7
BRANCH   4  21
ATOM     21  S   UNL     1       5.831   5.012  15.946  0.00  0.00    +0.000 S 
ATOM     22  O   UNL     1       6.309   3.680  15.645  0.00  0.00    +0.000 OA
ATOM     23  O   UNL     1       5.525   5.946  14.887  0.00  0.00    +0.000 OA
BRANCH  21  24
ATOM     24  N   UNL     1       6.957   5.785  16.980  0.00  0.00    +0.000 NA
ATOM     25  C   UNL     1       6.926   7.263  16.988  0.00  0.00    +0.000 C 
ATOM     26  C   UNL     1       8.139   7.840  17.723  0.00  0.00    +0.000 C 
ATOM     27  C   UNL     1       8.270   7.246  19.115  0.00  0.00    +0.000 C 
ATOM     28  C   UNL     1       8.400   5.734  19.003  0.00  0.00    +0.000 C 
ATOM     29  C   UNL     1       7.190   5.134  18.290  0.00  0.00    +0.000 C 
ENDBRANCH  21  24
ENDBRANCH   4  21
BRANCH   1  31
ATOM     30  C   UNL     1       0.927   3.146  20.212  0.00  0.00    +0.000 C 
ATOM     31  O   UNL     1       0.981   4.296  19.364  0.00  0.00    +0.000 OA
ENDBRANCH   1  31
TORSDOF 5
ENDMDL
MODEL 9
REMARK VINA RESULT:      -8.3      1.160      1.797
REMARK  Name = 
REMARK  6 active torsions:
REMARK  status: ('A' for Active; 'I' for Inactive)
REMARK    1  A    between atoms: C_1  and  O_2
REMARK    2  A    between atoms: O_2  and  C_3
REMARK    3  A    between atoms: C_6  and  S_7
REMARK    4  A    between atoms: S_7  and  N_10
REMARK    5  A    between atoms: C_17  and  N_18
REMARK    6  A    between atoms: C_19  and  C_21
REMARK                            x       y       z     vdW  Elec       q    Type
REMARK                         _______ _______ _______ _____ _____    ______ ____
ROOT
ATOM      1  C   UNL     1       2.964   4.959  18.230  0.00  0.00    +0.000 A 
ATOM      2  C   UNL     1       3.787   3.844  18.027  0.00  0.00    +0.000 A 
ATOM      3  C   UNL     1       5.016   3.974  17.383  0.00  0.00    +0.000 A 
ATOM      4  C   UNL     1       5.440   5.227  16.942  0.00  0.00    +0.000 A 
ATOM      5  C   UNL     1       4.651   6.363  17.187  0.00  0.00    +0.000 A 
ATOM      6  C   UNL     1       3.397   6.245  17.814  0.00  0.00    +0.000 A 
ENDROOT
BRANCH   6   7
ATOM      7  N   UNL     1       2.555   7.361  18.096  0.00  0.00    +0.000 N 
ATOM      8  C   UNL     1       2.102   7.792  19.339  0.00  0.00    +0.000 C 
ATOM      9  O   UNL     1       2.463   7.310  20.410  0.00  0.00    +0.000 OA
ATOM     10  H   UNL     1       2.352   7.935  17.282  0.00  0.00    +0.000 HD
BRANCH   8  11
ATOM     11  C   UNL     1       1.141   8.991  19.286  0.00  0.00    +0.000 C 
ATOM     12  C   UNL     1       1.449   9.984  18.129  0.00  0.00    +0.000 C 
ATOM     13  O   UNL     1       1.474  11.391  18.477  0.00  0.00    +0.000 OA
ATOM     14  C   UNL     1       0.429  11.722  19.300  0.00  0.00    +0.000 A 
ATOM     15  C   UNL     1      -0.330  12.856  19.037  0.00  0.00    +0.000 A 
ATOM     16  C   UNL     1      -1.477  13.090  19.796  0.00  0.00    +0.000 A 
ATOM     17  C   UNL     1      -1.831  12.206  20.820  0.00  0.00    +0.000 A 
ATOM     18  C   UNL     1      -1.010  11.120  21.135  0.00  0.00    +0.000 A 
ATOM     19  C   UNL     1       0.140  10.891  20.382  0.00  0.00    +0.000 A 
ATOM     20  C   UNL     1       1.083   9.743  20.608  0.00  0.00    +0.000 C 
ENDBRANCH   8  11
ENDBRANCH   6   7
BRANCH   4  21
ATOM     21  S   UNL     1       7.080   5.362  16.226  0.00  0.00    +0.000 S 
ATOM     22  O   UNL     1       7.482   6.744  16.368  0.00  0.00    +0.000 OA
ATOM     23  O   UNL     1       7.875   4.297  16.792  0.00  0.00    +0.000 OA
BRANCH  21  24
ATOM     24  N   UNL     1       6.888   5.009  14.560  0.00  0.00    +0.000 NA
ATOM     25  C   UNL     1       8.012   5.395  13.680  0.00  0.00    +0.000 C 
ATOM     26  C   UNL     1       7.623   5.287  12.203  0.00  0.00    +0.000 C 
ATOM     27  C   UNL     1       7.067   3.909  11.882  0.00  0.00    +0.000 C 
ATOM     28  C   UNL     1       5.855   3.642  12.761  0.00  0.00    +0.000 C 
ATOM     29  C   UNL     1       6.225   3.724  14.241  0.00  0.00    +0.000 C 
ENDBRANCH  21  24
ENDBRANCH   4  21
BRANCH   1  31
ATOM     30  C   UNL     1       1.181   3.576  19.010  0.00  0.00    +0.000 C 
ATOM     31  O   UNL     1       1.718   4.888  18.822  0.00  0.00    +0.000 OA
ENDBRANCH   1  31
TORSDOF 5
ENDMDL
