MODEL 1
REMARK VINA RESULT:      -8.5      0.000      0.000
REMARK  Name = 
REMARK  4 active torsions:
REMARK  status: ('A' for Active; 'I' for Inactive)
REMARK    1  A    between atoms: C_2  and  C_15
REMARK    2  A    between atoms: N_3  and  C_4
REMARK    3  A    between atoms: C_9  and  O_10
REMARK    4  A    between atoms: C_17  and  C_18
REMARK                            x       y       z     vdW  Elec       q    Type
REMARK                         _______ _______ _______ _____ _____    ______ ____
ROOT
ATOM      1  O   UNL     1       1.364   8.867  18.830  0.00  0.00    +0.000 OA
ATOM      2  C   UNL     1       1.447   8.494  20.000  0.00  0.00    +0.000 C 
ATOM      3  N   UNL     1       1.988   7.274  20.346  0.00  0.00    +0.000 N 
ATOM      4  H   UNL     1       1.917   6.989  21.318  0.00  0.00    +0.000 HD
ENDROOT
BRANCH   3   5
ATOM      5  C   UNL     1       2.478   6.362  19.321  0.00  0.00    +0.000 C 
ATOM      6  C   UNL     1       3.017   5.064  19.929  0.00  0.00    +0.000 C 
ATOM      7  C   UNL     1       3.334   4.061  18.819  0.00  0.00    +0.000 C 
ATOM      8  C   UNL     1       4.126   4.658  17.680  0.00  0.00    +0.000 A 
ATOM      9  C   UNL     1       4.753   3.800  16.761  0.00  0.00    +0.000 A 
ATOM     10  C   UNL     1       5.461   4.329  15.686  0.00  0.00    +0.000 A 
ATOM     11  C   UNL     1       5.553   5.702  15.501  0.00  0.00    +0.000 A 
ATOM     12  C   UNL     1       4.923   6.561  16.398  0.00  0.00    +0.000 A 
ATOM     13  C   UNL     1       4.197   6.051  17.485  0.00  0.00    +0.000 A 
ATOM     14  C   UNL     1       3.549   7.018  18.446  0.00  0.00    +0.000 C 
BRANCH  10  15
ATOM     15  O   UNL     1       6.088   3.526  14.779  0.00  0.00    +0.000 OA
ATOM     16  H   UNL     1       5.888   2.600  14.995  0.00  0.00    +0.000 HD
ENDBRANCH  10  15
ENDBRANCH   3   5
BRANCH   2  17
ATOM     17  C   UNL     1       0.967   9.336  21.091  0.00  0.00    +0.000 A 
ATOM     18  C   UNL     1       0.018  10.372  20.943  0.00  0.00    +0.000 A 
ATOM     19  C   UNL     1      -0.164  10.882  22.201  0.00  0.00    +0.000 A 
ATOM     20  O   UNL     1       0.645  10.204  23.066  0.00  0.00    +0.000 OA
ATOM     21  N   UNL     1       1.362   9.226  22.371  0.00  0.00    +0.000 NA
BRANCH  19  22
ATOM     22  C   UNL     1      -1.055  11.904  22.732  0.00  0.00    +0.000 A 
ATOM     23  C   UNL     1      -2.307  11.578  23.272  0.00  0.00    +0.000 A 
ATOM     24  C   UNL     1      -3.218  12.586  23.605  0.00  0.00    +0.000 A 
ATOM     25  C   UNL     1      -2.871  13.920  23.420  0.00  0.00    +0.000 A 
ATOM     26  F   UNL     1      -3.763  14.881  23.693  0.00  0.00    +0.000 F 
ATOM     27  C   UNL     1      -1.617  14.269  22.939  0.00  0.00    +0.000 A 
ATOM     28  C   UNL     1      -0.711  13.264  22.600  0.00  0.00    +0.000 A 
ENDBRANCH  19  22
ENDBRANCH   2  17
TORSDOF 4
ENDMDL
MODEL 2
REMARK VINA RESULT:      -8.4      6.912      9.939
REMARK  Name = 
REMARK  4 active torsions:
REMARK  status: ('A' for Active; 'I' for Inactive)
REMARK    1  A    between atoms: C_2  and  C_15
REMARK    2  A    between atoms: N_3  and  C_4
REMARK    3  A    between atoms: C_9  and  O_10
REMARK    4  A    between atoms: C_17  and  C_18
REMARK                            x       y       z     vdW  Elec       q    Type
REMARK                         _______ _______ _______ _____ _____    ______ ____
ROOT
ATOM      1  O   UNL     1       8.532   7.211  18.710  0.00  0.00    +0.000 OA
ATOM      2  C   UNL     1       7.681   7.679  17.953  0.00  0.00    +0.000 C 
ATOM      3  N   UNL     1       7.698   8.998  17.555  0.00  0.00    +0.000 N 
ATOM      4  H   UNL     1       6.901   9.337  17.025  0.00  0.00    +0.000 HD
ENDROOT
BRANCH   3   5
ATOM      5  C   UNL     1       8.733   9.905  18.034  0.00  0.00    +0.000 C 
ATOM      6  C   UNL     1       8.925   9.795  19.548  0.00  0.00    +0.000 C 
ATOM      7  C   UNL     1      10.145  10.610  19.979  0.00  0.00    +0.000 C 
ATOM      8  C   UNL     1      10.178  12.000  19.389  0.00  0.00    +0.000 A 
ATOM      9  C   UNL     1      11.051  12.955  19.937  0.00  0.00    +0.000 A 
ATOM     10  C   UNL     1      11.120  14.232  19.388  0.00  0.00    +0.000 A 
ATOM     11  C   UNL     1      10.338  14.579  18.295  0.00  0.00    +0.000 A 
ATOM     12  C   UNL     1       9.478  13.636  17.735  0.00  0.00    +0.000 A 
ATOM     13  C   UNL     1       9.398  12.339  18.267  0.00  0.00    +0.000 A 
ATOM     14  C   UNL     1       8.437  11.355  17.644  0.00  0.00    +0.000 C 
BRANCH  10  15
ATOM     15  O   UNL     1      11.951  15.184  19.899  0.00  0.00    +0.000 OA
ATOM     16  H   UNL     1      11.431  15.780  20.462  0.00  0.00    +0.000 HD
ENDBRANCH  10  15
ENDBRANCH   3   5
BRANCH   2  17
ATOM     17  C   UNL     1       6.598   6.848  17.438  0.00  0.00    +0.000 A 
ATOM     18  C   UNL     1       5.716   6.093  18.243  0.00  0.00    +0.000 A 
ATOM     19  C   UNL     1       4.850   5.491  17.370  0.00  0.00    +0.000 A 
ATOM     20  O   UNL     1       5.198   5.846  16.099  0.00  0.00    +0.000 OA
ATOM     21  N   UNL     1       6.301   6.702  16.135  0.00  0.00    +0.000 NA
BRANCH  19  22
ATOM     22  C   UNL     1       3.675   4.653  17.566  0.00  0.00    +0.000 A 
ATOM     23  C   UNL     1       2.511   5.149  18.169  0.00  0.00    +0.000 A 
ATOM     24  C   UNL     1       1.468   4.283  18.513  0.00  0.00    +0.000 A 
ATOM     25  C   UNL     1       1.576   2.925  18.233  0.00  0.00    +0.000 A 
ATOM     26  F   UNL     1       0.598   2.092  18.609  0.00  0.00    +0.000 F 
ATOM     27  C   UNL     1       2.694   2.419  17.587  0.00  0.00    +0.000 A 
ATOM     28  C   UNL     1       3.739   3.281  17.250  0.00  0.00    +0.000 A 
ENDBRANCH  19  22
ENDBRANCH   2  17
TORSDOF 4
ENDMDL
MODEL 3
REMARK VINA RESULT:      -8.4      2.077      3.066
REMARK  Name = 
REMARK  4 active torsions:
REMARK  status: ('A' for Active; 'I' for Inactive)
REMARK    1  A    between atoms: C_2  and  C_15
REMARK    2  A    between atoms: N_3  and  C_4
REMARK    3  A    between atoms: C_9  and  O_10
REMARK    4  A    between atoms: C_17  and  C_18
REMARK                            x       y       z     vdW  Elec       q    Type
REMARK                         _______ _______ _______ _____ _____    ______ ____
ROOT
ATOM      1  O   UNL     1       1.778   9.050  22.414  0.00  0.00    +0.000 OA
ATOM      2  C   UNL     1       1.017   9.232  21.464  0.00  0.00    +0.000 C 
ATOM      3  N   UNL     1       1.076   8.469  20.318  0.00  0.00    +0.000 N 
ATOM      4  H   UNL     1       0.494   8.754  19.536  0.00  0.00    +0.000 HD
ENDROOT
BRANCH   3   5
ATOM      5  C   UNL     1       2.067   7.410  20.182  0.00  0.00    +0.000 C 
ATOM      6  C   UNL     1       2.529   7.250  18.732  0.00  0.00    +0.000 C 
ATOM      7  C   UNL     1       3.703   6.272  18.664  0.00  0.00    +0.000 C 
ATOM      8  C   UNL     1       3.472   5.002  19.447  0.00  0.00    +0.000 A 
ATOM      9  C   UNL     1       4.311   3.897  19.222  0.00  0.00    +0.000 A 
ATOM     10  C   UNL     1       4.136   2.728  19.955  0.00  0.00    +0.000 A 
ATOM     11  C   UNL     1       3.142   2.636  20.920  0.00  0.00    +0.000 A 
ATOM     12  C   UNL     1       2.314   3.730  21.163  0.00  0.00    +0.000 A 
ATOM     13  C   UNL     1       2.477   4.922  20.440  0.00  0.00    +0.000 A 
ATOM     14  C   UNL     1       1.542   6.075  20.718  0.00  0.00    +0.000 C 
BRANCH  10  15
ATOM     15  O   UNL     1       4.928   1.636  19.756  0.00  0.00    +0.000 OA
ATOM     16  H   UNL     1       4.818   1.336  18.840  0.00  0.00    +0.000 HD
ENDBRANCH  10  15
ENDBRANCH   3   5
BRANCH   2  17
ATOM     17  C   UNL     1       0.004  10.282  21.507  0.00  0.00    +0.000 A 
ATOM     18  C   UNL     1      -0.564  10.798  22.693  0.00  0.00    +0.000 A 
ATOM     19  C   UNL     1      -1.439  11.770  22.286  0.00  0.00    +0.000 A 
ATOM     20  O   UNL     1      -1.417  11.831  20.923  0.00  0.00    +0.000 OA
ATOM     21  N   UNL     1      -0.508  10.894  20.425  0.00  0.00    +0.000 NA
BRANCH  19  22
ATOM     22  C   UNL     1      -2.272  12.716  23.015  0.00  0.00    +0.000 A 
ATOM     23  C   UNL     1      -3.408  12.299  23.723  0.00  0.00    +0.000 A 
ATOM     24  C   UNL     1      -4.293  13.242  24.259  0.00  0.00    +0.000 A 
ATOM     25  C   UNL     1      -4.032  14.599  24.107  0.00  0.00    +0.000 A 
ATOM     26  F   UNL     1      -4.907  15.498  24.576  0.00  0.00    +0.000 F 
ATOM     27  C   UNL     1      -2.887  15.035  23.458  0.00  0.00    +0.000 A 
ATOM     28  C   UNL     1      -2.007  14.096  22.917  0.00  0.00    +0.000 A 
ENDBRANCH  19  22
ENDBRANCH   2  17
TORSDOF 4
ENDMDL
MODEL 4
REMARK VINA RESULT:      -8.4      0.402      1.020
REMARK  Name = 
REMARK  4 active torsions:
REMARK  status: ('A' for Active; 'I' for Inactive)
REMARK    1  A    between atoms: C_2  and  C_15
REMARK    2  A    between atoms: N_3  and  C_4
REMARK    3  A    between atoms: C_9  and  O_10
REMARK    4  A    between atoms: C_17  and  C_18
REMARK                            x       y       z     vdW  Elec       q    Type
REMARK                         _______ _______ _______ _____ _____    ______ ____
ROOT
ATOM      1  O   UNL     1       1.101   9.039  18.822  0.00  0.00    +0.000 OA
ATOM      2  C   UNL     1       1.245   8.693  19.995  0.00  0.00    +0.000 C 
ATOM      3  N   UNL     1       1.843   7.500  20.341  0.00  0.00    +0.000 N 
ATOM      4  H   UNL     1       1.821   7.233  21.321  0.00  0.00    +0.000 HD
ENDROOT
BRANCH   3   5
ATOM      5  C   UNL     1       2.322   6.585  19.314  0.00  0.00    +0.000 C 
ATOM      6  C   UNL     1       2.640   5.203  19.892  0.00  0.00    +0.000 C 
ATOM      7  C   UNL     1       2.947   4.223  18.759  0.00  0.00    +0.000 C 
ATOM      8  C   UNL     1       3.914   4.771  17.737  0.00  0.00    +0.000 A 
ATOM      9  C   UNL     1       4.526   3.887  16.831  0.00  0.00    +0.000 A 
ATOM     10  C   UNL     1       5.396   4.375  15.861  0.00  0.00    +0.000 A 
ATOM     11  C   UNL     1       5.666   5.734  15.768  0.00  0.00    +0.000 A 
ATOM     12  C   UNL     1       5.055   6.621  16.651  0.00  0.00    +0.000 A 
ATOM     13  C   UNL     1       4.168   6.152  17.632  0.00  0.00    +0.000 A 
ATOM     14  C   UNL     1       3.546   7.145  18.585  0.00  0.00    +0.000 C 
BRANCH  10  15
ATOM     15  O   UNL     1       6.011   3.545  14.972  0.00  0.00    +0.000 OA
ATOM     16  H   UNL     1       6.766   3.124  15.413  0.00  0.00    +0.000 HD
ENDBRANCH  10  15
ENDBRANCH   3   5
BRANCH   2  17
ATOM     17  C   UNL     1       0.781   9.541  21.088  0.00  0.00    +0.000 A 
ATOM     18  C   UNL     1      -0.186  10.562  20.953  0.00  0.00    +0.000 A 
ATOM     19  C   UNL     1      -0.345  11.083  22.210  0.00  0.00    +0.000 A 
ATOM     20  O   UNL     1       0.495  10.425  23.061  0.00  0.00    +0.000 OA
ATOM     21  N   UNL     1       1.209   9.450  22.359  0.00  0.00    +0.000 NA
BRANCH  19  22
ATOM     22  C   UNL     1      -1.236  12.098  22.752  0.00  0.00    +0.000 A 
ATOM     23  C   UNL     1      -0.801  13.411  22.982  0.00  0.00    +0.000 A 
ATOM     24  C   UNL     1      -1.615  14.315  23.672  0.00  0.00    +0.000 A 
ATOM     25  C   UNL     1      -2.872  13.917  24.113  0.00  0.00    +0.000 A 
ATOM     26  F   UNL     1      -3.628  14.769  24.817  0.00  0.00    +0.000 F 
ATOM     27  C   UNL     1      -3.347  12.641  23.849  0.00  0.00    +0.000 A 
ATOM     28  C   UNL     1      -2.533  11.735  23.167  0.00  0.00    +0.000 A 
ENDBRANCH  19  22
ENDBRANCH   2  17
TORSDOF 4
ENDMDL
MODEL 5
REMARK VINA RESULT:      -8.3      2.209      3.291
REMARK  Name = 
REMARK  4 active torsions:
REMARK  status: ('A' for Active; 'I' for Inactive)
REMARK    1  A    between atoms: C_2  and  C_15
REMARK    2  A    between atoms: N_3  and  C_4
REMARK    3  A    between atoms: C_9  and  O_10
REMARK    4  A    between atoms: C_17  and  C_18
REMARK                            x       y       z     vdW  Elec       q    Type
REMARK                         _______ _______ _______ _____ _____    ______ ____
ROOT
ATOM      1  O   UNL     1       1.888   9.264  22.582  0.00  0.00    +0.000 OA
ATOM      2  C   UNL     1       1.102   9.554  21.679  0.00  0.00    +0.000 C 
ATOM      3  N   UNL     1       1.062   8.859  20.489  0.00  0.00    +0.000 N 
ATOM      4  H   UNL     1       0.470   9.229  19.751  0.00  0.00    +0.000 HD
ENDROOT
BRANCH   3   5
ATOM      5  C   UNL     1       1.971   7.746  20.248  0.00  0.00    +0.000 C 
ATOM      6  C   UNL     1       2.309   7.604  18.762  0.00  0.00    +0.000 C 
ATOM      7  C   UNL     1       3.411   6.560  18.577  0.00  0.00    +0.000 C 
ATOM      8  C   UNL     1       3.162   5.282  19.342  0.00  0.00    +0.000 A 
ATOM      9  C   UNL     1       3.909   4.136  19.022  0.00  0.00    +0.000 A 
ATOM     10  C   UNL     1       3.718   2.957  19.736  0.00  0.00    +0.000 A 
ATOM     11  C   UNL     1       2.798   2.896  20.773  0.00  0.00    +0.000 A 
ATOM     12  C   UNL     1       2.061   4.030  21.109  0.00  0.00    +0.000 A 
ATOM     13  C   UNL     1       2.243   5.232  20.408  0.00  0.00    +0.000 A 
ATOM     14  C   UNL     1       1.406   6.430  20.788  0.00  0.00    +0.000 C 
BRANCH  10  15
ATOM     15  O   UNL     1       4.422   1.826  19.447  0.00  0.00    +0.000 OA
ATOM     16  H   UNL     1       3.974   1.069  19.859  0.00  0.00    +0.000 HD
ENDBRANCH  10  15
ENDBRANCH   3   5
BRANCH   2  17
ATOM     17  C   UNL     1       0.167  10.664  21.828  0.00  0.00    +0.000 A 
ATOM     18  C   UNL     1      -1.150  10.540  22.323  0.00  0.00    +0.000 A 
ATOM     19  C   UNL     1      -1.662  11.810  22.321  0.00  0.00    +0.000 A 
ATOM     20  O   UNL     1      -0.713  12.660  21.832  0.00  0.00    +0.000 OA
ATOM     21  N   UNL     1       0.445  11.943  21.519  0.00  0.00    +0.000 NA
BRANCH  19  22
ATOM     22  C   UNL     1      -2.929  12.364  22.777  0.00  0.00    +0.000 A 
ATOM     23  C   UNL     1      -3.313  12.308  24.124  0.00  0.00    +0.000 A 
ATOM     24  C   UNL     1      -4.606  12.677  24.508  0.00  0.00    +0.000 A 
ATOM     25  C   UNL     1      -5.509  13.125  23.550  0.00  0.00    +0.000 A 
ATOM     26  F   UNL     1      -6.762  13.431  23.913  0.00  0.00    +0.000 F 
ATOM     27  C   UNL     1      -5.136  13.242  22.220  0.00  0.00    +0.000 A 
ATOM     28  C   UNL     1      -3.848  12.866  21.835  0.00  0.00    +0.000 A 
ENDBRANCH  19  22
ENDBRANCH   2  17
TORSDOF 4
ENDMDL
MODEL 6
REMARK VINA RESULT:      -8.3      2.038      3.138
REMARK  Name = 
REMARK  4 active torsions:
REMARK  status: ('A' for Active; 'I' for Inactive)
REMARK    1  A    between atoms: C_2  and  C_15
REMARK    2  A    between atoms: N_3  and  C_4
REMARK    3  A    between atoms: C_9  and  O_10
REMARK    4  A    between atoms: C_17  and  C_18
REMARK                            x       y       z     vdW  Elec       q    Type
REMARK                         _______ _______ _______ _____ _____    ______ ____
ROOT
ATOM      1  O   UNL     1       1.544   8.699  22.375  0.00  0.00    +0.000 OA
ATOM      2  C   UNL     1       0.955   9.060  21.355  0.00  0.00    +0.000 C 
ATOM      3  N   UNL     1       1.183   8.473  20.129  0.00  0.00    +0.000 N 
ATOM      4  H   UNL     1       0.747   8.900  19.317  0.00  0.00    +0.000 HD
ENDROOT
BRANCH   3   5
ATOM      5  C   UNL     1       2.153   7.394  19.991  0.00  0.00    +0.000 C 
ATOM      6  C   UNL     1       2.562   7.185  18.531  0.00  0.00    +0.000 C 
ATOM      7  C   UNL     1       3.720   6.188  18.452  0.00  0.00    +0.000 C 
ATOM      8  C   UNL     1       3.498   4.945  19.281  0.00  0.00    +0.000 A 
ATOM      9  C   UNL     1       4.313   3.822  19.059  0.00  0.00    +0.000 A 
ATOM     10  C   UNL     1       4.147   2.677  19.833  0.00  0.00    +0.000 A 
ATOM     11  C   UNL     1       3.186   2.629  20.834  0.00  0.00    +0.000 A 
ATOM     12  C   UNL     1       2.382   3.742  21.072  0.00  0.00    +0.000 A 
ATOM     13  C   UNL     1       2.537   4.910  20.309  0.00  0.00    +0.000 A 
ATOM     14  C   UNL     1       1.629   6.084  20.584  0.00  0.00    +0.000 C 
BRANCH  10  15
ATOM     15  O   UNL     1       4.916   1.568  19.640  0.00  0.00    +0.000 OA
ATOM     16  H   UNL     1       5.407   1.385  20.457  0.00  0.00    +0.000 HD
ENDBRANCH  10  15
ENDBRANCH   3   5
BRANCH   2  17
ATOM     17  C   UNL     1      -0.021  10.143  21.397  0.00  0.00    +0.000 A 
ATOM     18  C   UNL     1      -0.427  10.809  22.575  0.00  0.00    +0.000 A 
ATOM     19  C   UNL     1      -1.324  11.760  22.167  0.00  0.00    +0.000 A 
ATOM     20  O   UNL     1      -1.470  11.665  20.813  0.00  0.00    +0.000 OA
ATOM     21  N   UNL     1      -0.650  10.646  20.321  0.00  0.00    +0.000 NA
BRANCH  19  22
ATOM     22  C   UNL     1      -2.040  12.811  22.875  0.00  0.00    +0.000 A 
ATOM     23  C   UNL     1      -1.498  14.095  23.027  0.00  0.00    +0.000 A 
ATOM     24  C   UNL     1      -2.116  15.029  23.865  0.00  0.00    +0.000 A 
ATOM     25  C   UNL     1      -3.286  14.690  24.534  0.00  0.00    +0.000 A 
ATOM     26  F   UNL     1      -3.848  15.569  25.374  0.00  0.00    +0.000 F 
ATOM     27  C   UNL     1      -3.872  13.445  24.357  0.00  0.00    +0.000 A 
ATOM     28  C   UNL     1      -3.252  12.510  23.527  0.00  0.00    +0.000 A 
ENDBRANCH  19  22
ENDBRANCH   2  17
TORSDOF 4
ENDMDL
MODEL 7
REMARK VINA RESULT:      -8.2      3.546      4.302
REMARK  Name = 
REMARK  4 active torsions:
REMARK  status: ('A' for Active; 'I' for Inactive)
REMARK    1  A    between atoms: C_2  and  C_15
REMARK    2  A    between atoms: N_3  and  C_4
REMARK    3  A    between atoms: C_9  and  O_10
REMARK    4  A    between atoms: C_17  and  C_18
REMARK                            x       y       z     vdW  Elec       q    Type
REMARK                         _______ _______ _______ _____ _____    ______ ____
ROOT
ATOM      1  O   UNL     1       1.349   8.751  21.204  0.00  0.00    +0.000 OA
ATOM      2  C   UNL     1       1.063   9.028  20.039  0.00  0.00    +0.000 C 
ATOM      3  N   UNL     1       1.609   8.354  18.968  0.00  0.00    +0.000 N 
ATOM      4  H   UNL     1       1.414   8.715  18.039  0.00  0.00    +0.000 HD
ENDROOT
BRANCH   3   5
ATOM      5  C   UNL     1       2.570   7.279  19.180  0.00  0.00    +0.000 C 
ATOM      6  C   UNL     1       3.347   6.955  17.901  0.00  0.00    +0.000 C 
ATOM      7  C   UNL     1       4.474   5.969  18.212  0.00  0.00    +0.000 C 
ATOM      8  C   UNL     1       4.029   4.795  19.052  0.00  0.00    +0.000 A 
ATOM      9  C   UNL     1       4.861   3.667  19.146  0.00  0.00    +0.000 A 
ATOM     10  C   UNL     1       4.484   2.588  19.940  0.00  0.00    +0.000 A 
ATOM     11  C   UNL     1       3.293   2.611  20.652  0.00  0.00    +0.000 A 
ATOM     12  C   UNL     1       2.467   3.730  20.578  0.00  0.00    +0.000 A 
ATOM     13  C   UNL     1       2.830   4.833  19.790  0.00  0.00    +0.000 A 
ATOM     14  C   UNL     1       1.894   6.016  19.719  0.00  0.00    +0.000 C 
BRANCH  10  15
ATOM     15  O   UNL     1       5.265   1.475  20.048  0.00  0.00    +0.000 OA
ATOM     16  H   UNL     1       5.207   1.143  20.959  0.00  0.00    +0.000 HD
ENDBRANCH  10  15
ENDBRANCH   3   5
BRANCH   2  17
ATOM     17  C   UNL     1       0.122  10.101  19.733  0.00  0.00    +0.000 A 
ATOM     18  C   UNL     1      -1.115   9.916  19.077  0.00  0.00    +0.000 A 
ATOM     19  C   UNL     1      -1.685  11.160  19.016  0.00  0.00    +0.000 A 
ATOM     20  O   UNL     1      -0.831  12.057  19.590  0.00  0.00    +0.000 OA
ATOM     21  N   UNL     1       0.312  11.395  20.044  0.00  0.00    +0.000 NA
BRANCH  19  22
ATOM     22  C   UNL     1      -2.976  11.632  18.536  0.00  0.00    +0.000 A 
ATOM     23  C   UNL     1      -3.909  12.225  19.399  0.00  0.00    +0.000 A 
ATOM     24  C   UNL     1      -5.207  12.500  18.957  0.00  0.00    +0.000 A 
ATOM     25  C   UNL     1      -5.567  12.206  17.646  0.00  0.00    +0.000 A 
ATOM     26  F   UNL     1      -6.825  12.424  17.240  0.00  0.00    +0.000 F 
ATOM     27  C   UNL     1      -4.646  11.671  16.758  0.00  0.00    +0.000 A 
ATOM     28  C   UNL     1      -3.353  11.389  17.201  0.00  0.00    +0.000 A 
ENDBRANCH  19  22
ENDBRANCH   2  17
TORSDOF 4
ENDMDL
MODEL 8
REMARK VINA RESULT:      -8.2      3.524      4.382
REMARK  Name = 
REMARK  4 active torsions:
REMARK  status: ('A' for Active; 'I' for Inactive)
REMARK    1  A    between atoms: C_2  and  C_15
REMARK    2  A    between atoms: N_3  and  C_4
REMARK    3  A    between atoms: C_9  and  O_10
REMARK    4  A    between atoms: C_17  and  C_18
REMARK                            x       y       z     vdW  Elec       q    Type
REMARK                         _______ _______ _______ _____ _____    ______ ____
ROOT
ATOM      1  O   UNL     1       1.326   8.465  20.340  0.00  0.00    +0.000 OA
ATOM      2  C   UNL     1       1.475   9.018  19.250  0.00  0.00    +0.000 C 
ATOM      3  N   UNL     1       2.168   8.427  18.215  0.00  0.00    +0.000 N 
ATOM      4  H   UNL     1       2.346   8.991  17.389  0.00  0.00    +0.000 HD
ENDROOT
BRANCH   3   5
ATOM      5  C   UNL     1       2.770   7.111  18.382  0.00  0.00    +0.000 C 
ATOM      6  C   UNL     1       4.012   6.942  17.502  0.00  0.00    +0.000 C 
ATOM      7  C   UNL     1       4.723   5.634  17.851  0.00  0.00    +0.000 C 
ATOM      8  C   UNL     1       3.790   4.450  17.944  0.00  0.00    +0.000 A 
ATOM      9  C   UNL     1       4.329   3.153  17.940  0.00  0.00    +0.000 A 
ATOM     10  C   UNL     1       3.490   2.049  18.056  0.00  0.00    +0.000 A 
ATOM     11  C   UNL     1       2.117   2.210  18.184  0.00  0.00    +0.000 A 
ATOM     12  C   UNL     1       1.572   3.492  18.202  0.00  0.00    +0.000 A 
ATOM     13  C   UNL     1       2.400   4.620  18.095  0.00  0.00    +0.000 A 
ATOM     14  C   UNL     1       1.767   5.991  18.096  0.00  0.00    +0.000 C 
BRANCH  10  15
ATOM     15  O   UNL     1       3.979   0.776  18.049  0.00  0.00    +0.000 OA
ATOM     16  H   UNL     1       3.290   0.178  18.380  0.00  0.00    +0.000 HD
ENDBRANCH  10  15
ENDBRANCH   3   5
BRANCH   2  17
ATOM     17  C   UNL     1       0.919  10.344  19.000  0.00  0.00    +0.000 A 
ATOM     18  C   UNL     1       1.650  11.549  19.097  0.00  0.00    +0.000 A 
ATOM     19  C   UNL     1       0.766  12.540  18.760  0.00  0.00    +0.000 A 
ATOM     20  O   UNL     1      -0.443  11.969  18.489  0.00  0.00    +0.000 OA
ATOM     21  N   UNL     1      -0.354  10.583  18.639  0.00  0.00    +0.000 NA
BRANCH  19  22
ATOM     22  C   UNL     1       0.913  13.979  18.596  0.00  0.00    +0.000 A 
ATOM     23  C   UNL     1       2.172  14.576  18.443  0.00  0.00    +0.000 A 
ATOM     24  C   UNL     1       2.303  15.969  18.473  0.00  0.00    +0.000 A 
ATOM     25  C   UNL     1       1.175  16.766  18.631  0.00  0.00    +0.000 A 
ATOM     26  F   UNL     1       1.309  18.096  18.709  0.00  0.00    +0.000 F 
ATOM     27  C   UNL     1      -0.088  16.200  18.728  0.00  0.00    +0.000 A 
ATOM     28  C   UNL     1      -0.218  14.811  18.706  0.00  0.00    +0.000 A 
ENDBRANCH  19  22
ENDBRANCH   2  17
TORSDOF 4
ENDMDL
MODEL 9
REMARK VINA RESULT:      -8.2      1.446      1.493
REMARK  Name = 
REMARK  4 active torsions:
REMARK  status: ('A' for Active; 'I' for Inactive)
REMARK    1  A    between atoms: C_2  and  C_15
REMARK    2  A    between atoms: N_3  and  C_4
REMARK    3  A    between atoms: C_9  and  O_10
REMARK    4  A    between atoms: C_17  and  C_18
REMARK                            x       y       z     vdW  Elec       q    Type
REMARK                         _______ _______ _______ _____ _____    ______ ____
ROOT
ATOM      1  O   UNL     1       0.571   9.310  17.554  0.00  0.00    +0.000 OA
ATOM      2  C   UNL     1       0.980   9.478  18.703  0.00  0.00    +0.000 C 
ATOM      3  N   UNL     1       1.841   8.593  19.314  0.00  0.00    +0.000 N 
ATOM      4  H   UNL     1       2.042   8.738  20.299  0.00  0.00    +0.000 HD
ENDROOT
BRANCH   3   5
ATOM      5  C   UNL     1       2.297   7.399  18.614  0.00  0.00    +0.000 C 
ATOM      6  C   UNL     1       2.500   6.223  19.573  0.00  0.00    +0.000 C 
ATOM      7  C   UNL     1       2.784   4.947  18.780  0.00  0.00    +0.000 C 
ATOM      8  C   UNL     1       3.824   5.130  17.700  0.00  0.00    +0.000 A 
ATOM      9  C   UNL     1       4.409   3.994  17.115  0.00  0.00    +0.000 A 
ATOM     10  C   UNL     1       5.346   4.140  16.097  0.00  0.00    +0.000 A 
ATOM     11  C   UNL     1       5.710   5.399  15.640  0.00  0.00    +0.000 A 
ATOM     12  C   UNL     1       5.126   6.532  16.204  0.00  0.00    +0.000 A 
ATOM     13  C   UNL     1       4.173   6.409  17.226  0.00  0.00    +0.000 A 
ATOM     14  C   UNL     1       3.583   7.663  17.825  0.00  0.00    +0.000 C 
BRANCH  10  15
ATOM     15  O   UNL     1       5.938   3.059  15.512  0.00  0.00    +0.000 OA
ATOM     16  H   UNL     1       5.952   3.196  14.551  0.00  0.00    +0.000 HD
ENDBRANCH  10  15
ENDBRANCH   3   5
BRANCH   2  17
ATOM     17  C   UNL     1       0.562  10.638  19.484  0.00  0.00    +0.000 A 
ATOM     18  C   UNL     1      -0.341  10.588  20.569  0.00  0.00    +0.000 A 
ATOM     19  C   UNL     1      -0.433  11.876  21.027  0.00  0.00    +0.000 A 
ATOM     20  O   UNL     1       0.361  12.670  20.250  0.00  0.00    +0.000 OA
ATOM     21  N   UNL     1       0.991  11.894  19.274  0.00  0.00    +0.000 NA
BRANCH  19  22
ATOM     22  C   UNL     1      -1.131  12.475  22.155  0.00  0.00    +0.000 A 
ATOM     23  C   UNL     1      -2.335  11.944  22.640  0.00  0.00    +0.000 A 
ATOM     24  C   UNL     1      -3.079  12.639  23.599  0.00  0.00    +0.000 A 
ATOM     25  C   UNL     1      -2.612  13.853  24.090  0.00  0.00    +0.000 A 
ATOM     26  F   UNL     1      -3.352  14.539  24.971  0.00  0.00    +0.000 F 
ATOM     27  C   UNL     1      -1.397  14.372  23.667  0.00  0.00    +0.000 A 
ATOM     28  C   UNL     1      -0.657  13.682  22.705  0.00  0.00    +0.000 A 
ENDBRANCH  19  22
ENDBRANCH   2  17
TORSDOF 4
ENDMDL
