MODEL 1
REMARK VINA RESULT:      -8.6      0.000      0.000
REMARK  Name = 
REMARK  6 active torsions:
REMARK  status: ('A' for Active; 'I' for Inactive)
REMARK    1  A    between atoms: C_1  and  O_2
REMARK    2  A    between atoms: O_2  and  C_3
REMARK    3  A    between atoms: C_6  and  N_7
REMARK    4  A    between atoms: C_8  and  C_10
REMARK    5  A    between atoms: C_21  and  S_22
REMARK    6  A    between atoms: S_22  and  N_25
REMARK                            x       y       z     vdW  Elec       q    Type
REMARK                         _______ _______ _______ _____ _____    ______ ____
ROOT
ATOM      1  C   UNL     1       0.978   8.512  20.653  0.00  0.00    +0.000 A 
ATOM      2  C   UNL     1       1.478   7.227  20.871  0.00  0.00    +0.000 A 
ATOM      3  C   UNL     1       2.274   6.557  19.931  0.00  0.00    +0.000 A 
ATOM      4  C   UNL     1       2.628   7.094  18.707  0.00  0.00    +0.000 A 
ATOM      5  C   UNL     1       2.166   8.447  18.485  0.00  0.00    +0.000 A 
ATOM      6  C   UNL     1       1.287   9.131  19.430  0.00  0.00    +0.000 A 
ENDROOT
BRANCH   4   7
ATOM      7  N   UNL     1       3.452   6.322  17.770  0.00  0.00    +0.000 N 
ATOM      8  C   UNL     1       4.705   5.699  18.109  0.00  0.00    +0.000 C 
ATOM      9  O   UNL     1       5.137   5.610  19.257  0.00  0.00    +0.000 OA
ATOM     10  H   UNL     1       3.078   6.182  16.845  0.00  0.00    +0.000 HD
BRANCH   8  11
ATOM     11  C   UNL     1       5.554   5.054  16.953  0.00  0.00    +0.000 C 
ATOM     12  C   UNL     1       7.087   5.454  16.816  0.00  0.00    +0.000 C 
ATOM     13  O   UNL     1       7.546   5.932  15.500  0.00  0.00    +0.000 OA
ATOM     14  C   UNL     1       7.025   5.190  14.469  0.00  0.00    +0.000 A 
ATOM     15  C   UNL     1       7.793   4.799  13.379  0.00  0.00    +0.000 A 
ATOM     16  C   UNL     1       7.238   3.921  12.433  0.00  0.00    +0.000 A 
ATOM     17  C   UNL     1       5.925   3.463  12.593  0.00  0.00    +0.000 A 
ATOM     18  C   UNL     1       5.134   3.939  13.636  0.00  0.00    +0.000 A 
ATOM     19  C   UNL     1       5.680   4.842  14.547  0.00  0.00    +0.000 A 
ATOM     20  C   UNL     1       4.894   5.464  15.654  0.00  0.00    +0.000 C 
ENDBRANCH   8  11
ENDBRANCH   4   7
BRANCH   6  21
ATOM     21  S   UNL     1       0.791  10.884  19.162  0.00  0.00    +0.000 S 
ATOM     22  O   UNL     1       0.704  11.546  20.430  0.00  0.00    +0.000 OA
ATOM     23  O   UNL     1       1.730  11.382  18.164  0.00  0.00    +0.000 OA
BRANCH  21  24
ATOM     24  N   UNL     1      -0.789  10.947  18.418  0.00  0.00    +0.000 NA
ATOM     25  C   UNL     1      -1.179   9.848  17.517  0.00  0.00    +0.000 C 
ATOM     26  C   UNL     1      -2.539  10.010  16.842  0.00  0.00    +0.000 C 
ATOM     27  C   UNL     1      -3.634  10.431  17.799  0.00  0.00    +0.000 C 
ATOM     28  C   UNL     1      -3.240  11.707  18.518  0.00  0.00    +0.000 C 
ATOM     29  C   UNL     1      -1.833  11.726  19.132  0.00  0.00    +0.000 C 
ENDBRANCH  21  24
ENDBRANCH   6  21
BRANCH   1  31
ATOM     30  C   UNL     1       0.649   9.281  22.900  0.00  0.00    +0.000 C 
ATOM     31  O   UNL     1       0.147   9.104  21.567  0.00  0.00    +0.000 OA
ENDBRANCH   1  31
TORSDOF 5
ENDMDL
MODEL 2
REMARK VINA RESULT:      -8.6      0.621      1.106
REMARK  Name = 
REMARK  6 active torsions:
REMARK  status: ('A' for Active; 'I' for Inactive)
REMARK    1  A    between atoms: C_1  and  O_2
REMARK    2  A    between atoms: O_2  and  C_3
REMARK    3  A    between atoms: C_6  and  N_7
REMARK    4  A    between atoms: C_8  and  C_10
REMARK    5  A    between atoms: C_21  and  S_22
REMARK    6  A    between atoms: S_22  and  N_25
REMARK                            x       y       z     vdW  Elec       q    Type
REMARK                         _______ _______ _______ _____ _____    ______ ____
ROOT
ATOM      1  C   UNL     1       1.383   8.230  20.645  0.00  0.00    +0.000 A 
ATOM      2  C   UNL     1       1.892   6.942  20.822  0.00  0.00    +0.000 A 
ATOM      3  C   UNL     1       2.616   6.273  19.825  0.00  0.00    +0.000 A 
ATOM      4  C   UNL     1       2.885   6.814  18.581  0.00  0.00    +0.000 A 
ATOM      5  C   UNL     1       2.414   8.170  18.399  0.00  0.00    +0.000 A 
ATOM      6  C   UNL     1       1.608   8.853  19.406  0.00  0.00    +0.000 A 
ENDROOT
BRANCH   4   7
ATOM      7  N   UNL     1       3.638   6.043  17.585  0.00  0.00    +0.000 N 
ATOM      8  C   UNL     1       4.903   5.404  17.835  0.00  0.00    +0.000 C 
ATOM      9  O   UNL     1       5.408   5.298  18.952  0.00  0.00    +0.000 OA
ATOM     10  H   UNL     1       3.203   5.916  16.686  0.00  0.00    +0.000 HD
BRANCH   8  11
ATOM     11  C   UNL     1       5.668   4.761  16.620  0.00  0.00    +0.000 C 
ATOM     12  C   UNL     1       7.202   5.120  16.407  0.00  0.00    +0.000 C 
ATOM     13  O   UNL     1       7.602   5.615  15.078  0.00  0.00    +0.000 OA
ATOM     14  C   UNL     1       7.003   4.913  14.062  0.00  0.00    +0.000 A 
ATOM     15  C   UNL     1       7.698   4.525  12.923  0.00  0.00    +0.000 A 
ATOM     16  C   UNL     1       7.065   3.685  11.990  0.00  0.00    +0.000 A 
ATOM     17  C   UNL     1       5.750   3.262  12.213  0.00  0.00    +0.000 A 
ATOM     18  C   UNL     1       5.032   3.736  13.309  0.00  0.00    +0.000 A 
ATOM     19  C   UNL     1       5.654   4.601  14.208  0.00  0.00    +0.000 A 
ATOM     20  C   UNL     1       4.949   5.220  15.370  0.00  0.00    +0.000 C 
ENDBRANCH   8  11
ENDBRANCH   4   7
BRANCH   6  21
ATOM     21  S   UNL     1       1.101  10.610  19.181  0.00  0.00    +0.000 S 
ATOM     22  O   UNL     1       1.316  11.320  20.407  0.00  0.00    +0.000 OA
ATOM     23  O   UNL     1       1.803  11.042  17.978  0.00  0.00    +0.000 OA
BRANCH  21  24
ATOM     24  N   UNL     1      -0.604  10.692  18.808  0.00  0.00    +0.000 NA
ATOM     25  C   UNL     1      -1.352  11.891  19.228  0.00  0.00    +0.000 C 
ATOM     26  C   UNL     1      -2.850  11.857  18.938  0.00  0.00    +0.000 C 
ATOM     27  C   UNL     1      -3.177  11.396  17.533  0.00  0.00    +0.000 C 
ATOM     28  C   UNL     1      -2.553  10.040  17.269  0.00  0.00    +0.000 C 
ATOM     29  C   UNL     1      -1.071   9.897  17.643  0.00  0.00    +0.000 C 
ENDBRANCH  21  24
ENDBRANCH   6  21
BRANCH   1  31
ATOM     30  C   UNL     1      -0.753   8.418  21.717  0.00  0.00    +0.000 C 
ATOM     31  O   UNL     1       0.621   8.821  21.618  0.00  0.00    +0.000 OA
ENDBRANCH   1  31
TORSDOF 5
ENDMDL
MODEL 3
REMARK VINA RESULT:      -8.2      1.882      2.904
REMARK  Name = 
REMARK  6 active torsions:
REMARK  status: ('A' for Active; 'I' for Inactive)
REMARK    1  A    between atoms: C_1  and  O_2
REMARK    2  A    between atoms: O_2  and  C_3
REMARK    3  A    between atoms: C_6  and  N_7
REMARK    4  A    between atoms: C_8  and  C_10
REMARK    5  A    between atoms: C_21  and  S_22
REMARK    6  A    between atoms: S_22  and  N_25
REMARK                            x       y       z     vdW  Elec       q    Type
REMARK                         _______ _______ _______ _____ _____    ______ ____
ROOT
ATOM      1  C   UNL     1      -0.205  10.834  21.397  0.00  0.00    +0.000 A 
ATOM      2  C   UNL     1       0.601   9.837  21.949  0.00  0.00    +0.000 A 
ATOM      3  C   UNL     1       1.352   8.952  21.163  0.00  0.00    +0.000 A 
ATOM      4  C   UNL     1       1.361   8.974  19.781  0.00  0.00    +0.000 A 
ATOM      5  C   UNL     1       0.576  10.037  19.190  0.00  0.00    +0.000 A 
ATOM      6  C   UNL     1      -0.257  10.925  19.996  0.00  0.00    +0.000 A 
ENDROOT
BRANCH   4   7
ATOM      7  N   UNL     1       2.164   8.003  19.029  0.00  0.00    +0.000 N 
ATOM      8  C   UNL     1       2.422   6.653  19.458  0.00  0.00    +0.000 C 
ATOM      9  O   UNL     1       1.865   6.121  20.417  0.00  0.00    +0.000 OA
ATOM     10  H   UNL     1       2.506   8.297  18.129  0.00  0.00    +0.000 HD
BRANCH   8  11
ATOM     11  C   UNL     1       3.441   5.789  18.629  0.00  0.00    +0.000 C 
ATOM     12  C   UNL     1       4.546   4.952  19.410  0.00  0.00    +0.000 C 
ATOM     13  O   UNL     1       5.949   5.141  19.004  0.00  0.00    +0.000 OA
ATOM     14  C   UNL     1       6.091   5.198  17.640  0.00  0.00    +0.000 A 
ATOM     15  C   UNL     1       7.128   4.550  16.979  0.00  0.00    +0.000 A 
ATOM     16  C   UNL     1       7.132   4.527  15.574  0.00  0.00    +0.000 A 
ATOM     17  C   UNL     1       6.107   5.161  14.863  0.00  0.00    +0.000 A 
ATOM     18  C   UNL     1       5.128   5.889  15.536  0.00  0.00    +0.000 A 
ATOM     19  C   UNL     1       5.154   5.940  16.929  0.00  0.00    +0.000 A 
ATOM     20  C   UNL     1       4.194   6.752  17.737  0.00  0.00    +0.000 C 
ENDBRANCH   8  11
ENDBRANCH   4   7
BRANCH   6  21
ATOM     21  S   UNL     1      -1.173  12.323  19.222  0.00  0.00    +0.000 S 
ATOM     22  O   UNL     1      -1.470  13.301  20.226  0.00  0.00    +0.000 OA
ATOM     23  O   UNL     1      -0.355  12.708  18.077  0.00  0.00    +0.000 OA
BRANCH  21  24
ATOM     24  N   UNL     1      -2.689  11.751  18.567  0.00  0.00    +0.000 NA
ATOM     25  C   UNL     1      -3.936  12.165  19.234  0.00  0.00    +0.000 C 
ATOM     26  C   UNL     1      -5.214  11.563  18.655  0.00  0.00    +0.000 C 
ATOM     27  C   UNL     1      -5.277  11.634  17.144  0.00  0.00    +0.000 C 
ATOM     28  C   UNL     1      -4.055  10.974  16.536  0.00  0.00    +0.000 C 
ATOM     29  C   UNL     1      -2.701  11.396  17.124  0.00  0.00    +0.000 C 
ENDBRANCH  21  24
ENDBRANCH   6  21
BRANCH   1  31
ATOM     30  C   UNL     1      -1.687  11.002  23.273  0.00  0.00    +0.000 C 
ATOM     31  O   UNL     1      -0.977  11.634  22.197  0.00  0.00    +0.000 OA
ENDBRANCH   1  31
TORSDOF 5
ENDMDL
MODEL 4
REMARK VINA RESULT:      -8.2      2.570      4.136
REMARK  Name = 
REMARK  6 active torsions:
REMARK  status: ('A' for Active; 'I' for Inactive)
REMARK    1  A    between atoms: C_1  and  O_2
REMARK    2  A    between atoms: O_2  and  C_3
REMARK    3  A    between atoms: C_6  and  N_7
REMARK    4  A    between atoms: C_8  and  C_10
REMARK    5  A    between atoms: C_21  and  S_22
REMARK    6  A    between atoms: S_22  and  N_25
REMARK                            x       y       z     vdW  Elec       q    Type
REMARK                         _______ _______ _______ _____ _____    ______ ____
ROOT
ATOM      1  C   UNL     1      -0.860  11.755  18.827  0.00  0.00    +0.000 A 
ATOM      2  C   UNL     1      -1.273  10.632  18.109  0.00  0.00    +0.000 A 
ATOM      3  C   UNL     1      -0.406   9.575  17.796  0.00  0.00    +0.000 A 
ATOM      4  C   UNL     1       0.928   9.546  18.158  0.00  0.00    +0.000 A 
ATOM      5  C   UNL     1       1.362  10.676  18.952  0.00  0.00    +0.000 A 
ATOM      6  C   UNL     1       0.485  11.810  19.230  0.00  0.00    +0.000 A 
ENDROOT
BRANCH   4   7
ATOM      7  N   UNL     1       1.774   8.409  17.779  0.00  0.00    +0.000 N 
ATOM      8  C   UNL     1       2.321   7.455  18.709  0.00  0.00    +0.000 C 
ATOM      9  O   UNL     1       2.004   7.397  19.896  0.00  0.00    +0.000 OA
ATOM     10  H   UNL     1       1.932   8.268  16.795  0.00  0.00    +0.000 HD
BRANCH   8  11
ATOM     11  C   UNL     1       3.349   6.394  18.171  0.00  0.00    +0.000 C 
ATOM     12  C   UNL     1       4.252   5.607  19.218  0.00  0.00    +0.000 C 
ATOM     13  O   UNL     1       5.709   5.619  18.998  0.00  0.00    +0.000 OA
ATOM     14  C   UNL     1       6.034   5.448  17.675  0.00  0.00    +0.000 A 
ATOM     15  C   UNL     1       7.079   4.625  17.272  0.00  0.00    +0.000 A 
ATOM     16  C   UNL     1       7.266   4.381  15.902  0.00  0.00    +0.000 A 
ATOM     17  C   UNL     1       6.412   4.973  14.965  0.00  0.00    +0.000 A 
ATOM     18  C   UNL     1       5.430   5.873  15.375  0.00  0.00    +0.000 A 
ATOM     19  C   UNL     1       5.277   6.141  16.735  0.00  0.00    +0.000 A 
ATOM     20  C   UNL     1       4.306   7.142  17.268  0.00  0.00    +0.000 C 
ENDBRANCH   8  11
ENDBRANCH   4   7
BRANCH   6  21
ATOM     21  S   UNL     1       1.039  13.189  20.319  0.00  0.00    +0.000 S 
ATOM     22  O   UNL     1       2.185  12.764  21.066  0.00  0.00    +0.000 OA
ATOM     23  O   UNL     1       1.159  14.335  19.425  0.00  0.00    +0.000 OA
BRANCH  21  24
ATOM     24  N   UNL     1      -0.224  13.589  21.458  0.00  0.00    +0.000 NA
ATOM     25  C   UNL     1      -0.647  12.557  22.421  0.00  0.00    +0.000 C 
ATOM     26  C   UNL     1      -1.807  12.952  23.331  0.00  0.00    +0.000 C 
ATOM     27  C   UNL     1      -1.646  14.327  23.943  0.00  0.00    +0.000 C 
ATOM     28  C   UNL     1      -1.445  15.364  22.856  0.00  0.00    +0.000 C 
ATOM     29  C   UNL     1      -0.391  15.028  21.792  0.00  0.00    +0.000 C 
ENDBRANCH  21  24
ENDBRANCH   6  21
BRANCH   1  31
ATOM     30  C   UNL     1      -3.009  12.485  19.597  0.00  0.00    +0.000 C 
ATOM     31  O   UNL     1      -1.719  12.798  19.051  0.00  0.00    +0.000 OA
ENDBRANCH   1  31
TORSDOF 5
ENDMDL
MODEL 5
REMARK VINA RESULT:      -8.2      2.886      4.324
REMARK  Name = 
REMARK  6 active torsions:
REMARK  status: ('A' for Active; 'I' for Inactive)
REMARK    1  A    between atoms: C_1  and  O_2
REMARK    2  A    between atoms: O_2  and  C_3
REMARK    3  A    between atoms: C_6  and  N_7
REMARK    4  A    between atoms: C_8  and  C_10
REMARK    5  A    between atoms: C_21  and  S_22
REMARK    6  A    between atoms: S_22  and  N_25
REMARK                            x       y       z     vdW  Elec       q    Type
REMARK                         _______ _______ _______ _____ _____    ______ ____
ROOT
ATOM      1  C   UNL     1      -0.700  11.994  19.208  0.00  0.00    +0.000 A 
ATOM      2  C   UNL     1      -1.150  10.951  18.397  0.00  0.00    +0.000 A 
ATOM      3  C   UNL     1      -0.330   9.876  18.026  0.00  0.00    +0.000 A 
ATOM      4  C   UNL     1       0.990   9.750  18.415  0.00  0.00    +0.000 A 
ATOM      5  C   UNL     1       1.459  10.792  19.304  0.00  0.00    +0.000 A 
ATOM      6  C   UNL     1       0.634  11.946  19.647  0.00  0.00    +0.000 A 
ENDROOT
BRANCH   4   7
ATOM      7  N   UNL     1       1.788   8.600  17.972  0.00  0.00    +0.000 N 
ATOM      8  C   UNL     1       2.253   7.549  18.838  0.00  0.00    +0.000 C 
ATOM      9  O   UNL     1       1.895   7.416  20.007  0.00  0.00    +0.000 OA
ATOM     10  H   UNL     1       1.969   8.528  16.984  0.00  0.00    +0.000 HD
BRANCH   8  11
ATOM     11  C   UNL     1       3.241   6.477  18.246  0.00  0.00    +0.000 C 
ATOM     12  C   UNL     1       4.129   5.621  19.250  0.00  0.00    +0.000 C 
ATOM     13  O   UNL     1       5.583   5.596  19.014  0.00  0.00    +0.000 OA
ATOM     14  C   UNL     1       5.889   5.468  17.682  0.00  0.00    +0.000 A 
ATOM     15  C   UNL     1       6.903   4.629  17.235  0.00  0.00    +0.000 A 
ATOM     16  C   UNL     1       7.068   4.434  15.853  0.00  0.00    +0.000 A 
ATOM     17  C   UNL     1       6.223   5.091  14.950  0.00  0.00    +0.000 A 
ATOM     18  C   UNL     1       5.275   6.003  15.408  0.00  0.00    +0.000 A 
ATOM     19  C   UNL     1       5.145   6.221  16.778  0.00  0.00    +0.000 A 
ATOM     20  C   UNL     1       4.212   7.231  17.362  0.00  0.00    +0.000 C 
ENDBRANCH   8  11
ENDBRANCH   4   7
BRANCH   6  21
ATOM     21  S   UNL     1       1.227  13.209  20.851  0.00  0.00    +0.000 S 
ATOM     22  O   UNL     1       0.290  13.303  21.930  0.00  0.00    +0.000 OA
ATOM     23  O   UNL     1       2.604  12.822  21.138  0.00  0.00    +0.000 OA
BRANCH  21  24
ATOM     24  N   UNL     1       1.311  14.774  20.077  0.00  0.00    +0.000 NA
ATOM     25  C   UNL     1       1.959  14.864  18.757  0.00  0.00    +0.000 C 
ATOM     26  C   UNL     1       2.066  16.273  18.180  0.00  0.00    +0.000 C 
ATOM     27  C   UNL     1       0.776  17.060  18.281  0.00  0.00    +0.000 C 
ATOM     28  C   UNL     1       0.304  17.109  19.721  0.00  0.00    +0.000 C 
ATOM     29  C   UNL     1       0.275  15.766  20.465  0.00  0.00    +0.000 C 
ENDBRANCH  21  24
ENDBRANCH   6  21
BRANCH   1  31
ATOM     30  C   UNL     1      -2.747  12.791  20.169  0.00  0.00    +0.000 C 
ATOM     31  O   UNL     1      -1.511  13.061  19.491  0.00  0.00    +0.000 OA
ENDBRANCH   1  31
TORSDOF 5
ENDMDL
MODEL 6
REMARK VINA RESULT:      -8.1      1.976      3.134
REMARK  Name = 
REMARK  6 active torsions:
REMARK  status: ('A' for Active; 'I' for Inactive)
REMARK    1  A    between atoms: C_1  and  O_2
REMARK    2  A    between atoms: O_2  and  C_3
REMARK    3  A    between atoms: C_6  and  N_7
REMARK    4  A    between atoms: C_8  and  C_10
REMARK    5  A    between atoms: C_21  and  S_22
REMARK    6  A    between atoms: S_22  and  N_25
REMARK                            x       y       z     vdW  Elec       q    Type
REMARK                         _______ _______ _______ _____ _____    ______ ____
ROOT
ATOM      1  C   UNL     1      -0.524  10.756  21.594  0.00  0.00    +0.000 A 
ATOM      2  C   UNL     1       0.424   9.902  22.160  0.00  0.00    +0.000 A 
ATOM      3  C   UNL     1       1.228   9.050  21.390  0.00  0.00    +0.000 A 
ATOM      4  C   UNL     1       1.156   8.967  20.012  0.00  0.00    +0.000 A 
ATOM      5  C   UNL     1       0.219   9.886  19.401  0.00  0.00    +0.000 A 
ATOM      6  C   UNL     1      -0.666  10.733  20.196  0.00  0.00    +0.000 A 
ENDROOT
BRANCH   4   7
ATOM      7  N   UNL     1       2.023   8.038  19.278  0.00  0.00    +0.000 N 
ATOM      8  C   UNL     1       2.230   6.660  19.639  0.00  0.00    +0.000 C 
ATOM      9  O   UNL     1       1.578   6.072  20.501  0.00  0.00    +0.000 OA
ATOM     10  H   UNL     1       2.454   8.387  18.438  0.00  0.00    +0.000 HD
BRANCH   8  11
ATOM     11  C   UNL     1       3.321   5.840  18.857  0.00  0.00    +0.000 C 
ATOM     12  C   UNL     1       4.466   5.109  19.684  0.00  0.00    +0.000 C 
ATOM     13  O   UNL     1       5.860   5.381  19.295  0.00  0.00    +0.000 OA
ATOM     14  C   UNL     1       6.023   5.400  17.932  0.00  0.00    +0.000 A 
ATOM     15  C   UNL     1       7.113   4.804  17.310  0.00  0.00    +0.000 A 
ATOM     16  C   UNL     1       7.144   4.733  15.907  0.00  0.00    +0.000 A 
ATOM     17  C   UNL     1       6.091   5.269  15.158  0.00  0.00    +0.000 A 
ATOM     18  C   UNL     1       5.052   5.950  15.790  0.00  0.00    +0.000 A 
ATOM     19  C   UNL     1       5.050   6.051  17.180  0.00  0.00    +0.000 A 
ATOM     20  C   UNL     1       4.022   6.821  17.943  0.00  0.00    +0.000 C 
ENDBRANCH   8  11
ENDBRANCH   4   7
BRANCH   6  21
ATOM     21  S   UNL     1      -1.782  11.956  19.388  0.00  0.00    +0.000 S 
ATOM     22  O   UNL     1      -2.755  12.402  20.340  0.00  0.00    +0.000 OA
ATOM     23  O   UNL     1      -0.881  12.930  18.783  0.00  0.00    +0.000 OA
BRANCH  21  24
ATOM     24  N   UNL     1      -2.637  11.196  18.067  0.00  0.00    +0.000 NA
ATOM     25  C   UNL     1      -3.944  11.752  17.672  0.00  0.00    +0.000 C 
ATOM     26  C   UNL     1      -4.667  10.989  16.565  0.00  0.00    +0.000 C 
ATOM     27  C   UNL     1      -3.772  10.645  15.393  0.00  0.00    +0.000 C 
ATOM     28  C   UNL     1      -2.560   9.869  15.870  0.00  0.00    +0.000 C 
ATOM     29  C   UNL     1      -1.813  10.462  17.073  0.00  0.00    +0.000 C 
ENDBRANCH  21  24
ENDBRANCH   6  21
BRANCH   1  31
ATOM     30  C   UNL     1      -0.804  12.759  22.881  0.00  0.00    +0.000 C 
ATOM     31  O   UNL     1      -1.338  11.522  22.385  0.00  0.00    +0.000 OA
ENDBRANCH   1  31
TORSDOF 5
ENDMDL
MODEL 7
REMARK VINA RESULT:      -8.0      3.150      9.330
REMARK  Name = 
REMARK  6 active torsions:
REMARK  status: ('A' for Active; 'I' for Inactive)
REMARK    1  A    between atoms: C_1  and  O_2
REMARK    2  A    between atoms: O_2  and  C_3
REMARK    3  A    between atoms: C_6  and  N_7
REMARK    4  A    between atoms: C_8  and  C_10
REMARK    5  A    between atoms: C_21  and  S_22
REMARK    6  A    between atoms: S_22  and  N_25
REMARK                            x       y       z     vdW  Elec       q    Type
REMARK                         _______ _______ _______ _____ _____    ______ ____
ROOT
ATOM      1  C   UNL     1       4.870   5.231  16.582  0.00  0.00    +0.000 A 
ATOM      2  C   UNL     1       5.184   6.591  16.555  0.00  0.00    +0.000 A 
ATOM      3  C   UNL     1       4.380   7.564  17.163  0.00  0.00    +0.000 A 
ATOM      4  C   UNL     1       3.205   7.277  17.834  0.00  0.00    +0.000 A 
ATOM      5  C   UNL     1       2.891   5.867  17.922  0.00  0.00    +0.000 A 
ATOM      6  C   UNL     1       3.688   4.852  17.241  0.00  0.00    +0.000 A 
ENDROOT
BRANCH   4   7
ATOM      7  N   UNL     1       2.410   8.356  18.432  0.00  0.00    +0.000 N 
ATOM      8  C   UNL     1       1.714   8.256  19.688  0.00  0.00    +0.000 C 
ATOM      9  O   UNL     1       1.846   7.316  20.470  0.00  0.00    +0.000 OA
ATOM     10  H   UNL     1       2.402   9.238  17.945  0.00  0.00    +0.000 HD
BRANCH   8  11
ATOM     11  C   UNL     1       0.765   9.436  20.112  0.00  0.00    +0.000 C 
ATOM     12  C   UNL     1       1.001  10.873  19.471  0.00  0.00    +0.000 C 
ATOM     13  O   UNL     1       1.140  12.010  20.396  0.00  0.00    +0.000 OA
ATOM     14  C   UNL     1       0.237  11.954  21.428  0.00  0.00    +0.000 A 
ATOM     15  C   UNL     1      -0.444  13.080  21.875  0.00  0.00    +0.000 A 
ATOM     16  C   UNL     1      -1.459  12.927  22.834  0.00  0.00    +0.000 A 
ATOM     17  C   UNL     1      -1.763  11.654  23.331  0.00  0.00    +0.000 A 
ATOM     18  C   UNL     1      -1.008  10.548  22.947  0.00  0.00    +0.000 A 
ATOM     19  C   UNL     1       0.024  10.715  22.025  0.00  0.00    +0.000 A 
ATOM     20  C   UNL     1       0.935   9.608  21.606  0.00  0.00    +0.000 C 
ENDBRANCH   8  11
ENDBRANCH   4   7
BRANCH   6  21
ATOM     21  S   UNL     1       3.314   3.060  17.448  0.00  0.00    +0.000 S 
ATOM     22  O   UNL     1       2.331   2.672  16.481  0.00  0.00    +0.000 OA
ATOM     23  O   UNL     1       4.619   2.409  17.435  0.00  0.00    +0.000 OA
BRANCH  21  24
ATOM     24  N   UNL     1       2.643   2.773  19.036  0.00  0.00    +0.000 NA
ATOM     25  C   UNL     1       3.557   2.787  20.192  0.00  0.00    +0.000 C 
ATOM     26  C   UNL     1       2.914   2.450  21.535  0.00  0.00    +0.000 C 
ATOM     27  C   UNL     1       1.614   3.188  21.776  0.00  0.00    +0.000 C 
ATOM     28  C   UNL     1       0.644   2.927  20.641  0.00  0.00    +0.000 C 
ATOM     29  C   UNL     1       1.206   3.102  19.223  0.00  0.00    +0.000 C 
ENDBRANCH  21  24
ENDBRANCH   6  21
BRANCH   1  31
ATOM     30  C   UNL     1       5.675   4.400  14.483  0.00  0.00    +0.000 C 
ATOM     31  O   UNL     1       5.645   4.319  15.917  0.00  0.00    +0.000 OA
ENDBRANCH   1  31
TORSDOF 5
ENDMDL
MODEL 8
REMARK VINA RESULT:      -8.0      2.093      3.324
REMARK  Name = 
REMARK  6 active torsions:
REMARK  status: ('A' for Active; 'I' for Inactive)
REMARK    1  A    between atoms: C_1  and  O_2
REMARK    2  A    between atoms: O_2  and  C_3
REMARK    3  A    between atoms: C_6  and  N_7
REMARK    4  A    between atoms: C_8  and  C_10
REMARK    5  A    between atoms: C_21  and  S_22
REMARK    6  A    between atoms: S_22  and  N_25
REMARK                            x       y       z     vdW  Elec       q    Type
REMARK                         _______ _______ _______ _____ _____    ______ ____
ROOT
ATOM      1  C   UNL     1      -1.005  11.073  21.642  0.00  0.00    +0.000 A 
ATOM      2  C   UNL     1      -0.361  10.071  22.371  0.00  0.00    +0.000 A 
ATOM      3  C   UNL     1       0.523   9.157  21.781  0.00  0.00    +0.000 A 
ATOM      4  C   UNL     1       0.833   9.153  20.433  0.00  0.00    +0.000 A 
ATOM      5  C   UNL     1       0.220  10.219  19.671  0.00  0.00    +0.000 A 
ATOM      6  C   UNL     1      -0.748  11.138  20.262  0.00  0.00    +0.000 A 
ENDROOT
BRANCH   4   7
ATOM      7  N   UNL     1       1.758   8.153  19.888  0.00  0.00    +0.000 N 
ATOM      8  C   UNL     1       2.166   8.086  18.509  0.00  0.00    +0.000 C 
ATOM      9  O   UNL     1       1.914   8.956  17.678  0.00  0.00    +0.000 OA
ATOM     10  H   UNL     1       2.167   7.508  20.545  0.00  0.00    +0.000 HD
BRANCH   8  11
ATOM     11  C   UNL     1       3.026   6.854  18.045  0.00  0.00    +0.000 C 
ATOM     12  C   UNL     1       3.652   5.898  19.152  0.00  0.00    +0.000 C 
ATOM     13  O   UNL     1       5.099   5.636  19.078  0.00  0.00    +0.000 OA
ATOM     14  C   UNL     1       5.522   5.420  17.790  0.00  0.00    +0.000 A 
ATOM     15  C   UNL     1       6.429   4.417  17.469  0.00  0.00    +0.000 A 
ATOM     16  C   UNL     1       6.707   4.156  16.117  0.00  0.00    +0.000 A 
ATOM     17  C   UNL     1       6.081   4.909  15.118  0.00  0.00    +0.000 A 
ATOM     18  C   UNL     1       5.249   5.975  15.455  0.00  0.00    +0.000 A 
ATOM     19  C   UNL     1       5.010   6.253  16.800  0.00  0.00    +0.000 A 
ATOM     20  C   UNL     1       4.194   7.415  17.264  0.00  0.00    +0.000 C 
ENDBRANCH   8  11
ENDBRANCH   4   7
BRANCH   6  21
ATOM     21  S   UNL     1      -1.441  12.539  19.287  0.00  0.00    +0.000 S 
ATOM     22  O   UNL     1      -1.373  13.735  20.072  0.00  0.00    +0.000 OA
ATOM     23  O   UNL     1      -0.733  12.484  18.014  0.00  0.00    +0.000 OA
BRANCH  21  24
ATOM     24  N   UNL     1      -3.123  12.234  18.923  0.00  0.00    +0.000 NA
ATOM     25  C   UNL     1      -3.444  11.185  17.938  0.00  0.00    +0.000 C 
ATOM     26  C   UNL     1      -4.927  11.030  17.613  0.00  0.00    +0.000 C 
ATOM     27  C   UNL     1      -5.809  11.002  18.843  0.00  0.00    +0.000 C 
ATOM     28  C   UNL     1      -5.576  12.241  19.684  0.00  0.00    +0.000 C 
ATOM     29  C   UNL     1      -4.109  12.589  19.976  0.00  0.00    +0.000 C 
ENDBRANCH  21  24
ENDBRANCH   6  21
BRANCH   1  31
ATOM     30  C   UNL     1      -1.453  12.705  23.340  0.00  0.00    +0.000 C 
ATOM     31  O   UNL     1      -1.914  11.902  22.243  0.00  0.00    +0.000 OA
ENDBRANCH   1  31
TORSDOF 5
ENDMDL
MODEL 9
REMARK VINA RESULT:      -8.0      3.201      9.067
REMARK  Name = 
REMARK  6 active torsions:
REMARK  status: ('A' for Active; 'I' for Inactive)
REMARK    1  A    between atoms: C_1  and  O_2
REMARK    2  A    between atoms: O_2  and  C_3
REMARK    3  A    between atoms: C_6  and  N_7
REMARK    4  A    between atoms: C_8  and  C_10
REMARK    5  A    between atoms: C_21  and  S_22
REMARK    6  A    between atoms: S_22  and  N_25
REMARK                            x       y       z     vdW  Elec       q    Type
REMARK                         _______ _______ _______ _____ _____    ______ ____
ROOT
ATOM      1  C   UNL     1       2.395   4.167  20.376  0.00  0.00    +0.000 A 
ATOM      2  C   UNL     1       1.337   4.968  20.809  0.00  0.00    +0.000 A 
ATOM      3  C   UNL     1       1.223   6.321  20.462  0.00  0.00    +0.000 A 
ATOM      4  C   UNL     1       2.141   6.989  19.672  0.00  0.00    +0.000 A 
ATOM      5  C   UNL     1       3.215   6.161  19.166  0.00  0.00    +0.000 A 
ATOM      6  C   UNL     1       3.377   4.768  19.570  0.00  0.00    +0.000 A 
ENDROOT
BRANCH   4   7
ATOM      7  N   UNL     1       1.958   8.412  19.365  0.00  0.00    +0.000 N 
ATOM      8  C   UNL     1       1.001   9.269  20.014  0.00  0.00    +0.000 C 
ATOM      9  O   UNL     1       0.350   8.942  21.005  0.00  0.00    +0.000 OA
ATOM     10  H   UNL     1       2.587   8.815  18.690  0.00  0.00    +0.000 HD
BRANCH   8  11
ATOM     11  C   UNL     1       0.806  10.727  19.456  0.00  0.00    +0.000 C 
ATOM     12  C   UNL     1       1.823  11.266  18.358  0.00  0.00    +0.000 C 
ATOM     13  O   UNL     1       2.483  12.556  18.624  0.00  0.00    +0.000 OA
ATOM     14  C   UNL     1       1.618  13.483  19.148  0.00  0.00    +0.000 A 
ATOM     15  C   UNL     1       1.617  14.810  18.734  0.00  0.00    +0.000 A 
ATOM     16  C   UNL     1       0.612  15.671  19.203  0.00  0.00    +0.000 A 
ATOM     17  C   UNL     1      -0.364  15.189  20.084  0.00  0.00    +0.000 A 
ATOM     18  C   UNL     1      -0.295  13.885  20.567  0.00  0.00    +0.000 A 
ATOM     19  C   UNL     1       0.730  13.048  20.127  0.00  0.00    +0.000 A 
ATOM     20  C   UNL     1       0.931  11.660  20.641  0.00  0.00    +0.000 C 
ENDBRANCH   8  11
ENDBRANCH   4   7
BRANCH   6  21
ATOM     21  S   UNL     1       4.701   3.718  18.838  0.00  0.00    +0.000 S 
ATOM     22  O   UNL     1       5.227   2.853  19.851  0.00  0.00    +0.000 OA
ATOM     23  O   UNL     1       4.089   3.132  17.651  0.00  0.00    +0.000 OA
BRANCH  21  24
ATOM     24  N   UNL     1       6.009   4.726  18.265  0.00  0.00    +0.000 NA
ATOM     25  C   UNL     1       5.933   5.250  16.890  0.00  0.00    +0.000 C 
ATOM     26  C   UNL     1       7.147   6.055  16.433  0.00  0.00    +0.000 C 
ATOM     27  C   UNL     1       7.604   7.079  17.452  0.00  0.00    +0.000 C 
ATOM     28  C   UNL     1       7.881   6.406  18.782  0.00  0.00    +0.000 C 
ATOM     29  C   UNL     1       6.789   5.458  19.296  0.00  0.00    +0.000 C 
ENDBRANCH  21  24
ENDBRANCH   6  21
BRANCH   1  31
ATOM     30  C   UNL     1       1.622   2.431  21.837  0.00  0.00    +0.000 C 
ATOM     31  O   UNL     1       2.507   2.868  20.794  0.00  0.00    +0.000 OA
ENDBRANCH   1  31
TORSDOF 5
ENDMDL
