MODEL 1
REMARK VINA RESULT:      -9.5      0.000      0.000
REMARK  Name = 
REMARK  4 active torsions:
REMARK  status: ('A' for Active; 'I' for Inactive)
REMARK    1  A    between atoms: C_6  and  C_7
REMARK    2  A    between atoms: C_7  and  C_8
REMARK    3  A    between atoms: C_11  and  C_12
REMARK    4  A    between atoms: C_12  and  C_13
REMARK                            x       y       z     vdW  Elec       q    Type
REMARK                         _______ _______ _______ _____ _____    ______ ____
ROOT
ATOM      1  C   UNL     1       2.819   6.072  19.052  0.00  0.00    +0.000 A 
ATOM      2  N   UNL     1       2.414   6.551  20.211  0.00  0.00    +0.000 NA
ATOM      3  N   UNL     1       1.887   7.800  19.959  0.00  0.00    +0.000 NA
ATOM      4  C   UNL     1       2.006   8.004  18.665  0.00  0.00    +0.000 A 
ATOM      5  O   UNL     1       2.624   6.963  18.022  0.00  0.00    +0.000 OA
ENDROOT
BRANCH   1   6
ATOM      6  C   UNL     1       3.337   4.683  18.715  0.00  0.00    +0.000 C 
ATOM      7  C   UNL     1       3.158   3.785  19.977  0.00  0.00    +0.000 C 
ATOM      8  C   UNL     1       1.691   3.552  20.313  0.00  0.00    +0.000 C 
ATOM      9  O   UNL     1       1.034   2.938  19.208  0.00  0.00    +0.000 OA
ATOM     10  C   UNL     1       1.043   3.764  18.047  0.00  0.00    +0.000 C 
ATOM     11  C   UNL     1       2.476   4.038  17.590  0.00  0.00    +0.000 C 
BRANCH   6  17
ATOM     12  F   UNL     1       8.087   5.937  19.382  0.00  0.00    +0.000 F 
ATOM     13  C   UNL     1       7.146   5.399  18.593  0.00  0.00    +0.000 A 
ATOM     14  C   UNL     1       7.500   4.920  17.343  0.00  0.00    +0.000 A 
ATOM     15  C   UNL     1       6.516   4.360  16.531  0.00  0.00    +0.000 A 
ATOM     16  C   UNL     1       5.193   4.284  16.982  0.00  0.00    +0.000 A 
ATOM     17  C   UNL     1       4.814   4.770  18.252  0.00  0.00    +0.000 A 
ATOM     18  C   UNL     1       5.829   5.334  19.049  0.00  0.00    +0.000 A 
ENDBRANCH   6  17
ENDBRANCH   1   6
BRANCH   4  19
ATOM     19  C   UNL     1       1.605   9.180  17.852  0.00  0.00    +0.000 C 
BRANCH  19  20
ATOM     20  C   UNL     1       0.696  10.154  18.587  0.00  0.00    +0.000 A 
ATOM     21  C   UNL     1       1.263  10.899  19.642  0.00  0.00    +0.000 A 
ATOM     22  C   UNL     1       0.508  11.827  20.351  0.00  0.00    +0.000 A 
ATOM     23  C   UNL     1      -0.828  12.026  20.024  0.00  0.00    +0.000 A 
ATOM     24  C   UNL     1      -1.429  11.303  18.984  0.00  0.00    +0.000 A 
ATOM     25  C   UNL     1      -2.777  11.540  18.666  0.00  0.00    +0.000 A 
ATOM     26  C   UNL     1      -3.402  10.850  17.631  0.00  0.00    +0.000 A 
ATOM     27  C   UNL     1      -2.689   9.902  16.911  0.00  0.00    +0.000 A 
ATOM     28  C   UNL     1      -1.350   9.648  17.218  0.00  0.00    +0.000 A 
ATOM     29  C   UNL     1      -0.677  10.344  18.251  0.00  0.00    +0.000 A 
ENDBRANCH  19  20
ENDBRANCH   4  19
TORSDOF 4
ENDMDL
MODEL 2
REMARK VINA RESULT:      -9.4      0.810      1.202
REMARK  Name = 
REMARK  4 active torsions:
REMARK  status: ('A' for Active; 'I' for Inactive)
REMARK    1  A    between atoms: C_6  and  C_7
REMARK    2  A    between atoms: C_7  and  C_8
REMARK    3  A    between atoms: C_11  and  C_12
REMARK    4  A    between atoms: C_12  and  C_13
REMARK                            x       y       z     vdW  Elec       q    Type
REMARK                         _______ _______ _______ _____ _____    ______ ____
ROOT
ATOM      1  C   UNL     1       2.813   6.160  19.066  0.00  0.00    +0.000 A 
ATOM      2  N   UNL     1       2.367   6.611  20.221  0.00  0.00    +0.000 NA
ATOM      3  N   UNL     1       1.812   7.849  19.975  0.00  0.00    +0.000 NA
ATOM      4  C   UNL     1       1.956   8.075  18.687  0.00  0.00    +0.000 A 
ATOM      5  O   UNL     1       2.618   7.060  18.044  0.00  0.00    +0.000 OA
ENDROOT
BRANCH   1   6
ATOM      6  C   UNL     1       3.376   4.791  18.722  0.00  0.00    +0.000 C 
ATOM      7  C   UNL     1       3.135   3.851  19.942  0.00  0.00    +0.000 C 
ATOM      8  C   UNL     1       1.653   3.584  20.176  0.00  0.00    +0.000 C 
ATOM      9  O   UNL     1       1.080   2.994  19.013  0.00  0.00    +0.000 OA
ATOM     10  C   UNL     1       1.148   3.856  17.881  0.00  0.00    +0.000 C 
ATOM     11  C   UNL     1       2.602   4.167  17.525  0.00  0.00    +0.000 C 
BRANCH   6  17
ATOM     12  F   UNL     1       7.214   4.230  15.632  0.00  0.00    +0.000 F 
ATOM     13  C   UNL     1       6.756   4.629  16.828  0.00  0.00    +0.000 A 
ATOM     14  C   UNL     1       7.642   5.156  17.752  0.00  0.00    +0.000 A 
ATOM     15  C   UNL     1       7.159   5.571  18.991  0.00  0.00    +0.000 A 
ATOM     16  C   UNL     1       5.795   5.456  19.287  0.00  0.00    +0.000 A 
ATOM     17  C   UNL     1       4.878   4.917  18.357  0.00  0.00    +0.000 A 
ATOM     18  C   UNL     1       5.397   4.503  17.115  0.00  0.00    +0.000 A 
ENDBRANCH   6  17
ENDBRANCH   1   6
BRANCH   4  19
ATOM     19  C   UNL     1       1.541   9.251  17.881  0.00  0.00    +0.000 C 
BRANCH  19  20
ATOM     20  C   UNL     1       0.593  10.191  18.610  0.00  0.00    +0.000 A 
ATOM     21  C   UNL     1       1.113  10.923  19.697  0.00  0.00    +0.000 A 
ATOM     22  C   UNL     1       0.320  11.821  20.402  0.00  0.00    +0.000 A 
ATOM     23  C   UNL     1      -1.010  12.002  20.040  0.00  0.00    +0.000 A 
ATOM     24  C   UNL     1      -1.565  11.292  18.968  0.00  0.00    +0.000 A 
ATOM     25  C   UNL     1      -2.908  11.510  18.615  0.00  0.00    +0.000 A 
ATOM     26  C   UNL     1      -3.489  10.831  17.548  0.00  0.00    +0.000 A 
ATOM     27  C   UNL     1      -2.737   9.913  16.828  0.00  0.00    +0.000 A 
ATOM     28  C   UNL     1      -1.402   9.677  17.170  0.00  0.00    +0.000 A 
ATOM     29  C   UNL     1      -0.773  10.363  18.237  0.00  0.00    +0.000 A 
ENDBRANCH  19  20
ENDBRANCH   4  19
TORSDOF 4
ENDMDL
MODEL 3
REMARK VINA RESULT:      -9.2      3.331      8.434
REMARK  Name = 
REMARK  4 active torsions:
REMARK  status: ('A' for Active; 'I' for Inactive)
REMARK    1  A    between atoms: C_6  and  C_7
REMARK    2  A    between atoms: C_7  and  C_8
REMARK    3  A    between atoms: C_11  and  C_12
REMARK    4  A    between atoms: C_12  and  C_13
REMARK                            x       y       z     vdW  Elec       q    Type
REMARK                         _______ _______ _______ _____ _____    ______ ____
ROOT
ATOM      1  C   UNL     1       0.904  10.029  18.727  0.00  0.00    +0.000 A 
ATOM      2  N   UNL     1       1.563   9.838  17.602  0.00  0.00    +0.000 NA
ATOM      3  N   UNL     1       2.278   8.669  17.757  0.00  0.00    +0.000 NA
ATOM      4  C   UNL     1       2.011   8.223  18.965  0.00  0.00    +0.000 A 
ATOM      5  O   UNL     1       1.171   9.054  19.661  0.00  0.00    +0.000 OA
ENDROOT
BRANCH   1   6
ATOM      6  C   UNL     1      -0.151  11.073  19.057  0.00  0.00    +0.000 C 
ATOM      7  C   UNL     1      -0.485  10.956  20.575  0.00  0.00    +0.000 C 
ATOM      8  C   UNL     1       0.697  11.346  21.454  0.00  0.00    +0.000 C 
ATOM      9  O   UNL     1       1.091  12.684  21.166  0.00  0.00    +0.000 OA
ATOM     10  C   UNL     1       1.537  12.838  19.821  0.00  0.00    +0.000 C 
ATOM     11  C   UNL     1       0.414  12.507  18.839  0.00  0.00    +0.000 C 
BRANCH   6  17
ATOM     12  F   UNL     1      -4.746  12.203  17.577  0.00  0.00    +0.000 F 
ATOM     13  C   UNL     1      -3.659  11.428  17.445  0.00  0.00    +0.000 A 
ATOM     14  C   UNL     1      -3.654  10.422  16.493  0.00  0.00    +0.000 A 
ATOM     15  C   UNL     1      -2.521   9.624  16.360  0.00  0.00    +0.000 A 
ATOM     16  C   UNL     1      -1.406   9.845  17.179  0.00  0.00    +0.000 A 
ATOM     17  C   UNL     1      -1.396  10.864  18.157  0.00  0.00    +0.000 A 
ATOM     18  C   UNL     1      -2.558  11.652  18.270  0.00  0.00    +0.000 A 
ENDBRANCH   6  17
ENDBRANCH   1   6
BRANCH   4  19
ATOM     19  C   UNL     1       2.508   7.005  19.655  0.00  0.00    +0.000 C 
BRANCH  19  20
ATOM     20  C   UNL     1       2.951   5.900  18.708  0.00  0.00    +0.000 A 
ATOM     21  C   UNL     1       3.995   6.198  17.808  0.00  0.00    +0.000 A 
ATOM     22  C   UNL     1       4.475   5.238  16.925  0.00  0.00    +0.000 A 
ATOM     23  C   UNL     1       3.920   3.964  16.918  0.00  0.00    +0.000 A 
ATOM     24  C   UNL     1       2.879   3.630  17.794  0.00  0.00    +0.000 A 
ATOM     25  C   UNL     1       2.350   2.328  17.776  0.00  0.00    +0.000 A 
ATOM     26  C   UNL     1       1.324   1.958  18.642  0.00  0.00    +0.000 A 
ATOM     27  C   UNL     1       0.804   2.891  19.527  0.00  0.00    +0.000 A 
ATOM     28  C   UNL     1       1.313   4.193  19.554  0.00  0.00    +0.000 A 
ATOM     29  C   UNL     1       2.368   4.598  18.702  0.00  0.00    +0.000 A 
ENDBRANCH  19  20
ENDBRANCH   4  19
TORSDOF 4
ENDMDL
MODEL 4
REMARK VINA RESULT:      -9.2      2.884      8.469
REMARK  Name = 
REMARK  4 active torsions:
REMARK  status: ('A' for Active; 'I' for Inactive)
REMARK    1  A    between atoms: C_6  and  C_7
REMARK    2  A    between atoms: C_7  and  C_8
REMARK    3  A    between atoms: C_11  and  C_12
REMARK    4  A    between atoms: C_12  and  C_13
REMARK                            x       y       z     vdW  Elec       q    Type
REMARK                         _______ _______ _______ _____ _____    ______ ____
ROOT
ATOM      1  C   UNL     1       0.850   9.865  18.769  0.00  0.00    +0.000 A 
ATOM      2  N   UNL     1       1.368   9.633  17.579  0.00  0.00    +0.000 NA
ATOM      3  N   UNL     1       2.106   8.474  17.689  0.00  0.00    +0.000 NA
ATOM      4  C   UNL     1       1.992   8.074  18.937  0.00  0.00    +0.000 A 
ATOM      5  O   UNL     1       1.237   8.928  19.699  0.00  0.00    +0.000 OA
ENDROOT
BRANCH   1   6
ATOM      6  C   UNL     1      -0.166  10.917  19.186  0.00  0.00    +0.000 C 
ATOM      7  C   UNL     1      -0.464  10.722  20.703  0.00  0.00    +0.000 C 
ATOM      8  C   UNL     1       0.750  11.027  21.571  0.00  0.00    +0.000 C 
ATOM      9  O   UNL     1       1.176  12.369  21.350  0.00  0.00    +0.000 OA
ATOM     10  C   UNL     1       1.591  12.588  20.004  0.00  0.00    +0.000 C 
ATOM     11  C   UNL     1       0.435  12.345  19.035  0.00  0.00    +0.000 C 
BRANCH   6  17
ATOM     12  F   UNL     1      -2.682   9.110  15.315  0.00  0.00    +0.000 F 
ATOM     13  C   UNL     1      -2.661   9.901  16.397  0.00  0.00    +0.000 A 
ATOM     14  C   UNL     1      -3.793  10.625  16.731  0.00  0.00    +0.000 A 
ATOM     15  C   UNL     1      -3.764  11.442  17.858  0.00  0.00    +0.000 A 
ATOM     16  C   UNL     1      -2.604  11.523  18.638  0.00  0.00    +0.000 A 
ATOM     17  C   UNL     1      -1.439  10.795  18.309  0.00  0.00    +0.000 A 
ATOM     18  C   UNL     1      -1.498   9.980  17.162  0.00  0.00    +0.000 A 
ENDBRANCH   6  17
ENDBRANCH   1   6
BRANCH   4  19
ATOM     19  C   UNL     1       2.581   6.886  19.606  0.00  0.00    +0.000 C 
BRANCH  19  20
ATOM     20  C   UNL     1       2.713   5.673  18.697  0.00  0.00    +0.000 A 
ATOM     21  C   UNL     1       1.667   4.728  18.720  0.00  0.00    +0.000 A 
ATOM     22  C   UNL     1       1.698   3.603  17.905  0.00  0.00    +0.000 A 
ATOM     23  C   UNL     1       2.778   3.395  17.053  0.00  0.00    +0.000 A 
ATOM     24  C   UNL     1       3.839   4.309  17.004  0.00  0.00    +0.000 A 
ATOM     25  C   UNL     1       4.908   4.080  16.121  0.00  0.00    +0.000 A 
ATOM     26  C   UNL     1       5.972   4.973  16.035  0.00  0.00    +0.000 A 
ATOM     27  C   UNL     1       5.988   6.100  16.845  0.00  0.00    +0.000 A 
ATOM     28  C   UNL     1       4.937   6.339  17.735  0.00  0.00    +0.000 A 
ATOM     29  C   UNL     1       3.830   5.463  17.834  0.00  0.00    +0.000 A 
ENDBRANCH  19  20
ENDBRANCH   4  19
TORSDOF 4
ENDMDL
MODEL 5
REMARK VINA RESULT:      -9.1      2.460      4.190
REMARK  Name = 
REMARK  4 active torsions:
REMARK  status: ('A' for Active; 'I' for Inactive)
REMARK    1  A    between atoms: C_6  and  C_7
REMARK    2  A    between atoms: C_7  and  C_8
REMARK    3  A    between atoms: C_11  and  C_12
REMARK    4  A    between atoms: C_12  and  C_13
REMARK                            x       y       z     vdW  Elec       q    Type
REMARK                         _______ _______ _______ _____ _____    ______ ____
ROOT
ATOM      1  C   UNL     1       3.819   6.183  17.787  0.00  0.00    +0.000 A 
ATOM      2  N   UNL     1       4.654   7.164  17.510  0.00  0.00    +0.000 NA
ATOM      3  N   UNL     1       3.910   8.325  17.497  0.00  0.00    +0.000 NA
ATOM      4  C   UNL     1       2.670   7.978  17.765  0.00  0.00    +0.000 A 
ATOM      5  O   UNL     1       2.523   6.624  17.926  0.00  0.00    +0.000 OA
ENDROOT
BRANCH   1   6
ATOM      6  C   UNL     1       4.117   4.721  18.075  0.00  0.00    +0.000 C 
ATOM      7  C   UNL     1       4.296   3.988  16.711  0.00  0.00    +0.000 C 
ATOM      8  C   UNL     1       5.533   4.468  15.961  0.00  0.00    +0.000 C 
ATOM      9  O   UNL     1       6.694   4.256  16.759  0.00  0.00    +0.000 OA
ATOM     10  C   UNL     1       6.658   5.002  17.972  0.00  0.00    +0.000 C 
ATOM     11  C   UNL     1       5.469   4.578  18.834  0.00  0.00    +0.000 C 
BRANCH   6  17
ATOM     12  F   UNL     1       0.053   1.937  18.645  0.00  0.00    +0.000 F 
ATOM     13  C   UNL     1       0.974   2.743  19.193  0.00  0.00    +0.000 A 
ATOM     14  C   UNL     1       0.900   3.038  20.544  0.00  0.00    +0.000 A 
ATOM     15  C   UNL     1       1.862   3.874  21.106  0.00  0.00    +0.000 A 
ATOM     16  C   UNL     1       2.888   4.399  20.311  0.00  0.00    +0.000 A 
ATOM     17  C   UNL     1       2.976   4.111  18.931  0.00  0.00    +0.000 A 
ATOM     18  C   UNL     1       1.987   3.267  18.390  0.00  0.00    +0.000 A 
ENDBRANCH   6  17
ENDBRANCH   1   6
BRANCH   4  19
ATOM     19  C   UNL     1       1.455   8.825  17.875  0.00  0.00    +0.000 C 
BRANCH  19  20
ATOM     20  C   UNL     1       1.047   9.129  19.309  0.00  0.00    +0.000 A 
ATOM     21  C   UNL     1       1.600   8.324  20.325  0.00  0.00    +0.000 A 
ATOM     22  C   UNL     1       1.297   8.549  21.663  0.00  0.00    +0.000 A 
ATOM     23  C   UNL     1       0.433   9.580  22.013  0.00  0.00    +0.000 A 
ATOM     24  C   UNL     1      -0.139  10.401  21.033  0.00  0.00    +0.000 A 
ATOM     25  C   UNL     1      -0.995  11.447  21.419  0.00  0.00    +0.000 A 
ATOM     26  C   UNL     1      -1.571  12.290  20.472  0.00  0.00    +0.000 A 
ATOM     27  C   UNL     1      -1.308  12.088  19.125  0.00  0.00    +0.000 A 
ATOM     28  C   UNL     1      -0.466  11.048  18.722  0.00  0.00    +0.000 A 
ATOM     29  C   UNL     1       0.152  10.184  19.657  0.00  0.00    +0.000 A 
ENDBRANCH  19  20
ENDBRANCH   4  19
TORSDOF 4
ENDMDL
MODEL 6
REMARK VINA RESULT:      -9.1      3.241      8.534
REMARK  Name = 
REMARK  4 active torsions:
REMARK  status: ('A' for Active; 'I' for Inactive)
REMARK    1  A    between atoms: C_6  and  C_7
REMARK    2  A    between atoms: C_7  and  C_8
REMARK    3  A    between atoms: C_11  and  C_12
REMARK    4  A    between atoms: C_12  and  C_13
REMARK                            x       y       z     vdW  Elec       q    Type
REMARK                         _______ _______ _______ _____ _____    ______ ____
ROOT
ATOM      1  C   UNL     1       0.856   9.862  18.772  0.00  0.00    +0.000 A 
ATOM      2  N   UNL     1       1.427   9.681  17.598  0.00  0.00    +0.000 NA
ATOM      3  N   UNL     1       2.199   8.544  17.705  0.00  0.00    +0.000 NA
ATOM      4  C   UNL     1       2.051   8.105  18.937  0.00  0.00    +0.000 A 
ATOM      5  O   UNL     1       1.238   8.912  19.691  0.00  0.00    +0.000 OA
ENDROOT
BRANCH   1   6
ATOM      6  C   UNL     1      -0.210  10.867  19.177  0.00  0.00    +0.000 C 
ATOM      7  C   UNL     1      -0.580  10.602  20.668  0.00  0.00    +0.000 C 
ATOM      8  C   UNL     1       0.579  10.905  21.609  0.00  0.00    +0.000 C 
ATOM      9  O   UNL     1       0.976  12.266  21.463  0.00  0.00    +0.000 OA
ATOM     10  C   UNL     1       1.452  12.551  20.151  0.00  0.00    +0.000 C 
ATOM     11  C   UNL     1       0.354  12.316  19.114  0.00  0.00    +0.000 C 
BRANCH   6  17
ATOM     12  F   UNL     1      -4.702  12.250  17.598  0.00  0.00    +0.000 F 
ATOM     13  C   UNL     1      -3.646  11.434  17.471  0.00  0.00    +0.000 A 
ATOM     14  C   UNL     1      -3.652  10.465  16.482  0.00  0.00    +0.000 A 
ATOM     15  C   UNL     1      -2.550   9.623  16.354  0.00  0.00    +0.000 A 
ATOM     16  C   UNL     1      -1.454   9.765  17.215  0.00  0.00    +0.000 A 
ATOM     17  C   UNL     1      -1.433  10.746  18.231  0.00  0.00    +0.000 A 
ATOM     18  C   UNL     1      -2.563  11.579  18.338  0.00  0.00    +0.000 A 
ENDBRANCH   6  17
ENDBRANCH   1   6
BRANCH   4  19
ATOM     19  C   UNL     1       2.653   6.918  19.596  0.00  0.00    +0.000 C 
BRANCH  19  20
ATOM     20  C   UNL     1       2.772   5.705  18.686  0.00  0.00    +0.000 A 
ATOM     21  C   UNL     1       1.715   4.773  18.708  0.00  0.00    +0.000 A 
ATOM     22  C   UNL     1       1.733   3.648  17.891  0.00  0.00    +0.000 A 
ATOM     23  C   UNL     1       2.810   3.429  17.039  0.00  0.00    +0.000 A 
ATOM     24  C   UNL     1       3.882   4.330  16.991  0.00  0.00    +0.000 A 
ATOM     25  C   UNL     1       4.948   4.090  16.107  0.00  0.00    +0.000 A 
ATOM     26  C   UNL     1       6.023   4.971  16.023  0.00  0.00    +0.000 A 
ATOM     27  C   UNL     1       6.051   6.097  16.834  0.00  0.00    +0.000 A 
ATOM     28  C   UNL     1       5.003   6.347  17.724  0.00  0.00    +0.000 A 
ATOM     29  C   UNL     1       3.886   5.484  17.823  0.00  0.00    +0.000 A 
ENDBRANCH  19  20
ENDBRANCH   4  19
TORSDOF 4
ENDMDL
MODEL 7
REMARK VINA RESULT:      -9.1      0.589      2.060
REMARK  Name = 
REMARK  4 active torsions:
REMARK  status: ('A' for Active; 'I' for Inactive)
REMARK    1  A    between atoms: C_6  and  C_7
REMARK    2  A    between atoms: C_7  and  C_8
REMARK    3  A    between atoms: C_11  and  C_12
REMARK    4  A    between atoms: C_12  and  C_13
REMARK                            x       y       z     vdW  Elec       q    Type
REMARK                         _______ _______ _______ _____ _____    ______ ____
ROOT
ATOM      1  C   UNL     1       2.807   6.134  19.103  0.00  0.00    +0.000 A 
ATOM      2  N   UNL     1       2.277   6.595  20.218  0.00  0.00    +0.000 NA
ATOM      3  N   UNL     1       1.821   7.866  19.943  0.00  0.00    +0.000 NA
ATOM      4  C   UNL     1       2.102   8.101  18.679  0.00  0.00    +0.000 A 
ATOM      5  O   UNL     1       2.765   7.058  18.084  0.00  0.00    +0.000 OA
ENDROOT
BRANCH   1   6
ATOM      6  C   UNL     1       3.322   4.739  18.788  0.00  0.00    +0.000 C 
ATOM      7  C   UNL     1       3.115   3.853  20.054  0.00  0.00    +0.000 C 
ATOM      8  C   UNL     1       1.640   3.633  20.366  0.00  0.00    +0.000 C 
ATOM      9  O   UNL     1       1.000   3.013  19.255  0.00  0.00    +0.000 OA
ATOM     10  C   UNL     1       1.035   3.828  18.087  0.00  0.00    +0.000 C 
ATOM     11  C   UNL     1       2.478   4.089  17.653  0.00  0.00    +0.000 C 
BRANCH   6  17
ATOM     12  F   UNL     1       8.093   5.826  19.591  0.00  0.00    +0.000 F 
ATOM     13  C   UNL     1       7.150   5.359  18.759  0.00  0.00    +0.000 A 
ATOM     14  C   UNL     1       7.510   4.942  17.489  0.00  0.00    +0.000 A 
ATOM     15  C   UNL     1       6.525   4.456  16.633  0.00  0.00    +0.000 A 
ATOM     16  C   UNL     1       5.194   4.389  17.060  0.00  0.00    +0.000 A 
ATOM     17  C   UNL     1       4.808   4.813  18.351  0.00  0.00    +0.000 A 
ATOM     18  C   UNL     1       5.825   5.303  19.193  0.00  0.00    +0.000 A 
ENDBRANCH   6  17
ENDBRANCH   1   6
BRANCH   4  19
ATOM     19  C   UNL     1       1.837   9.311  17.861  0.00  0.00    +0.000 C 
BRANCH  19  20
ATOM     20  C   UNL     1       0.498   9.970  18.155  0.00  0.00    +0.000 A 
ATOM     21  C   UNL     1      -0.633   9.471  17.477  0.00  0.00    +0.000 A 
ATOM     22  C   UNL     1      -1.897  10.002  17.705  0.00  0.00    +0.000 A 
ATOM     23  C   UNL     1      -2.058  11.044  18.611  0.00  0.00    +0.000 A 
ATOM     24  C   UNL     1      -0.958  11.570  19.303  0.00  0.00    +0.000 A 
ATOM     25  C   UNL     1      -1.155  12.611  20.225  0.00  0.00    +0.000 A 
ATOM     26  C   UNL     1      -0.087  13.148  20.940  0.00  0.00    +0.000 A 
ATOM     27  C   UNL     1       1.194  12.659  20.729  0.00  0.00    +0.000 A 
ATOM     28  C   UNL     1       1.409  11.629  19.809  0.00  0.00    +0.000 A 
ATOM     29  C   UNL     1       0.345  11.046  19.080  0.00  0.00    +0.000 A 
ENDBRANCH  19  20
ENDBRANCH   4  19
TORSDOF 4
ENDMDL
MODEL 8
REMARK VINA RESULT:      -9.1      0.990      2.381
REMARK  Name = 
REMARK  4 active torsions:
REMARK  status: ('A' for Active; 'I' for Inactive)
REMARK    1  A    between atoms: C_6  and  C_7
REMARK    2  A    between atoms: C_7  and  C_8
REMARK    3  A    between atoms: C_11  and  C_12
REMARK    4  A    between atoms: C_12  and  C_13
REMARK                            x       y       z     vdW  Elec       q    Type
REMARK                         _______ _______ _______ _____ _____    ______ ____
ROOT
ATOM      1  C   UNL     1       2.802   6.232  19.100  0.00  0.00    +0.000 A 
ATOM      2  N   UNL     1       2.271   6.682  20.219  0.00  0.00    +0.000 NA
ATOM      3  N   UNL     1       1.796   7.948  19.950  0.00  0.00    +0.000 NA
ATOM      4  C   UNL     1       2.069   8.190  18.685  0.00  0.00    +0.000 A 
ATOM      5  O   UNL     1       2.743   7.158  18.084  0.00  0.00    +0.000 OA
ENDROOT
BRANCH   1   6
ATOM      6  C   UNL     1       3.335   4.845  18.779  0.00  0.00    +0.000 C 
ATOM      7  C   UNL     1       3.079   3.933  20.017  0.00  0.00    +0.000 C 
ATOM      8  C   UNL     1       1.593   3.702  20.262  0.00  0.00    +0.000 C 
ATOM      9  O   UNL     1       1.003   3.102  19.113  0.00  0.00    +0.000 OA
ATOM     10  C   UNL     1       1.084   3.942  17.964  0.00  0.00    +0.000 C 
ATOM     11  C   UNL     1       2.542   4.216  17.597  0.00  0.00    +0.000 C 
BRANCH   6  17
ATOM     12  F   UNL     1       7.137   4.203  15.662  0.00  0.00    +0.000 F 
ATOM     13  C   UNL     1       6.698   4.604  16.863  0.00  0.00    +0.000 A 
ATOM     14  C   UNL     1       7.604   5.100  17.786  0.00  0.00    +0.000 A 
ATOM     15  C   UNL     1       7.139   5.517  19.031  0.00  0.00    +0.000 A 
ATOM     16  C   UNL     1       5.775   5.438  19.334  0.00  0.00    +0.000 A 
ATOM     17  C   UNL     1       4.838   4.932  18.406  0.00  0.00    +0.000 A 
ATOM     18  C   UNL     1       5.338   4.514  17.158  0.00  0.00    +0.000 A 
ENDBRANCH   6  17
ENDBRANCH   1   6
BRANCH   4  19
ATOM     19  C   UNL     1       1.783   9.398  17.872  0.00  0.00    +0.000 C 
BRANCH  19  20
ATOM     20  C   UNL     1       0.437  10.040  18.175  0.00  0.00    +0.000 A 
ATOM     21  C   UNL     1      -0.691   9.526  17.505  0.00  0.00    +0.000 A 
ATOM     22  C   UNL     1      -1.961  10.040  17.742  0.00  0.00    +0.000 A 
ATOM     23  C   UNL     1      -2.129  11.080  18.649  0.00  0.00    +0.000 A 
ATOM     24  C   UNL     1      -1.032  11.620  19.333  0.00  0.00    +0.000 A 
ATOM     25  C   UNL     1      -1.236  12.658  20.257  0.00  0.00    +0.000 A 
ATOM     26  C   UNL     1      -0.171  13.210  20.964  0.00  0.00    +0.000 A 
ATOM     27  C   UNL     1       1.115  12.737  20.745  0.00  0.00    +0.000 A 
ATOM     28  C   UNL     1       1.338  11.710  19.823  0.00  0.00    +0.000 A 
ATOM     29  C   UNL     1       0.277  11.113  19.101  0.00  0.00    +0.000 A 
ENDBRANCH  19  20
ENDBRANCH   4  19
TORSDOF 4
ENDMDL
MODEL 9
REMARK VINA RESULT:      -9.0      1.178      2.294
REMARK  Name = 
REMARK  4 active torsions:
REMARK  status: ('A' for Active; 'I' for Inactive)
REMARK    1  A    between atoms: C_6  and  C_7
REMARK    2  A    between atoms: C_7  and  C_8
REMARK    3  A    between atoms: C_11  and  C_12
REMARK    4  A    between atoms: C_12  and  C_13
REMARK                            x       y       z     vdW  Elec       q    Type
REMARK                         _______ _______ _______ _____ _____    ______ ____
ROOT
ATOM      1  C   UNL     1       2.905   6.060  19.017  0.00  0.00    +0.000 A 
ATOM      2  N   UNL     1       2.410   6.555  20.134  0.00  0.00    +0.000 NA
ATOM      3  N   UNL     1       1.987   7.835  19.845  0.00  0.00    +0.000 NA
ATOM      4  C   UNL     1       2.253   8.040  18.572  0.00  0.00    +0.000 A 
ATOM      5  O   UNL     1       2.872   6.967  17.984  0.00  0.00    +0.000 OA
ENDROOT
BRANCH   1   6
ATOM      6  C   UNL     1       3.371   4.644  18.718  0.00  0.00    +0.000 C 
ATOM      7  C   UNL     1       3.249   3.810  20.030  0.00  0.00    +0.000 C 
ATOM      8  C   UNL     1       1.799   3.630  20.461  0.00  0.00    +0.000 C 
ATOM      9  O   UNL     1       1.065   2.981  19.427  0.00  0.00    +0.000 OA
ATOM     10  C   UNL     1       1.023   3.751  18.229  0.00  0.00    +0.000 C 
ATOM     11  C   UNL     1       2.432   3.969  17.677  0.00  0.00    +0.000 C 
BRANCH   6  17
ATOM     12  F   UNL     1       8.226   5.556  19.156  0.00  0.00    +0.000 F 
ATOM     13  C   UNL     1       7.205   5.134  18.396  0.00  0.00    +0.000 A 
ATOM     14  C   UNL     1       7.450   4.723  17.096  0.00  0.00    +0.000 A 
ATOM     15  C   UNL     1       6.385   4.283  16.315  0.00  0.00    +0.000 A 
ATOM     16  C   UNL     1       5.089   4.255  16.845  0.00  0.00    +0.000 A 
ATOM     17  C   UNL     1       4.820   4.674  18.166  0.00  0.00    +0.000 A 
ATOM     18  C   UNL     1       5.917   5.117  18.931  0.00  0.00    +0.000 A 
ENDBRANCH   6  17
ENDBRANCH   1   6
BRANCH   4  19
ATOM     19  C   UNL     1       2.010   9.243  17.738  0.00  0.00    +0.000 C 
BRANCH  19  20
ATOM     20  C   UNL     1       1.074  10.257  18.379  0.00  0.00    +0.000 A 
ATOM     21  C   UNL     1      -0.170   9.786  18.845  0.00  0.00    +0.000 A 
ATOM     22  C   UNL     1      -1.075  10.641  19.464  0.00  0.00    +0.000 A 
ATOM     23  C   UNL     1      -0.757  11.984  19.626  0.00  0.00    +0.000 A 
ATOM     24  C   UNL     1       0.468  12.492  19.174  0.00  0.00    +0.000 A 
ATOM     25  C   UNL     1       0.767  13.851  19.367  0.00  0.00    +0.000 A 
ATOM     26  C   UNL     1       1.980  14.387  18.943  0.00  0.00    +0.000 A 
ATOM     27  C   UNL     1       2.904  13.571  18.305  0.00  0.00    +0.000 A 
ATOM     28  C   UNL     1       2.619  12.218  18.097  0.00  0.00    +0.000 A 
ATOM     29  C   UNL     1       1.405  11.636  18.532  0.00  0.00    +0.000 A 
ENDBRANCH  19  20
ENDBRANCH   4  19
TORSDOF 4
ENDMDL
