MODEL 1
REMARK VINA RESULT:      -8.0      0.000      0.000
REMARK  Name = 
REMARK  5 active torsions:
REMARK  status: ('A' for Active; 'I' for Inactive)
REMARK    1  A    between atoms: C_1  and  C_2
REMARK    2  A    between atoms: C_5  and  N_6
REMARK    3  A    between atoms: C_15  and  C_16
REMARK    4  A    between atoms: C_19  and  C_20
REMARK    5  A    between atoms: N_23  and  C_24
REMARK                            x       y       z     vdW  Elec       q    Type
REMARK                         _______ _______ _______ _____ _____    ______ ____
ROOT
ATOM      1  N   UNL     1       2.784   6.515  18.831  0.00  0.00    +0.000 N 
ATOM      2  C   UNL     1       2.145   5.371  18.403  0.00  0.00    +0.000 C 
ATOM      3  O   UNL     1       1.034   5.367  17.873  0.00  0.00    +0.000 OA
ATOM      4  N   UNL     1       2.841   4.175  18.599  0.00  0.00    +0.000 N 
ATOM      5  C   UNL     1       2.291   2.972  17.972  0.00  0.00    +0.000 C 
ATOM      6  C   UNL     1       1.382   2.188  18.916  0.00  0.00    +0.000 C 
ATOM      7  C   UNL     1       2.131   1.374  19.967  0.00  0.00    +0.000 C 
ATOM      8  C   UNL     1       3.075   2.189  20.850  0.00  0.00    +0.000 C 
ATOM      9  C   UNL     1       4.296   2.694  20.086  0.00  0.00    +0.000 C 
ATOM     10  C   UNL     1       4.093   4.046  19.368  0.00  0.00    +0.000 C 
ATOM     11  H   UNL     1       3.793   6.477  18.922  0.00  0.00    +0.000 HD
ENDROOT
BRANCH   1  16
ATOM     12  C   UNL     1       0.786  11.901  19.018  0.00  0.00    +0.000 C 
ATOM     13  C   UNL     1       1.270  10.484  18.924  0.00  0.00    +0.000 A 
ATOM     14  C   UNL     1       1.947  10.029  17.788  0.00  0.00    +0.000 A 
ATOM     15  C   UNL     1       2.435   8.716  17.718  0.00  0.00    +0.000 A 
ATOM     16  C   UNL     1       2.271   7.837  18.791  0.00  0.00    +0.000 A 
ATOM     17  C   UNL     1       1.561   8.294  19.908  0.00  0.00    +0.000 A 
ATOM     18  F   UNL     1       1.359   7.468  20.949  0.00  0.00    +0.000 F 
ATOM     19  C   UNL     1       1.066   9.596  19.985  0.00  0.00    +0.000 A 
ENDBRANCH   1  16
BRANCH  10  20
ATOM     20  C   UNL     1       5.246   4.365  18.450  0.00  0.00    +0.000 A 
ATOM     21  N   UNL     1       6.483   4.619  18.892  0.00  0.00    +0.000 NA
ATOM     22  O   UNL     1       7.216   4.787  17.726  0.00  0.00    +0.000 OA
ATOM     23  C   UNL     1       6.354   4.601  16.677  0.00  0.00    +0.000 A 
ATOM     24  N   UNL     1       5.120   4.349  17.077  0.00  0.00    +0.000 NA
BRANCH  23  25
ATOM     25  C   UNL     1       6.793   4.682  15.268  0.00  0.00    +0.000 A 
ATOM     26  C   UNL     1       7.754   5.554  14.729  0.00  0.00    +0.000 A 
ATOM     27  N   UNL     1       7.920   5.368  13.417  0.00  0.00    +0.000 NA
ATOM     28  N   UNL     1       7.064   4.368  13.127  0.00  0.00    +0.000 N 
ATOM     29  C   UNL     1       6.963   3.878  11.774  0.00  0.00    +0.000 C 
ATOM     30  C   UNL     1       6.358   3.921  14.210  0.00  0.00    +0.000 A 
ENDBRANCH  23  25
ENDBRANCH  10  20
TORSDOF 3
ENDMDL
MODEL 2
REMARK VINA RESULT:      -7.9      2.519      7.486
REMARK  Name = 
REMARK  5 active torsions:
REMARK  status: ('A' for Active; 'I' for Inactive)
REMARK    1  A    between atoms: C_1  and  C_2
REMARK    2  A    between atoms: C_5  and  N_6
REMARK    3  A    between atoms: C_15  and  C_16
REMARK    4  A    between atoms: C_19  and  C_20
REMARK    5  A    between atoms: N_23  and  C_24
REMARK                            x       y       z     vdW  Elec       q    Type
REMARK                         _______ _______ _______ _____ _____    ______ ____
ROOT
ATOM      1  N   UNL     1       4.145   4.886  17.475  0.00  0.00    +0.000 N 
ATOM      2  C   UNL     1       4.382   4.311  18.705  0.00  0.00    +0.000 C 
ATOM      3  O   UNL     1       5.444   3.772  19.013  0.00  0.00    +0.000 OA
ATOM      4  N   UNL     1       3.327   4.375  19.621  0.00  0.00    +0.000 N 
ATOM      5  C   UNL     1       3.613   3.966  20.997  0.00  0.00    +0.000 C 
ATOM      6  C   UNL     1       3.277   2.498  21.249  0.00  0.00    +0.000 C 
ATOM      7  C   UNL     1       1.785   2.220  21.409  0.00  0.00    +0.000 C 
ATOM      8  C   UNL     1       0.924   2.666  20.228  0.00  0.00    +0.000 C 
ATOM      9  C   UNL     1       0.830   4.186  20.118  0.00  0.00    +0.000 C 
ATOM     10  C   UNL     1       1.965   4.844  19.305  0.00  0.00    +0.000 C 
ATOM     11  H   UNL     1       3.416   5.589  17.424  0.00  0.00    +0.000 HD
ENDROOT
BRANCH   1  16
ATOM     12  C   UNL     1       7.990   5.070  13.208  0.00  0.00    +0.000 C 
ATOM     13  C   UNL     1       6.943   5.034  14.282  0.00  0.00    +0.000 A 
ATOM     14  C   UNL     1       5.945   4.055  14.281  0.00  0.00    +0.000 A 
ATOM     15  C   UNL     1       4.991   3.997  15.308  0.00  0.00    +0.000 A 
ATOM     16  C   UNL     1       5.029   4.908  16.366  0.00  0.00    +0.000 A 
ATOM     17  C   UNL     1       6.012   5.905  16.337  0.00  0.00    +0.000 A 
ATOM     18  F   UNL     1       6.063   6.816  17.324  0.00  0.00    +0.000 F 
ATOM     19  C   UNL     1       6.961   5.974  15.317  0.00  0.00    +0.000 A 
ENDBRANCH   1  16
BRANCH  10  20
ATOM     20  C   UNL     1       1.941   6.347  19.435  0.00  0.00    +0.000 A 
ATOM     21  N   UNL     1       2.467   7.168  18.518  0.00  0.00    +0.000 NA
ATOM     22  O   UNL     1       2.162   8.432  19.003  0.00  0.00    +0.000 OA
ATOM     23  C   UNL     1       1.460   8.259  20.167  0.00  0.00    +0.000 A 
ATOM     24  N   UNL     1       1.309   6.986  20.481  0.00  0.00    +0.000 NA
BRANCH  23  25
ATOM     25  C   UNL     1       0.947   9.399  20.956  0.00  0.00    +0.000 A 
ATOM     26  C   UNL     1       0.651   9.415  22.330  0.00  0.00    +0.000 A 
ATOM     27  N   UNL     1       0.207  10.607  22.733  0.00  0.00    +0.000 NA
ATOM     28  N   UNL     1       0.227  11.351  21.610  0.00  0.00    +0.000 N 
ATOM     29  C   UNL     1      -0.191  12.731  21.653  0.00  0.00    +0.000 C 
ATOM     30  C   UNL     1       0.664  10.668  20.509  0.00  0.00    +0.000 A 
ENDBRANCH  23  25
ENDBRANCH  10  20
TORSDOF 3
ENDMDL
MODEL 3
REMARK VINA RESULT:      -7.6      0.845      1.227
REMARK  Name = 
REMARK  5 active torsions:
REMARK  status: ('A' for Active; 'I' for Inactive)
REMARK    1  A    between atoms: C_1  and  C_2
REMARK    2  A    between atoms: C_5  and  N_6
REMARK    3  A    between atoms: C_15  and  C_16
REMARK    4  A    between atoms: C_19  and  C_20
REMARK    5  A    between atoms: N_23  and  C_24
REMARK                            x       y       z     vdW  Elec       q    Type
REMARK                         _______ _______ _______ _____ _____    ______ ____
ROOT
ATOM      1  N   UNL     1       2.772   6.473  19.032  0.00  0.00    +0.000 N 
ATOM      2  C   UNL     1       2.131   5.346  18.564  0.00  0.00    +0.000 C 
ATOM      3  O   UNL     1       1.012   5.359  18.052  0.00  0.00    +0.000 OA
ATOM      4  N   UNL     1       2.836   4.146  18.696  0.00  0.00    +0.000 N 
ATOM      5  C   UNL     1       2.282   2.969  18.024  0.00  0.00    +0.000 C 
ATOM      6  C   UNL     1       1.391   2.139  18.947  0.00  0.00    +0.000 C 
ATOM      7  C   UNL     1       2.161   1.283  19.949  0.00  0.00    +0.000 C 
ATOM      8  C   UNL     1       3.116   2.063  20.852  0.00  0.00    +0.000 C 
ATOM      9  C   UNL     1       4.322   2.608  20.092  0.00  0.00    +0.000 C 
ATOM     10  C   UNL     1       4.101   3.989  19.438  0.00  0.00    +0.000 C 
ATOM     11  H   UNL     1       3.783   6.436  19.105  0.00  0.00    +0.000 HD
ENDROOT
BRANCH   1  16
ATOM     12  C   UNL     1       0.583  11.782  18.793  0.00  0.00    +0.000 C 
ATOM     13  C   UNL     1       1.190  10.414  18.900  0.00  0.00    +0.000 A 
ATOM     14  C   UNL     1       1.019   9.638  20.051  0.00  0.00    +0.000 A 
ATOM     15  C   UNL     1       1.552   8.344  20.134  0.00  0.00    +0.000 A 
ATOM     16  C   UNL     1       2.252   7.793  19.059  0.00  0.00    +0.000 A 
ATOM     17  C   UNL     1       2.447   8.592  17.925  0.00  0.00    +0.000 A 
ATOM     18  F   UNL     1       3.140   8.106  16.881  0.00  0.00    +0.000 F 
ATOM     19  C   UNL     1       1.926   9.883  17.836  0.00  0.00    +0.000 A 
ENDBRANCH   1  16
BRANCH  10  20
ATOM     20  C   UNL     1       5.238   4.355  18.517  0.00  0.00    +0.000 A 
ATOM     21  N   UNL     1       6.457   4.687  18.957  0.00  0.00    +0.000 NA
ATOM     22  O   UNL     1       7.183   4.873  17.789  0.00  0.00    +0.000 OA
ATOM     23  C   UNL     1       6.336   4.618  16.742  0.00  0.00    +0.000 A 
ATOM     24  N   UNL     1       5.118   4.305  17.144  0.00  0.00    +0.000 NA
BRANCH  23  25
ATOM     25  C   UNL     1       6.776   4.697  15.333  0.00  0.00    +0.000 A 
ATOM     26  C   UNL     1       7.734   5.570  14.791  0.00  0.00    +0.000 A 
ATOM     27  N   UNL     1       7.901   5.380  13.480  0.00  0.00    +0.000 NA
ATOM     28  N   UNL     1       7.047   4.378  13.193  0.00  0.00    +0.000 N 
ATOM     29  C   UNL     1       6.947   3.884  11.841  0.00  0.00    +0.000 C 
ATOM     30  C   UNL     1       6.343   3.932  14.276  0.00  0.00    +0.000 A 
ENDBRANCH  23  25
ENDBRANCH  10  20
TORSDOF 3
ENDMDL
MODEL 4
REMARK VINA RESULT:      -7.5      2.737      7.604
REMARK  Name = 
REMARK  5 active torsions:
REMARK  status: ('A' for Active; 'I' for Inactive)
REMARK    1  A    between atoms: C_1  and  C_2
REMARK    2  A    between atoms: C_5  and  N_6
REMARK    3  A    between atoms: C_15  and  C_16
REMARK    4  A    between atoms: C_19  and  C_20
REMARK    5  A    between atoms: N_23  and  C_24
REMARK                            x       y       z     vdW  Elec       q    Type
REMARK                         _______ _______ _______ _____ _____    ______ ____
ROOT
ATOM      1  N   UNL     1       4.223   5.027  17.788  0.00  0.00    +0.000 N 
ATOM      2  C   UNL     1       4.363   4.401  19.009  0.00  0.00    +0.000 C 
ATOM      3  O   UNL     1       5.394   3.835  19.371  0.00  0.00    +0.000 OA
ATOM      4  N   UNL     1       3.246   4.446  19.848  0.00  0.00    +0.000 N 
ATOM      5  C   UNL     1       3.425   3.980  21.224  0.00  0.00    +0.000 C 
ATOM      6  C   UNL     1       3.054   2.508  21.392  0.00  0.00    +0.000 C 
ATOM      7  C   UNL     1       1.551   2.246  21.433  0.00  0.00    +0.000 C 
ATOM      8  C   UNL     1       0.784   2.751  20.212  0.00  0.00    +0.000 C 
ATOM      9  C   UNL     1       0.716   4.275  20.156  0.00  0.00    +0.000 C 
ATOM     10  C   UNL     1       1.916   4.947  19.453  0.00  0.00    +0.000 C 
ATOM     11  H   UNL     1       3.508   5.743  17.712  0.00  0.00    +0.000 HD
ENDROOT
BRANCH   1  16
ATOM     12  C   UNL     1       7.857   5.164  13.338  0.00  0.00    +0.000 C 
ATOM     13  C   UNL     1       6.954   5.112  14.535  0.00  0.00    +0.000 A 
ATOM     14  C   UNL     1       7.123   5.999  15.603  0.00  0.00    +0.000 A 
ATOM     15  C   UNL     1       6.253   5.977  16.703  0.00  0.00    +0.000 A 
ATOM     16  C   UNL     1       5.185   5.078  16.747  0.00  0.00    +0.000 A 
ATOM     17  C   UNL     1       5.048   4.172  15.688  0.00  0.00    +0.000 A 
ATOM     18  F   UNL     1       4.048   3.273  15.709  0.00  0.00    +0.000 F 
ATOM     19  C   UNL     1       5.912   4.182  14.594  0.00  0.00    +0.000 A 
ENDBRANCH   1  16
BRANCH  10  20
ATOM     20  C   UNL     1       1.901   6.444  19.640  0.00  0.00    +0.000 A 
ATOM     21  N   UNL     1       2.497   7.292  18.794  0.00  0.00    +0.000 NA
ATOM     22  O   UNL     1       2.175   8.540  19.307  0.00  0.00    +0.000 OA
ATOM     23  C   UNL     1       1.394   8.334  20.414  0.00  0.00    +0.000 A 
ATOM     24  N   UNL     1       1.207   7.051  20.666  0.00  0.00    +0.000 NA
BRANCH  23  25
ATOM     25  C   UNL     1       0.843   9.449  21.212  0.00  0.00    +0.000 A 
ATOM     26  C   UNL     1       0.491   9.427  22.572  0.00  0.00    +0.000 A 
ATOM     27  N   UNL     1       0.023  10.606  22.988  0.00  0.00    +0.000 NA
ATOM     28  N   UNL     1       0.085  11.379  21.887  0.00  0.00    +0.000 N 
ATOM     29  C   UNL     1      -0.343  12.755  21.949  0.00  0.00    +0.000 C 
ATOM     30  C   UNL     1       0.570  10.728  20.787  0.00  0.00    +0.000 A 
ENDBRANCH  23  25
ENDBRANCH  10  20
TORSDOF 3
ENDMDL
MODEL 5
REMARK VINA RESULT:      -7.3      5.326      9.646
REMARK  Name = 
REMARK  5 active torsions:
REMARK  status: ('A' for Active; 'I' for Inactive)
REMARK    1  A    between atoms: C_1  and  C_2
REMARK    2  A    between atoms: C_5  and  N_6
REMARK    3  A    between atoms: C_15  and  C_16
REMARK    4  A    between atoms: C_19  and  C_20
REMARK    5  A    between atoms: N_23  and  C_24
REMARK                            x       y       z     vdW  Elec       q    Type
REMARK                         _______ _______ _______ _____ _____    ______ ____
ROOT
ATOM      1  N   UNL     1       0.399  10.214  19.785  0.00  0.00    +0.000 N 
ATOM      2  C   UNL     1       0.728  11.538  19.980  0.00  0.00    +0.000 C 
ATOM      3  O   UNL     1       1.852  11.998  19.780  0.00  0.00    +0.000 OA
ATOM      4  N   UNL     1      -0.307  12.364  20.426  0.00  0.00    +0.000 N 
ATOM      5  C   UNL     1      -0.052  13.806  20.441  0.00  0.00    +0.000 C 
ATOM      6  C   UNL     1       0.448  14.293  21.800  0.00  0.00    +0.000 C 
ATOM      7  C   UNL     1      -0.646  14.411  22.858  0.00  0.00    +0.000 C 
ATOM      8  C   UNL     1      -1.424  13.122  23.118  0.00  0.00    +0.000 C 
ATOM      9  C   UNL     1      -2.325  12.739  21.946  0.00  0.00    +0.000 C 
ATOM     10  C   UNL     1      -1.637  11.891  20.855  0.00  0.00    +0.000 C 
ATOM     11  H   UNL     1      -0.580   9.996  19.634  0.00  0.00    +0.000 HD
ENDROOT
BRANCH   1  16
ATOM     12  C   UNL     1       3.745   5.764  18.361  0.00  0.00    +0.000 C 
ATOM     13  C   UNL     1       2.919   6.961  18.728  0.00  0.00    +0.000 A 
ATOM     14  C   UNL     1       2.691   7.988  17.805  0.00  0.00    +0.000 A 
ATOM     15  C   UNL     1       1.885   9.087  18.135  0.00  0.00    +0.000 A 
ATOM     16  C   UNL     1       1.277   9.172  19.389  0.00  0.00    +0.000 A 
ATOM     17  C   UNL     1       1.541   8.156  20.316  0.00  0.00    +0.000 A 
ATOM     18  F   UNL     1       0.995   8.218  21.542  0.00  0.00    +0.000 F 
ATOM     19  C   UNL     1       2.346   7.062  19.999  0.00  0.00    +0.000 A 
ENDBRANCH   1  16
BRANCH  10  20
ATOM     20  C   UNL     1      -2.507  11.751  19.630  0.00  0.00    +0.000 A 
ATOM     21  N   UNL     1      -3.685  12.372  19.497  0.00  0.00    +0.000 NA
ATOM     22  O   UNL     1      -4.092  12.021  18.217  0.00  0.00    +0.000 OA
ATOM     23  C   UNL     1      -3.109  11.229  17.684  0.00  0.00    +0.000 A 
ATOM     24  N   UNL     1      -2.113  11.025  18.526  0.00  0.00    +0.000 NA
BRANCH  23  25
ATOM     25  C   UNL     1      -3.192  10.682  16.313  0.00  0.00    +0.000 A 
ATOM     26  C   UNL     1      -2.296   9.791  15.699  0.00  0.00    +0.000 A 
ATOM     27  N   UNL     1      -2.662   9.491  14.451  0.00  0.00    +0.000 NA
ATOM     28  N   UNL     1      -3.800  10.192  14.277  0.00  0.00    +0.000 N 
ATOM     29  C   UNL     1      -4.506  10.117  13.021  0.00  0.00    +0.000 C 
ATOM     30  C   UNL     1      -4.161  10.930  15.370  0.00  0.00    +0.000 A 
ENDBRANCH  23  25
ENDBRANCH  10  20
TORSDOF 3
ENDMDL
MODEL 6
REMARK VINA RESULT:      -7.3      4.847      9.209
REMARK  Name = 
REMARK  5 active torsions:
REMARK  status: ('A' for Active; 'I' for Inactive)
REMARK    1  A    between atoms: C_1  and  C_2
REMARK    2  A    between atoms: C_5  and  N_6
REMARK    3  A    between atoms: C_15  and  C_16
REMARK    4  A    between atoms: C_19  and  C_20
REMARK    5  A    between atoms: N_23  and  C_24
REMARK                            x       y       z     vdW  Elec       q    Type
REMARK                         _______ _______ _______ _____ _____    ______ ____
ROOT
ATOM      1  N   UNL     1       1.216   9.163  19.753  0.00  0.00    +0.000 N 
ATOM      2  C   UNL     1       0.744   9.801  20.880  0.00  0.00    +0.000 C 
ATOM      3  O   UNL     1       0.757   9.300  22.004  0.00  0.00    +0.000 OA
ATOM      4  N   UNL     1       0.236  11.089  20.684  0.00  0.00    +0.000 N 
ATOM      5  C   UNL     1      -0.077  11.873  21.879  0.00  0.00    +0.000 C 
ATOM      6  C   UNL     1      -1.540  11.740  22.294  0.00  0.00    +0.000 C 
ATOM      7  C   UNL     1      -2.506  12.550  21.434  0.00  0.00    +0.000 C 
ATOM      8  C   UNL     1      -2.447  12.233  19.940  0.00  0.00    +0.000 C 
ATOM      9  C   UNL     1      -1.153  12.719  19.292  0.00  0.00    +0.000 C 
ATOM     10  C   UNL     1       0.019  11.716  19.366  0.00  0.00    +0.000 C 
ATOM     11  H   UNL     1       1.488   9.746  18.969  0.00  0.00    +0.000 HD
ENDROOT
BRANCH   1  16
ATOM     12  C   UNL     1       3.598   3.951  19.313  0.00  0.00    +0.000 C 
ATOM     13  C   UNL     1       2.923   5.286  19.424  0.00  0.00    +0.000 A 
ATOM     14  C   UNL     1       2.121   5.597  20.527  0.00  0.00    +0.000 A 
ATOM     15  C   UNL     1       1.523   6.860  20.650  0.00  0.00    +0.000 A 
ATOM     16  C   UNL     1       1.730   7.843  19.680  0.00  0.00    +0.000 A 
ATOM     17  C   UNL     1       2.506   7.507  18.563  0.00  0.00    +0.000 A 
ATOM     18  F   UNL     1       2.705   8.419  17.595  0.00  0.00    +0.000 F 
ATOM     19  C   UNL     1       3.099   6.253  18.429  0.00  0.00    +0.000 A 
ENDBRANCH   1  16
BRANCH  10  20
ATOM     20  C   UNL     1       1.317  12.346  18.924  0.00  0.00    +0.000 A 
ATOM     21  N   UNL     1       2.201  11.721  18.138  0.00  0.00    +0.000 NA
ATOM     22  O   UNL     1       3.186  12.677  17.935  0.00  0.00    +0.000 OA
ATOM     23  C   UNL     1       2.797  13.807  18.606  0.00  0.00    +0.000 A 
ATOM     24  N   UNL     1       1.651  13.645  19.243  0.00  0.00    +0.000 NA
BRANCH  23  25
ATOM     25  C   UNL     1       3.599  15.048  18.595  0.00  0.00    +0.000 A 
ATOM     26  C   UNL     1       3.176  16.328  18.197  0.00  0.00    +0.000 A 
ATOM     27  N   UNL     1       4.149  17.235  18.312  0.00  0.00    +0.000 NA
ATOM     28  N   UNL     1       5.190  16.527  18.790  0.00  0.00    +0.000 N 
ATOM     29  C   UNL     1       6.447  17.184  19.052  0.00  0.00    +0.000 C 
ATOM     30  C   UNL     1       4.910  15.202  18.977  0.00  0.00    +0.000 A 
ENDBRANCH  23  25
ENDBRANCH  10  20
TORSDOF 3
ENDMDL
MODEL 7
REMARK VINA RESULT:      -7.3      5.283      9.595
REMARK  Name = 
REMARK  5 active torsions:
REMARK  status: ('A' for Active; 'I' for Inactive)
REMARK    1  A    between atoms: C_1  and  C_2
REMARK    2  A    between atoms: C_5  and  N_6
REMARK    3  A    between atoms: C_15  and  C_16
REMARK    4  A    between atoms: C_19  and  C_20
REMARK    5  A    between atoms: N_23  and  C_24
REMARK                            x       y       z     vdW  Elec       q    Type
REMARK                         _______ _______ _______ _____ _____    ______ ____
ROOT
ATOM      1  N   UNL     1      -2.555  11.897  19.249  0.00  0.00    +0.000 N 
ATOM      2  C   UNL     1      -3.387  12.200  20.305  0.00  0.00    +0.000 C 
ATOM      3  O   UNL     1      -4.613  12.103  20.258  0.00  0.00    +0.000 OA
ATOM      4  N   UNL     1      -2.755  12.632  21.474  0.00  0.00    +0.000 N 
ATOM      5  C   UNL     1      -3.584  12.759  22.674  0.00  0.00    +0.000 C 
ATOM      6  C   UNL     1      -4.122  14.176  22.861  0.00  0.00    +0.000 C 
ATOM      7  C   UNL     1      -3.090  15.168  23.392  0.00  0.00    +0.000 C 
ATOM      8  C   UNL     1      -1.828  15.291  22.540  0.00  0.00    +0.000 C 
ATOM      9  C   UNL     1      -0.954  14.042  22.610  0.00  0.00    +0.000 C 
ATOM     10  C   UNL     1      -1.317  12.943  21.589  0.00  0.00    +0.000 C 
ATOM     11  H   UNL     1      -1.591  11.669  19.467  0.00  0.00    +0.000 HD
ENDROOT
BRANCH   1  16
ATOM     12  C   UNL     1      -3.999   9.929  14.046  0.00  0.00    +0.000 C 
ATOM     13  C   UNL     1      -3.623  10.498  15.382  0.00  0.00    +0.000 A 
ATOM     14  C   UNL     1      -4.506  11.322  16.087  0.00  0.00    +0.000 A 
ATOM     15  C   UNL     1      -4.171  11.820  17.354  0.00  0.00    +0.000 A 
ATOM     16  C   UNL     1      -2.951  11.489  17.949  0.00  0.00    +0.000 A 
ATOM     17  C   UNL     1      -2.061  10.693  17.217  0.00  0.00    +0.000 A 
ATOM     18  F   UNL     1      -0.866  10.376  17.745  0.00  0.00    +0.000 F 
ATOM     19  C   UNL     1      -2.383  10.198  15.954  0.00  0.00    +0.000 A 
ENDBRANCH   1  16
BRANCH  10  20
ATOM     20  C   UNL     1      -0.577  11.659  21.868  0.00  0.00    +0.000 A 
ATOM     21  N   UNL     1      -0.399  11.171  23.101  0.00  0.00    +0.000 NA
ATOM     22  O   UNL     1       0.257   9.968  22.882  0.00  0.00    +0.000 OA
ATOM     23  C   UNL     1       0.402   9.828  21.527  0.00  0.00    +0.000 A 
ATOM     24  N   UNL     1      -0.089  10.856  20.858  0.00  0.00    +0.000 NA
BRANCH  23  25
ATOM     25  C   UNL     1       1.043   8.643  20.919  0.00  0.00    +0.000 A 
ATOM     26  C   UNL     1       1.759   8.591  19.712  0.00  0.00    +0.000 A 
ATOM     27  N   UNL     1       2.213   7.363  19.449  0.00  0.00    +0.000 NA
ATOM     28  N   UNL     1       1.786   6.636  20.500  0.00  0.00    +0.000 N 
ATOM     29  C   UNL     1       2.094   5.228  20.573  0.00  0.00    +0.000 C 
ATOM     30  C   UNL     1       1.073   7.361  21.414  0.00  0.00    +0.000 A 
ENDBRANCH  23  25
ENDBRANCH  10  20
TORSDOF 3
ENDMDL
MODEL 8
REMARK VINA RESULT:      -7.3      1.200      1.332
REMARK  Name = 
REMARK  5 active torsions:
REMARK  status: ('A' for Active; 'I' for Inactive)
REMARK    1  A    between atoms: C_1  and  C_2
REMARK    2  A    between atoms: C_5  and  N_6
REMARK    3  A    between atoms: C_15  and  C_16
REMARK    4  A    between atoms: C_19  and  C_20
REMARK    5  A    between atoms: N_23  and  C_24
REMARK                            x       y       z     vdW  Elec       q    Type
REMARK                         _______ _______ _______ _____ _____    ______ ____
ROOT
ATOM      1  N   UNL     1       2.817   6.724  18.536  0.00  0.00    +0.000 N 
ATOM      2  C   UNL     1       2.201   5.503  18.369  0.00  0.00    +0.000 C 
ATOM      3  O   UNL     1       0.980   5.348  18.370  0.00  0.00    +0.000 OA
ATOM      4  N   UNL     1       3.054   4.410  18.188  0.00  0.00    +0.000 N 
ATOM      5  C   UNL     1       2.438   3.140  17.800  0.00  0.00    +0.000 C 
ATOM      6  C   UNL     1       2.131   2.252  19.003  0.00  0.00    +0.000 C 
ATOM      7  C   UNL     1       3.355   1.552  19.588  0.00  0.00    +0.000 C 
ATOM      8  C   UNL     1       4.481   2.492  20.017  0.00  0.00    +0.000 C 
ATOM      9  C   UNL     1       5.178   3.146  18.828  0.00  0.00    +0.000 C 
ATOM     10  C   UNL     1       4.521   4.453  18.335  0.00  0.00    +0.000 C 
ATOM     11  H   UNL     1       3.762   6.820  18.182  0.00  0.00    +0.000 HD
ENDROOT
BRANCH   1  16
ATOM     12  C   UNL     1       0.359  11.741  19.886  0.00  0.00    +0.000 C 
ATOM     13  C   UNL     1       0.958  10.424  19.491  0.00  0.00    +0.000 A 
ATOM     14  C   UNL     1       1.519  10.239  18.223  0.00  0.00    +0.000 A 
ATOM     15  C   UNL     1       2.116   9.020  17.870  0.00  0.00    +0.000 A 
ATOM     16  C   UNL     1       2.180   7.967  18.785  0.00  0.00    +0.000 A 
ATOM     17  C   UNL     1       1.584   8.152  20.039  0.00  0.00    +0.000 A 
ATOM     18  F   UNL     1       1.601   7.152  20.937  0.00  0.00    +0.000 F 
ATOM     19  C   UNL     1       0.982   9.359  20.397  0.00  0.00    +0.000 A 
ENDBRANCH   1  16
BRANCH  10  20
ATOM     20  C   UNL     1       5.113   4.914  17.026  0.00  0.00    +0.000 A 
ATOM     21  N   UNL     1       5.468   6.183  16.791  0.00  0.00    +0.000 NA
ATOM     22  O   UNL     1       6.017   6.134  15.518  0.00  0.00    +0.000 OA
ATOM     23  C   UNL     1       5.961   4.830  15.103  0.00  0.00    +0.000 A 
ATOM     24  N   UNL     1       5.399   4.039  15.999  0.00  0.00    +0.000 NA
BRANCH  23  25
ATOM     25  C   UNL     1       6.481   4.395  13.790  0.00  0.00    +0.000 A 
ATOM     26  C   UNL     1       7.353   5.104  12.945  0.00  0.00    +0.000 A 
ATOM     27  N   UNL     1       7.631   4.427  11.829  0.00  0.00    +0.000 NA
ATOM     28  N   UNL     1       6.937   3.281  11.971  0.00  0.00    +0.000 N 
ATOM     29  C   UNL     1       6.994   2.273  10.940  0.00  0.00    +0.000 C 
ATOM     30  C   UNL     1       6.224   3.214  13.136  0.00  0.00    +0.000 A 
ENDBRANCH  23  25
ENDBRANCH  10  20
TORSDOF 3
ENDMDL
MODEL 9
REMARK VINA RESULT:      -7.2      5.539      9.945
REMARK  Name = 
REMARK  5 active torsions:
REMARK  status: ('A' for Active; 'I' for Inactive)
REMARK    1  A    between atoms: C_1  and  C_2
REMARK    2  A    between atoms: C_5  and  N_6
REMARK    3  A    between atoms: C_15  and  C_16
REMARK    4  A    between atoms: C_19  and  C_20
REMARK    5  A    between atoms: N_23  and  C_24
REMARK                            x       y       z     vdW  Elec       q    Type
REMARK                         _______ _______ _______ _____ _____    ______ ____
ROOT
ATOM      1  N   UNL     1      -2.930  12.094  19.061  0.00  0.00    +0.000 N 
ATOM      2  C   UNL     1      -3.835  12.280  20.084  0.00  0.00    +0.000 C 
ATOM      3  O   UNL     1      -5.029  11.995  19.998  0.00  0.00    +0.000 OA
ATOM      4  N   UNL     1      -3.318  12.820  21.265  0.00  0.00    +0.000 N 
ATOM      5  C   UNL     1      -4.198  12.835  22.434  0.00  0.00    +0.000 C 
ATOM      6  C   UNL     1      -4.953  14.155  22.576  0.00  0.00    +0.000 C 
ATOM      7  C   UNL     1      -4.104  15.300  23.122  0.00  0.00    +0.000 C 
ATOM      8  C   UNL     1      -2.846  15.604  22.310  0.00  0.00    +0.000 C 
ATOM      9  C   UNL     1      -1.794  14.504  22.432  0.00  0.00    +0.000 C 
ATOM     10  C   UNL     1      -1.949  13.348  21.420  0.00  0.00    +0.000 C 
ATOM     11  H   UNL     1      -1.951  12.019  19.315  0.00  0.00    +0.000 HD
ENDROOT
BRANCH   1  16
ATOM     12  C   UNL     1      -3.909   9.836  13.867  0.00  0.00    +0.000 C 
ATOM     13  C   UNL     1      -3.655  10.480  15.198  0.00  0.00    +0.000 A 
ATOM     14  C   UNL     1      -4.616  11.301  15.796  0.00  0.00    +0.000 A 
ATOM     15  C   UNL     1      -4.394  11.869  17.059  0.00  0.00    +0.000 A 
ATOM     16  C   UNL     1      -3.212  11.612  17.757  0.00  0.00    +0.000 A 
ATOM     17  C   UNL     1      -2.243  10.817  17.132  0.00  0.00    +0.000 A 
ATOM     18  F   UNL     1      -1.081  10.570  17.762  0.00  0.00    +0.000 F 
ATOM     19  C   UNL     1      -2.452  10.253  15.874  0.00  0.00    +0.000 A 
ENDBRANCH   1  16
BRANCH  10  20
ATOM     20  C   UNL     1      -1.032  12.197  21.748  0.00  0.00    +0.000 A 
ATOM     21  N   UNL     1      -0.648  11.901  22.995  0.00  0.00    +0.000 NA
ATOM     22  O   UNL     1       0.116  10.754  22.835  0.00  0.00    +0.000 OA
ATOM     23  C   UNL     1       0.110  10.447  21.499  0.00  0.00    +0.000 A 
ATOM     24  N   UNL     1      -0.579  11.319  20.785  0.00  0.00    +0.000 NA
BRANCH  23  25
ATOM     25  C   UNL     1       0.809   9.264  20.957  0.00  0.00    +0.000 A 
ATOM     26  C   UNL     1       1.009   8.029  21.596  0.00  0.00    +0.000 A 
ATOM     27  N   UNL     1       1.679   7.168  20.827  0.00  0.00    +0.000 NA
ATOM     28  N   UNL     1       1.899   7.860  19.692  0.00  0.00    +0.000 N 
ATOM     29  C   UNL     1       2.609   7.242  18.599  0.00  0.00    +0.000 C 
ATOM     30  C   UNL     1       1.396   9.131  19.721  0.00  0.00    +0.000 A 
ENDBRANCH  23  25
ENDBRANCH  10  20
TORSDOF 3
ENDMDL
