MODEL 1
REMARK VINA RESULT:      -8.5      0.000      0.000
REMARK  Name = 
REMARK  4 active torsions:
REMARK  status: ('A' for Active; 'I' for Inactive)
REMARK    1  A    between atoms: C_2  and  C_3
REMARK    2  A    between atoms: C_3  and  C_4
REMARK    3  A    between atoms: C_4  and  C_5
REMARK    4  A    between atoms: N_14  and  C_15
REMARK                            x       y       z     vdW  Elec       q    Type
REMARK                         _______ _______ _______ _____ _____    ______ ____
ROOT
ATOM      1  O   UNL     1       5.151   5.395  19.805  0.00  0.00    +0.000 OA
ATOM      2  C   UNL     1       4.448   4.968  18.894  0.00  0.00    +0.000 C 
ATOM      3  N   UNL     1       3.204   5.463  18.526  0.00  0.00    +0.000 N 
ATOM      4  H   UNL     1       2.661   4.904  17.880  0.00  0.00    +0.000 HD
ENDROOT
BRANCH   3   5
ATOM      5  C   UNL     1       2.546   6.567  19.111  0.00  0.00    +0.000 A 
ATOM      6  C   UNL     1       1.966   6.527  20.376  0.00  0.00    +0.000 A 
ATOM      7  C   UNL     1       1.281   7.639  20.880  0.00  0.00    +0.000 A 
ATOM      8  C   UNL     1       1.149   8.807  20.150  0.00  0.00    +0.000 A 
ATOM      9  N   UNL     1       0.440   9.826  20.664  0.00  0.00    +0.000 NA
ATOM     10  C   UNL     1       0.311  10.947  19.924  0.00  0.00    +0.000 A 
ATOM     11  C   UNL     1       0.880  11.114  18.676  0.00  0.00    +0.000 A 
ATOM     12  C   UNL     1       1.622  10.060  18.151  0.00  0.00    +0.000 A 
ATOM     13  C   UNL     1       1.764   8.871  18.884  0.00  0.00    +0.000 A 
ATOM     14  C   UNL     1       2.475   7.759  18.381  0.00  0.00    +0.000 A 
ENDBRANCH   3   5
BRANCH   2  15
ATOM     15  C   UNL     1       4.901   3.813  18.020  0.00  0.00    +0.000 C 
BRANCH  15  16
ATOM     16  C   UNL     1       4.528   4.050  16.557  0.00  0.00    +0.000 C 
BRANCH  16  17
ATOM     17  C   UNL     1       5.684   4.564  15.760  0.00  0.00    +0.000 A 
ATOM     18  C   UNL     1       6.677   5.408  16.222  0.00  0.00    +0.000 A 
ATOM     19  N   UNL     1       7.556   5.642  15.199  0.00  0.00    +0.000 N 
ATOM     20  C   UNL     1       7.156   4.974  14.066  0.00  0.00    +0.000 A 
ATOM     21  C   UNL     1       7.740   4.928  12.795  0.00  0.00    +0.000 A 
ATOM     22  C   UNL     1       7.110   4.150  11.821  0.00  0.00    +0.000 A 
ATOM     23  C   UNL     1       5.944   3.445  12.109  0.00  0.00    +0.000 A 
ATOM     24  C   UNL     1       5.374   3.501  13.387  0.00  0.00    +0.000 A 
ATOM     25  C   UNL     1       5.986   4.282  14.388  0.00  0.00    +0.000 A 
ATOM     26  H   UNL     1       8.381   6.221  15.261  0.00  0.00    +0.000 HD
ENDBRANCH  16  17
ENDBRANCH  15  16
ENDBRANCH   2  15
TORSDOF 4
ENDMDL
MODEL 2
REMARK VINA RESULT:      -8.4      5.957      8.384
REMARK  Name = 
REMARK  4 active torsions:
REMARK  status: ('A' for Active; 'I' for Inactive)
REMARK    1  A    between atoms: C_2  and  C_3
REMARK    2  A    between atoms: C_3  and  C_4
REMARK    3  A    between atoms: C_4  and  C_5
REMARK    4  A    between atoms: N_14  and  C_15
REMARK                            x       y       z     vdW  Elec       q    Type
REMARK                         _______ _______ _______ _____ _____    ______ ____
ROOT
ATOM      1  O   UNL     1       8.360   7.260  18.768  0.00  0.00    +0.000 OA
ATOM      2  C   UNL     1       7.891   8.052  17.956  0.00  0.00    +0.000 C 
ATOM      3  N   UNL     1       6.808   7.813  17.120  0.00  0.00    +0.000 N 
ATOM      4  H   UNL     1       6.644   8.484  16.379  0.00  0.00    +0.000 HD
ENDROOT
BRANCH   3   5
ATOM      5  C   UNL     1       6.035   6.631  17.083  0.00  0.00    +0.000 A 
ATOM      6  C   UNL     1       6.488   5.441  16.521  0.00  0.00    +0.000 A 
ATOM      7  C   UNL     1       5.654   4.318  16.467  0.00  0.00    +0.000 A 
ATOM      8  C   UNL     1       4.361   4.345  16.958  0.00  0.00    +0.000 A 
ATOM      9  N   UNL     1       3.589   3.252  16.836  0.00  0.00    +0.000 NA
ATOM     10  C   UNL     1       2.326   3.311  17.307  0.00  0.00    +0.000 A 
ATOM     11  C   UNL     1       1.786   4.423  17.922  0.00  0.00    +0.000 A 
ATOM     12  C   UNL     1       2.591   5.550  18.055  0.00  0.00    +0.000 A 
ATOM     13  C   UNL     1       3.905   5.534  17.562  0.00  0.00    +0.000 A 
ATOM     14  C   UNL     1       4.751   6.663  17.638  0.00  0.00    +0.000 A 
ENDBRANCH   3   5
BRANCH   2  15
ATOM     15  C   UNL     1       8.460   9.449  17.793  0.00  0.00    +0.000 C 
BRANCH  15  16
ATOM     16  C   UNL     1       9.127   9.926  19.083  0.00  0.00    +0.000 C 
BRANCH  16  17
ATOM     17  C   UNL     1       9.862  11.215  18.890  0.00  0.00    +0.000 A 
ATOM     18  C   UNL     1      10.587  11.576  17.770  0.00  0.00    +0.000 A 
ATOM     19  N   UNL     1      11.101  12.828  17.974  0.00  0.00    +0.000 N 
ATOM     20  C   UNL     1      10.735  13.297  19.213  0.00  0.00    +0.000 A 
ATOM     21  C   UNL     1      11.034  14.513  19.839  0.00  0.00    +0.000 A 
ATOM     22  C   UNL     1      10.515  14.726  21.118  0.00  0.00    +0.000 A 
ATOM     23  C   UNL     1       9.726  13.763  21.742  0.00  0.00    +0.000 A 
ATOM     24  C   UNL     1       9.435  12.553  21.100  0.00  0.00    +0.000 A 
ATOM     25  C   UNL     1       9.950  12.309  19.812  0.00  0.00    +0.000 A 
ATOM     26  H   UNL     1      11.668  13.339  17.312  0.00  0.00    +0.000 HD
ENDBRANCH  16  17
ENDBRANCH  15  16
ENDBRANCH   2  15
TORSDOF 4
ENDMDL
MODEL 3
REMARK VINA RESULT:      -8.4      2.245      3.504
REMARK  Name = 
REMARK  4 active torsions:
REMARK  status: ('A' for Active; 'I' for Inactive)
REMARK    1  A    between atoms: C_2  and  C_3
REMARK    2  A    between atoms: C_3  and  C_4
REMARK    3  A    between atoms: C_4  and  C_5
REMARK    4  A    between atoms: N_14  and  C_15
REMARK                            x       y       z     vdW  Elec       q    Type
REMARK                         _______ _______ _______ _____ _____    ______ ____
ROOT
ATOM      1  O   UNL     1       1.520   4.524  17.972  0.00  0.00    +0.000 OA
ATOM      2  C   UNL     1       2.654   4.718  18.398  0.00  0.00    +0.000 C 
ATOM      3  N   UNL     1       3.131   5.911  18.926  0.00  0.00    +0.000 N 
ATOM      4  H   UNL     1       4.131   5.982  19.070  0.00  0.00    +0.000 HD
ENDROOT
BRANCH   3   5
ATOM      5  C   UNL     1       2.384   7.098  19.098  0.00  0.00    +0.000 A 
ATOM      6  C   UNL     1       2.160   8.014  18.074  0.00  0.00    +0.000 A 
ATOM      7  C   UNL     1       1.457   9.198  18.321  0.00  0.00    +0.000 A 
ATOM      8  C   UNL     1       0.966   9.507  19.578  0.00  0.00    +0.000 A 
ATOM      9  N   UNL     1       0.339  10.680  19.769  0.00  0.00    +0.000 NA
ATOM     10  C   UNL     1      -0.114  10.964  21.008  0.00  0.00    +0.000 A 
ATOM     11  C   UNL     1       0.014  10.112  22.087  0.00  0.00    +0.000 A 
ATOM     12  C   UNL     1       0.654   8.894  21.884  0.00  0.00    +0.000 A 
ATOM     13  C   UNL     1       1.155   8.569  20.613  0.00  0.00    +0.000 A 
ATOM     14  C   UNL     1       1.846   7.363  20.362  0.00  0.00    +0.000 A 
ENDBRANCH   3   5
BRANCH   2  15
ATOM     15  C   UNL     1       3.695   3.614  18.413  0.00  0.00    +0.000 C 
BRANCH  15  16
ATOM     16  C   UNL     1       4.460   3.561  17.091  0.00  0.00    +0.000 C 
BRANCH  16  17
ATOM     17  C   UNL     1       5.188   4.838  16.814  0.00  0.00    +0.000 A 
ATOM     18  C   UNL     1       4.979   5.672  15.733  0.00  0.00    +0.000 A 
ATOM     19  N   UNL     1       5.832   6.738  15.838  0.00  0.00    +0.000 N 
ATOM     20  C   UNL     1       6.607   6.617  16.966  0.00  0.00    +0.000 A 
ATOM     21  C   UNL     1       7.607   7.460  17.466  0.00  0.00    +0.000 A 
ATOM     22  C   UNL     1       8.234   7.085  18.657  0.00  0.00    +0.000 A 
ATOM     23  C   UNL     1       7.872   5.916  19.321  0.00  0.00    +0.000 A 
ATOM     24  C   UNL     1       6.868   5.085  18.808  0.00  0.00    +0.000 A 
ATOM     25  C   UNL     1       6.222   5.436  17.606  0.00  0.00    +0.000 A 
ATOM     26  H   UNL     1       5.888   7.506  15.184  0.00  0.00    +0.000 HD
ENDBRANCH  16  17
ENDBRANCH  15  16
ENDBRANCH   2  15
TORSDOF 4
ENDMDL
MODEL 4
REMARK VINA RESULT:      -8.4      2.696      5.061
REMARK  Name = 
REMARK  4 active torsions:
REMARK  status: ('A' for Active; 'I' for Inactive)
REMARK    1  A    between atoms: C_2  and  C_3
REMARK    2  A    between atoms: C_3  and  C_4
REMARK    3  A    between atoms: C_4  and  C_5
REMARK    4  A    between atoms: N_14  and  C_15
REMARK                            x       y       z     vdW  Elec       q    Type
REMARK                         _______ _______ _______ _____ _____    ______ ____
ROOT
ATOM      1  O   UNL     1       5.173   7.587  17.733  0.00  0.00    +0.000 OA
ATOM      2  C   UNL     1       4.400   6.680  17.439  0.00  0.00    +0.000 C 
ATOM      3  N   UNL     1       3.041   6.648  17.718  0.00  0.00    +0.000 N 
ATOM      4  H   UNL     1       2.565   5.764  17.581  0.00  0.00    +0.000 HD
ENDROOT
BRANCH   3   5
ATOM      5  C   UNL     1       2.302   7.669  18.357  0.00  0.00    +0.000 A 
ATOM      6  C   UNL     1       1.827   8.796  17.692  0.00  0.00    +0.000 A 
ATOM      7  C   UNL     1       1.146   9.800  18.391  0.00  0.00    +0.000 A 
ATOM      8  C   UNL     1       0.924   9.717  19.755  0.00  0.00    +0.000 A 
ATOM      9  N   UNL     1       0.307  10.732  20.382  0.00  0.00    +0.000 NA
ATOM     10  C   UNL     1       0.119  10.634  21.715  0.00  0.00    +0.000 A 
ATOM     11  C   UNL     1       0.509   9.544  22.468  0.00  0.00    +0.000 A 
ATOM     12  C   UNL     1       1.138   8.490  21.813  0.00  0.00    +0.000 A 
ATOM     13  C   UNL     1       1.368   8.562  20.430  0.00  0.00    +0.000 A 
ATOM     14  C   UNL     1       2.036   7.538  19.724  0.00  0.00    +0.000 A 
ENDBRANCH   3   5
BRANCH   2  15
ATOM     15  C   UNL     1       4.873   5.452  16.683  0.00  0.00    +0.000 C 
BRANCH  15  16
ATOM     16  C   UNL     1       3.879   4.300  16.830  0.00  0.00    +0.000 C 
BRANCH  16  17
ATOM     17  C   UNL     1       3.968   3.652  18.176  0.00  0.00    +0.000 A 
ATOM     18  C   UNL     1       5.102   3.093  18.734  0.00  0.00    +0.000 A 
ATOM     19  N   UNL     1       4.780   2.611  19.974  0.00  0.00    +0.000 N 
ATOM     20  C   UNL     1       3.451   2.834  20.241  0.00  0.00    +0.000 A 
ATOM     21  C   UNL     1       2.693   2.510  21.373  0.00  0.00    +0.000 A 
ATOM     22  C   UNL     1       1.343   2.869  21.373  0.00  0.00    +0.000 A 
ATOM     23  C   UNL     1       0.777   3.530  20.286  0.00  0.00    +0.000 A 
ATOM     24  C   UNL     1       1.550   3.848  19.162  0.00  0.00    +0.000 A 
ATOM     25  C   UNL     1       2.913   3.493  19.133  0.00  0.00    +0.000 A 
ATOM     26  H   UNL     1       5.424   2.156  20.607  0.00  0.00    +0.000 HD
ENDBRANCH  16  17
ENDBRANCH  15  16
ENDBRANCH   2  15
TORSDOF 4
ENDMDL
MODEL 5
REMARK VINA RESULT:      -8.3      2.693      5.169
REMARK  Name = 
REMARK  4 active torsions:
REMARK  status: ('A' for Active; 'I' for Inactive)
REMARK    1  A    between atoms: C_2  and  C_3
REMARK    2  A    between atoms: C_3  and  C_4
REMARK    3  A    between atoms: C_4  and  C_5
REMARK    4  A    between atoms: N_14  and  C_15
REMARK                            x       y       z     vdW  Elec       q    Type
REMARK                         _______ _______ _______ _____ _____    ______ ____
ROOT
ATOM      1  O   UNL     1       5.203   7.484  17.444  0.00  0.00    +0.000 OA
ATOM      2  C   UNL     1       4.445   6.522  17.369  0.00  0.00    +0.000 C 
ATOM      3  N   UNL     1       3.124   6.493  17.797  0.00  0.00    +0.000 N 
ATOM      4  H   UNL     1       2.676   5.586  17.839  0.00  0.00    +0.000 HD
ENDROOT
BRANCH   3   5
ATOM      5  C   UNL     1       2.411   7.575  18.359  0.00  0.00    +0.000 A 
ATOM      6  C   UNL     1       2.048   8.708  17.636  0.00  0.00    +0.000 A 
ATOM      7  C   UNL     1       1.389   9.771  18.264  0.00  0.00    +0.000 A 
ATOM      8  C   UNL     1       1.079   9.744  19.613  0.00  0.00    +0.000 A 
ATOM      9  N   UNL     1       0.489  10.813  20.173  0.00  0.00    +0.000 NA
ATOM     10  C   UNL     1       0.214  10.767  21.493  0.00  0.00    +0.000 A 
ATOM     11  C   UNL     1       0.490   9.680  22.298  0.00  0.00    +0.000 A 
ATOM     12  C   UNL     1       1.093   8.571  21.713  0.00  0.00    +0.000 A 
ATOM     13  C   UNL     1       1.410   8.586  20.345  0.00  0.00    +0.000 A 
ATOM     14  C   UNL     1       2.056   7.503  19.711  0.00  0.00    +0.000 A 
ENDBRANCH   3   5
BRANCH   2  15
ATOM     15  C   UNL     1       4.889   5.210  16.749  0.00  0.00    +0.000 C 
BRANCH  15  16
ATOM     16  C   UNL     1       5.216   4.176  17.825  0.00  0.00    +0.000 C 
BRANCH  16  17
ATOM     17  C   UNL     1       4.041   3.305  18.141  0.00  0.00    +0.000 A 
ATOM     18  C   UNL     1       3.571   2.264  17.363  0.00  0.00    +0.000 A 
ATOM     19  N   UNL     1       2.489   1.709  17.991  0.00  0.00    +0.000 N 
ATOM     20  C   UNL     1       2.231   2.371  19.167  0.00  0.00    +0.000 A 
ATOM     21  C   UNL     1       1.230   2.154  20.122  0.00  0.00    +0.000 A 
ATOM     22  C   UNL     1       1.211   2.989  21.241  0.00  0.00    +0.000 A 
ATOM     23  C   UNL     1       2.158   3.998  21.399  0.00  0.00    +0.000 A 
ATOM     24  C   UNL     1       3.153   4.201  20.436  0.00  0.00    +0.000 A 
ATOM     25  C   UNL     1       3.193   3.376  19.294  0.00  0.00    +0.000 A 
ATOM     26  H   UNL     1       1.954   0.925  17.645  0.00  0.00    +0.000 HD
ENDBRANCH  16  17
ENDBRANCH  15  16
ENDBRANCH   2  15
TORSDOF 4
ENDMDL
MODEL 6
REMARK VINA RESULT:      -8.3      5.851      8.141
REMARK  Name = 
REMARK  4 active torsions:
REMARK  status: ('A' for Active; 'I' for Inactive)
REMARK    1  A    between atoms: C_2  and  C_3
REMARK    2  A    between atoms: C_3  and  C_4
REMARK    3  A    between atoms: C_4  and  C_5
REMARK    4  A    between atoms: N_14  and  C_15
REMARK                            x       y       z     vdW  Elec       q    Type
REMARK                         _______ _______ _______ _____ _____    ______ ____
ROOT
ATOM      1  O   UNL     1       8.480   7.610  18.798  0.00  0.00    +0.000 OA
ATOM      2  C   UNL     1       7.978   8.330  17.940  0.00  0.00    +0.000 C 
ATOM      3  N   UNL     1       6.927   7.983  17.101  0.00  0.00    +0.000 N 
ATOM      4  H   UNL     1       6.736   8.604  16.325  0.00  0.00    +0.000 HD
ENDROOT
BRANCH   3   5
ATOM      5  C   UNL     1       6.229   6.755  17.112  0.00  0.00    +0.000 A 
ATOM      6  C   UNL     1       6.795   5.552  16.697  0.00  0.00    +0.000 A 
ATOM      7  C   UNL     1       6.035   4.377  16.681  0.00  0.00    +0.000 A 
ATOM      8  C   UNL     1       4.705   4.362  17.067  0.00  0.00    +0.000 A 
ATOM      9  N   UNL     1       4.011   3.215  16.986  0.00  0.00    +0.000 NA
ATOM     10  C   UNL     1       2.712   3.232  17.351  0.00  0.00    +0.000 A 
ATOM     11  C   UNL     1       2.060   4.356  17.820  0.00  0.00    +0.000 A 
ATOM     12  C   UNL     1       2.785   5.540  17.911  0.00  0.00    +0.000 A 
ATOM     13  C   UNL     1       4.134   5.567  17.524  0.00  0.00    +0.000 A 
ATOM     14  C   UNL     1       4.904   6.750  17.562  0.00  0.00    +0.000 A 
ENDBRANCH   3   5
BRANCH   2  15
ATOM     15  C   UNL     1       8.463   9.750  17.715  0.00  0.00    +0.000 C 
BRANCH  15  16
ATOM     16  C   UNL     1       9.287  10.245  18.903  0.00  0.00    +0.000 C 
BRANCH  16  17
ATOM     17  C   UNL     1      10.216  11.353  18.518  0.00  0.00    +0.000 A 
ATOM     18  C   UNL     1      11.574  11.232  18.296  0.00  0.00    +0.000 A 
ATOM     19  N   UNL     1      12.068  12.463  17.957  0.00  0.00    +0.000 N 
ATOM     20  C   UNL     1      11.060  13.397  17.961  0.00  0.00    +0.000 A 
ATOM     21  C   UNL     1      11.103  14.769  17.683  0.00  0.00    +0.000 A 
ATOM     22  C   UNL     1       9.905  15.482  17.759  0.00  0.00    +0.000 A 
ATOM     23  C   UNL     1       8.711  14.846  18.094  0.00  0.00    +0.000 A 
ATOM     24  C   UNL     1       8.686  13.473  18.366  0.00  0.00    +0.000 A 
ATOM     25  C   UNL     1       9.882  12.730  18.303  0.00  0.00    +0.000 A 
ATOM     26  H   UNL     1      13.033  12.662  17.735  0.00  0.00    +0.000 HD
ENDBRANCH  16  17
ENDBRANCH  15  16
ENDBRANCH   2  15
TORSDOF 4
ENDMDL
MODEL 7
REMARK VINA RESULT:      -8.3      5.887      7.994
REMARK  Name = 
REMARK  4 active torsions:
REMARK  status: ('A' for Active; 'I' for Inactive)
REMARK    1  A    between atoms: C_2  and  C_3
REMARK    2  A    between atoms: C_3  and  C_4
REMARK    3  A    between atoms: C_4  and  C_5
REMARK    4  A    between atoms: N_14  and  C_15
REMARK                            x       y       z     vdW  Elec       q    Type
REMARK                         _______ _______ _______ _____ _____    ______ ____
ROOT
ATOM      1  O   UNL     1       8.401   7.263  18.793  0.00  0.00    +0.000 OA
ATOM      2  C   UNL     1       7.912   8.079  18.017  0.00  0.00    +0.000 C 
ATOM      3  N   UNL     1       6.824   7.856  17.183  0.00  0.00    +0.000 N 
ATOM      4  H   UNL     1       6.643   8.552  16.470  0.00  0.00    +0.000 HD
ENDROOT
BRANCH   3   5
ATOM      5  C   UNL     1       6.068   6.665  17.109  0.00  0.00    +0.000 A 
ATOM      6  C   UNL     1       6.539   5.498  16.514  0.00  0.00    +0.000 A 
ATOM      7  C   UNL     1       5.721   4.366  16.424  0.00  0.00    +0.000 A 
ATOM      8  C   UNL     1       4.426   4.360  16.910  0.00  0.00    +0.000 A 
ATOM      9  N   UNL     1       3.670   3.260  16.754  0.00  0.00    +0.000 NA
ATOM     10  C   UNL     1       2.404   3.288  17.222  0.00  0.00    +0.000 A 
ATOM     11  C   UNL     1       1.847   4.375  17.867  0.00  0.00    +0.000 A 
ATOM     12  C   UNL     1       2.636   5.508  18.036  0.00  0.00    +0.000 A 
ATOM     13  C   UNL     1       3.952   5.525  17.547  0.00  0.00    +0.000 A 
ATOM     14  C   UNL     1       4.781   6.662  17.660  0.00  0.00    +0.000 A 
ENDBRANCH   3   5
BRANCH   2  15
ATOM     15  C   UNL     1       8.459   9.489  17.902  0.00  0.00    +0.000 C 
BRANCH  15  16
ATOM     16  C   UNL     1       9.379   9.820  19.077  0.00  0.00    +0.000 C 
BRANCH  16  17
ATOM     17  C   UNL     1       9.482  11.294  19.310  0.00  0.00    +0.000 A 
ATOM     18  C   UNL     1       8.963  11.982  20.391  0.00  0.00    +0.000 A 
ATOM     19  N   UNL     1       9.270  13.308  20.247  0.00  0.00    +0.000 N 
ATOM     20  C   UNL     1       9.976  13.509  19.085  0.00  0.00    +0.000 A 
ATOM     21  C   UNL     1      10.489  14.691  18.536  0.00  0.00    +0.000 A 
ATOM     22  C   UNL     1      11.182  14.596  17.327  0.00  0.00    +0.000 A 
ATOM     23  C   UNL     1      11.358  13.366  16.696  0.00  0.00    +0.000 A 
ATOM     24  C   UNL     1      10.840  12.194  17.260  0.00  0.00    +0.000 A 
ATOM     25  C   UNL     1      10.132  12.262  18.477  0.00  0.00    +0.000 A 
ATOM     26  H   UNL     1       9.017  14.038  20.898  0.00  0.00    +0.000 HD
ENDBRANCH  16  17
ENDBRANCH  15  16
ENDBRANCH   2  15
TORSDOF 4
ENDMDL
MODEL 8
REMARK VINA RESULT:      -8.3      0.834      1.636
REMARK  Name = 
REMARK  4 active torsions:
REMARK  status: ('A' for Active; 'I' for Inactive)
REMARK    1  A    between atoms: C_2  and  C_3
REMARK    2  A    between atoms: C_3  and  C_4
REMARK    3  A    between atoms: C_4  and  C_5
REMARK    4  A    between atoms: N_14  and  C_15
REMARK                            x       y       z     vdW  Elec       q    Type
REMARK                         _______ _______ _______ _____ _____    ______ ____
ROOT
ATOM      1  O   UNL     1       3.768   5.100  20.064  0.00  0.00    +0.000 OA
ATOM      2  C   UNL     1       3.883   5.174  18.844  0.00  0.00    +0.000 C 
ATOM      3  N   UNL     1       3.338   6.162  18.035  0.00  0.00    +0.000 N 
ATOM      4  H   UNL     1       3.359   6.000  17.036  0.00  0.00    +0.000 HD
ENDROOT
BRANCH   3   5
ATOM      5  C   UNL     1       2.587   7.274  18.477  0.00  0.00    +0.000 A 
ATOM      6  C   UNL     1       2.273   8.357  17.660  0.00  0.00    +0.000 A 
ATOM      7  C   UNL     1       1.571   9.454  18.171  0.00  0.00    +0.000 A 
ATOM      8  C   UNL     1       1.169   9.511  19.494  0.00  0.00    +0.000 A 
ATOM      9  N   UNL     1       0.539  10.610  19.943  0.00  0.00    +0.000 NA
ATOM     10  C   UNL     1       0.174  10.647  21.242  0.00  0.00    +0.000 A 
ATOM     11  C   UNL     1       0.394   9.613  22.131  0.00  0.00    +0.000 A 
ATOM     12  C   UNL     1       1.037   8.473  21.661  0.00  0.00    +0.000 A 
ATOM     13  C   UNL     1       1.449   8.404  20.320  0.00  0.00    +0.000 A 
ATOM     14  C   UNL     1       2.138   7.285  19.802  0.00  0.00    +0.000 A 
ENDBRANCH   3   5
BRANCH   2  15
ATOM     15  C   UNL     1       4.691   4.156  18.062  0.00  0.00    +0.000 C 
BRANCH  15  16
ATOM     16  C   UNL     1       4.401   4.255  16.565  0.00  0.00    +0.000 C 
BRANCH  16  17
ATOM     17  C   UNL     1       5.600   4.700  15.790  0.00  0.00    +0.000 A 
ATOM     18  C   UNL     1       6.611   5.519  16.258  0.00  0.00    +0.000 A 
ATOM     19  N   UNL     1       7.529   5.688  15.257  0.00  0.00    +0.000 N 
ATOM     20  C   UNL     1       7.137   5.002  14.132  0.00  0.00    +0.000 A 
ATOM     21  C   UNL     1       7.758   4.894  12.882  0.00  0.00    +0.000 A 
ATOM     22  C   UNL     1       7.128   4.112  11.911  0.00  0.00    +0.000 A 
ATOM     23  C   UNL     1       5.927   3.461  12.184  0.00  0.00    +0.000 A 
ATOM     24  C   UNL     1       5.321   3.577  13.440  0.00  0.00    +0.000 A 
ATOM     25  C   UNL     1       5.933   4.364  14.437  0.00  0.00    +0.000 A 
ATOM     26  H   UNL     1       8.374   6.236  15.328  0.00  0.00    +0.000 HD
ENDBRANCH  16  17
ENDBRANCH  15  16
ENDBRANCH   2  15
TORSDOF 4
ENDMDL
MODEL 9
REMARK VINA RESULT:      -8.2      3.919      8.855
REMARK  Name = 
REMARK  4 active torsions:
REMARK  status: ('A' for Active; 'I' for Inactive)
REMARK    1  A    between atoms: C_2  and  C_3
REMARK    2  A    between atoms: C_3  and  C_4
REMARK    3  A    between atoms: C_4  and  C_5
REMARK    4  A    between atoms: N_14  and  C_15
REMARK                            x       y       z     vdW  Elec       q    Type
REMARK                         _______ _______ _______ _____ _____    ______ ____
ROOT
ATOM      1  O   UNL     1       1.961   9.524  17.379  0.00  0.00    +0.000 OA
ATOM      2  C   UNL     1       1.502   9.644  18.511  0.00  0.00    +0.000 C 
ATOM      3  N   UNL     1       1.544   8.682  19.511  0.00  0.00    +0.000 N 
ATOM      4  H   UNL     1       0.971   8.847  20.330  0.00  0.00    +0.000 HD
ENDROOT
BRANCH   3   5
ATOM      5  C   UNL     1       2.153   7.411  19.414  0.00  0.00    +0.000 A 
ATOM      6  C   UNL     1       3.010   7.054  18.377  0.00  0.00    +0.000 A 
ATOM      7  C   UNL     1       3.541   5.761  18.307  0.00  0.00    +0.000 A 
ATOM      8  C   UNL     1       3.235   4.794  19.249  0.00  0.00    +0.000 A 
ATOM      9  N   UNL     1       3.735   3.555  19.106  0.00  0.00    +0.000 NA
ATOM     10  C   UNL     1       3.407   2.627  20.029  0.00  0.00    +0.000 A 
ATOM     11  C   UNL     1       2.601   2.882  21.121  0.00  0.00    +0.000 A 
ATOM     12  C   UNL     1       2.093   4.168  21.272  0.00  0.00    +0.000 A 
ATOM     13  C   UNL     1       2.397   5.157  20.323  0.00  0.00    +0.000 A 
ATOM     14  C   UNL     1       1.877   6.467  20.409  0.00  0.00    +0.000 A 
ENDBRANCH   3   5
BRANCH   2  15
ATOM     15  C   UNL     1       0.831  10.929  18.961  0.00  0.00    +0.000 C 
BRANCH  15  16
ATOM     16  C   UNL     1      -0.400  10.636  19.818  0.00  0.00    +0.000 C 
BRANCH  16  17
ATOM     17  C   UNL     1      -1.650  11.188  19.210  0.00  0.00    +0.000 A 
ATOM     18  C   UNL     1      -2.451  12.173  19.757  0.00  0.00    +0.000 A 
ATOM     19  N   UNL     1      -3.493  12.407  18.901  0.00  0.00    +0.000 N 
ATOM     20  C   UNL     1      -3.398  11.589  17.801  0.00  0.00    +0.000 A 
ATOM     21  C   UNL     1      -4.235  11.482  16.683  0.00  0.00    +0.000 A 
ATOM     22  C   UNL     1      -3.885  10.554  15.700  0.00  0.00    +0.000 A 
ATOM     23  C   UNL     1      -2.742   9.769  15.828  0.00  0.00    +0.000 A 
ATOM     24  C   UNL     1      -1.915   9.890  16.951  0.00  0.00    +0.000 A 
ATOM     25  C   UNL     1      -2.247  10.815  17.961  0.00  0.00    +0.000 A 
ATOM     26  H   UNL     1      -4.228  13.084  19.050  0.00  0.00    +0.000 HD
ENDBRANCH  16  17
ENDBRANCH  15  16
ENDBRANCH   2  15
TORSDOF 4
ENDMDL
