MODEL 1
REMARK VINA RESULT:      -8.6      0.000      0.000
REMARK  Name = 
REMARK  3 active torsions:
REMARK  status: ('A' for Active; 'I' for Inactive)
REMARK    1  A    between atoms: C_7  and  S_8
REMARK    2  A    between atoms: S_8  and  N_11
REMARK    3  A    between atoms: C_15  and  C_16
REMARK                            x       y       z     vdW  Elec       q    Type
REMARK                         _______ _______ _______ _____ _____    ______ ____
ROOT
ATOM      1  N   UNL     1       3.331   4.374  19.009  0.00  0.00    +0.000 NA
ATOM      2  C   UNL     1       2.429   3.237  19.157  0.00  0.00    +0.000 C 
ATOM      3  C   UNL     1       1.641   3.227  17.855  0.00  0.00    +0.000 C 
ATOM      4  C   UNL     1       1.653   4.663  17.344  0.00  0.00    +0.000 C 
ATOM      5  C   UNL     1       2.765   5.389  18.112  0.00  0.00    +0.000 C 
ENDROOT
BRANCH   5   6
ATOM      6  C   UNL     1       2.265   6.614  18.873  0.00  0.00    +0.000 A 
ATOM      7  C   UNL     1       2.002   6.506  20.247  0.00  0.00    +0.000 A 
ATOM      8  C   UNL     1       1.558   7.600  20.989  0.00  0.00    +0.000 A 
ATOM      9  C   UNL     1       1.322   8.817  20.352  0.00  0.00    +0.000 A 
ATOM     10  C   UNL     1       1.550   8.946  18.984  0.00  0.00    +0.000 A 
ATOM     11  C   UNL     1       2.042   7.861  18.251  0.00  0.00    +0.000 A 
ATOM     12  O   UNL     1       1.395  10.143  18.325  0.00  0.00    +0.000 OA
ATOM     13  C   UNL     1       0.038  10.595  18.337  0.00  0.00    +0.000 C 
ATOM     14  C   UNL     1      -0.363  11.271  19.643  0.00  0.00    +0.000 C 
ATOM     15  C   UNL     1      -0.392  10.284  20.799  0.00  0.00    +0.000 C 
ATOM     16  O   UNL     1       0.925   9.858  21.146  0.00  0.00    +0.000 OA
ENDBRANCH   5   6
BRANCH   1  17
ATOM     17  S   UNL     1       4.972   4.306  19.315  0.00  0.00    +0.000 S 
ATOM     18  O   UNL     1       5.276   2.948  19.718  0.00  0.00    +0.000 OA
ATOM     19  O   UNL     1       5.346   5.437  20.132  0.00  0.00    +0.000 OA
BRANCH  17  26
ATOM     20  O   UNL     1       7.619   4.950  11.750  0.00  0.00    +0.000 OA
ATOM     21  C   UNL     1       7.059   4.710  12.817  0.00  0.00    +0.000 C 
ATOM     22  C   UNL     1       5.808   3.869  12.909  0.00  0.00    +0.000 C 
ATOM     23  C   UNL     1       5.759   3.080  14.207  0.00  0.00    +0.000 C 
ATOM     24  C   UNL     1       6.008   3.980  15.388  0.00  0.00    +0.000 A 
ATOM     25  C   UNL     1       5.432   3.728  16.642  0.00  0.00    +0.000 A 
ATOM     26  C   UNL     1       5.755   4.552  17.724  0.00  0.00    +0.000 A 
ATOM     27  C   UNL     1       6.655   5.616  17.561  0.00  0.00    +0.000 A 
ATOM     28  C   UNL     1       7.243   5.855  16.317  0.00  0.00    +0.000 A 
ATOM     29  C   UNL     1       6.905   5.047  15.233  0.00  0.00    +0.000 A 
ATOM     30  N   UNL     1       7.476   5.302  13.983  0.00  0.00    +0.000 N 
ATOM     31  H   UNL     1       8.221   5.980  13.887  0.00  0.00    +0.000 HD
ENDBRANCH  17  26
ENDBRANCH   1  17
TORSDOF 3
ENDMDL
MODEL 2
REMARK VINA RESULT:      -8.4      4.277      9.830
REMARK  Name = 
REMARK  3 active torsions:
REMARK  status: ('A' for Active; 'I' for Inactive)
REMARK    1  A    between atoms: C_7  and  S_8
REMARK    2  A    between atoms: S_8  and  N_11
REMARK    3  A    between atoms: C_15  and  C_16
REMARK                            x       y       z     vdW  Elec       q    Type
REMARK                         _______ _______ _______ _____ _____    ______ ____
ROOT
ATOM      1  N   UNL     1       0.264   9.433  20.169  0.00  0.00    +0.000 NA
ATOM      2  C   UNL     1      -0.771   9.317  21.190  0.00  0.00    +0.000 C 
ATOM      3  C   UNL     1      -0.001   9.400  22.500  0.00  0.00    +0.000 C 
ATOM      4  C   UNL     1       1.409   8.911  22.191  0.00  0.00    +0.000 C 
ATOM      5  C   UNL     1       1.557   8.943  20.664  0.00  0.00    +0.000 C 
ENDROOT
BRANCH   5   6
ATOM      6  C   UNL     1       1.923   7.586  20.070  0.00  0.00    +0.000 A 
ATOM      7  C   UNL     1       2.492   7.531  18.789  0.00  0.00    +0.000 A 
ATOM      8  C   UNL     1       2.859   6.316  18.210  0.00  0.00    +0.000 A 
ATOM      9  C   UNL     1       2.615   5.124  18.890  0.00  0.00    +0.000 A 
ATOM     10  C   UNL     1       2.028   5.147  20.153  0.00  0.00    +0.000 A 
ATOM     11  C   UNL     1       1.706   6.370  20.753  0.00  0.00    +0.000 A 
ATOM     12  O   UNL     1       1.828   4.004  20.891  0.00  0.00    +0.000 OA
ATOM     13  C   UNL     1       0.901   3.112  20.264  0.00  0.00    +0.000 C 
ATOM     14  C   UNL     1       1.523   2.277  19.151  0.00  0.00    +0.000 C 
ATOM     15  C   UNL     1       1.923   3.137  17.962  0.00  0.00    +0.000 C 
ATOM     16  O   UNL     1       3.034   3.973  18.282  0.00  0.00    +0.000 OA
ENDBRANCH   5   6
BRANCH   1  17
ATOM     17  S   UNL     1       0.173  10.473  18.865  0.00  0.00    +0.000 S 
ATOM     18  O   UNL     1       0.138   9.657  17.669  0.00  0.00    +0.000 OA
ATOM     19  O   UNL     1       1.150  11.525  19.034  0.00  0.00    +0.000 OA
BRANCH  17  26
ATOM     20  O   UNL     1      -7.435  13.069  19.034  0.00  0.00    +0.000 OA
ATOM     21  C   UNL     1      -6.353  12.507  18.873  0.00  0.00    +0.000 C 
ATOM     22  C   UNL     1      -6.215  11.212  18.109  0.00  0.00    +0.000 C 
ATOM     23  C   UNL     1      -4.883  11.133  17.380  0.00  0.00    +0.000 C 
ATOM     24  C   UNL     1      -3.745  11.445  18.314  0.00  0.00    +0.000 A 
ATOM     25  C   UNL     1      -2.476  10.870  18.149  0.00  0.00    +0.000 A 
ATOM     26  C   UNL     1      -1.433  11.252  18.998  0.00  0.00    +0.000 A 
ATOM     27  C   UNL     1      -1.650  12.208  20.002  0.00  0.00    +0.000 A 
ATOM     28  C   UNL     1      -2.908  12.795  20.153  0.00  0.00    +0.000 A 
ATOM     29  C   UNL     1      -3.953  12.400  19.320  0.00  0.00    +0.000 A 
ATOM     30  N   UNL     1      -5.218  12.970  19.489  0.00  0.00    +0.000 N 
ATOM     31  H   UNL     1      -5.350  13.751  20.118  0.00  0.00    +0.000 HD
ENDBRANCH  17  26
ENDBRANCH   1  17
TORSDOF 3
ENDMDL
MODEL 3
REMARK VINA RESULT:      -8.4      4.225      9.641
REMARK  Name = 
REMARK  3 active torsions:
REMARK  status: ('A' for Active; 'I' for Inactive)
REMARK    1  A    between atoms: C_7  and  S_8
REMARK    2  A    between atoms: S_8  and  N_11
REMARK    3  A    between atoms: C_15  and  C_16
REMARK                            x       y       z     vdW  Elec       q    Type
REMARK                         _______ _______ _______ _____ _____    ______ ____
ROOT
ATOM      1  N   UNL     1       0.350   9.426  20.098  0.00  0.00    +0.000 NA
ATOM      2  C   UNL     1      -0.710   9.324  21.094  0.00  0.00    +0.000 C 
ATOM      3  C   UNL     1       0.031   9.384  22.422  0.00  0.00    +0.000 C 
ATOM      4  C   UNL     1       1.438   8.869  22.142  0.00  0.00    +0.000 C 
ATOM      5  C   UNL     1       1.621   8.908  20.619  0.00  0.00    +0.000 C 
ENDROOT
BRANCH   5   6
ATOM      6  C   UNL     1       1.975   7.548  20.025  0.00  0.00    +0.000 A 
ATOM      7  C   UNL     1       2.602   7.491  18.771  0.00  0.00    +0.000 A 
ATOM      8  C   UNL     1       2.960   6.273  18.194  0.00  0.00    +0.000 A 
ATOM      9  C   UNL     1       2.649   5.081  18.845  0.00  0.00    +0.000 A 
ATOM     10  C   UNL     1       2.004   5.107  20.080  0.00  0.00    +0.000 A 
ATOM     11  C   UNL     1       1.690   6.331  20.680  0.00  0.00    +0.000 A 
ATOM     12  O   UNL     1       1.737   3.962  20.792  0.00  0.00    +0.000 OA
ATOM     13  C   UNL     1       0.814   3.105  20.110  0.00  0.00    +0.000 C 
ATOM     14  C   UNL     1       1.463   2.265  19.017  0.00  0.00    +0.000 C 
ATOM     15  C   UNL     1       1.943   3.127  17.859  0.00  0.00    +0.000 C 
ATOM     16  O   UNL     1       3.062   3.926  18.242  0.00  0.00    +0.000 OA
ENDBRANCH   5   6
BRANCH   1  17
ATOM     17  S   UNL     1       0.310  10.477  18.800  0.00  0.00    +0.000 S 
ATOM     18  O   UNL     1       0.911   9.789  17.675  0.00  0.00    +0.000 OA
ATOM     19  O   UNL     1       0.780  11.774  19.229  0.00  0.00    +0.000 OA
BRANCH  17  26
ATOM     20  O   UNL     1      -7.416  12.307  17.531  0.00  0.00    +0.000 OA
ATOM     21  C   UNL     1      -6.239  12.204  17.870  0.00  0.00    +0.000 C 
ATOM     22  C   UNL     1      -5.567  13.194  18.791  0.00  0.00    +0.000 C 
ATOM     23  C   UNL     1      -4.514  12.524  19.660  0.00  0.00    +0.000 C 
ATOM     24  C   UNL     1      -3.576  11.699  18.819  0.00  0.00    +0.000 A 
ATOM     25  C   UNL     1      -2.235  11.509  19.183  0.00  0.00    +0.000 A 
ATOM     26  C   UNL     1      -1.425  10.672  18.409  0.00  0.00    +0.000 A 
ATOM     27  C   UNL     1      -1.951  10.021  17.283  0.00  0.00    +0.000 A 
ATOM     28  C   UNL     1      -3.292  10.196  16.932  0.00  0.00    +0.000 A 
ATOM     29  C   UNL     1      -4.093  11.046  17.692  0.00  0.00    +0.000 A 
ATOM     30  N   UNL     1      -5.429  11.239  17.325  0.00  0.00    +0.000 N 
ATOM     31  H   UNL     1      -5.848  10.675  16.598  0.00  0.00    +0.000 HD
ENDBRANCH  17  26
ENDBRANCH   1  17
TORSDOF 3
ENDMDL
MODEL 4
REMARK VINA RESULT:      -8.2      1.759      2.268
REMARK  Name = 
REMARK  3 active torsions:
REMARK  status: ('A' for Active; 'I' for Inactive)
REMARK    1  A    between atoms: C_7  and  S_8
REMARK    2  A    between atoms: S_8  and  N_11
REMARK    3  A    between atoms: C_15  and  C_16
REMARK                            x       y       z     vdW  Elec       q    Type
REMARK                         _______ _______ _______ _____ _____    ______ ____
ROOT
ATOM      1  N   UNL     1       2.818   3.569  19.251  0.00  0.00    +0.000 NA
ATOM      2  C   UNL     1       3.815   2.983  20.140  0.00  0.00    +0.000 C 
ATOM      3  C   UNL     1       3.005   2.526  21.344  0.00  0.00    +0.000 C 
ATOM      4  C   UNL     1       1.771   3.419  21.385  0.00  0.00    +0.000 C 
ATOM      5  C   UNL     1       1.670   4.087  20.007  0.00  0.00    +0.000 C 
ENDROOT
BRANCH   5   6
ATOM      6  C   UNL     1       1.670   5.611  20.081  0.00  0.00    +0.000 A 
ATOM      7  C   UNL     1       1.065   6.243  21.178  0.00  0.00    +0.000 A 
ATOM      8  C   UNL     1       1.053   7.632  21.299  0.00  0.00    +0.000 A 
ATOM      9  C   UNL     1       1.607   8.419  20.291  0.00  0.00    +0.000 A 
ATOM     10  C   UNL     1       2.192   7.820  19.179  0.00  0.00    +0.000 A 
ATOM     11  C   UNL     1       2.247   6.425  19.083  0.00  0.00    +0.000 A 
ATOM     12  O   UNL     1       2.812   8.550  18.192  0.00  0.00    +0.000 OA
ATOM     13  C   UNL     1       1.896   9.399  17.494  0.00  0.00    +0.000 C 
ATOM     14  C   UNL     1       1.578  10.690  18.240  0.00  0.00    +0.000 C 
ATOM     15  C   UNL     1       0.788  10.421  19.511  0.00  0.00    +0.000 C 
ATOM     16  O   UNL     1       1.595   9.772  20.492  0.00  0.00    +0.000 OA
ENDBRANCH   5   6
BRANCH   1  17
ATOM     17  S   UNL     1       2.691   3.207  17.625  0.00  0.00    +0.000 S 
ATOM     18  O   UNL     1       1.578   3.973  17.102  0.00  0.00    +0.000 OA
ATOM     19  O   UNL     1       2.768   1.774  17.455  0.00  0.00    +0.000 OA
BRANCH  17  26
ATOM     20  O   UNL     1       8.884   6.006  13.329  0.00  0.00    +0.000 OA
ATOM     21  C   UNL     1       7.871   5.484  13.789  0.00  0.00    +0.000 C 
ATOM     22  C   UNL     1       6.872   4.749  12.928  0.00  0.00    +0.000 C 
ATOM     23  C   UNL     1       6.226   3.597  13.680  0.00  0.00    +0.000 C 
ATOM     24  C   UNL     1       5.698   4.060  15.012  0.00  0.00    +0.000 A 
ATOM     25  C   UNL     1       4.574   3.468  15.606  0.00  0.00    +0.000 A 
ATOM     26  C   UNL     1       4.170   3.884  16.878  0.00  0.00    +0.000 A 
ATOM     27  C   UNL     1       4.888   4.878  17.560  0.00  0.00    +0.000 A 
ATOM     28  C   UNL     1       6.019   5.453  16.977  0.00  0.00    +0.000 A 
ATOM     29  C   UNL     1       6.410   5.053  15.700  0.00  0.00    +0.000 A 
ATOM     30  N   UNL     1       7.528   5.648  15.107  0.00  0.00    +0.000 N 
ATOM     31  H   UNL     1       8.125   6.265  15.641  0.00  0.00    +0.000 HD
ENDBRANCH  17  26
ENDBRANCH   1  17
TORSDOF 3
ENDMDL
MODEL 5
REMARK VINA RESULT:      -8.2      4.341      8.845
REMARK  Name = 
REMARK  3 active torsions:
REMARK  status: ('A' for Active; 'I' for Inactive)
REMARK    1  A    between atoms: C_7  and  S_8
REMARK    2  A    between atoms: S_8  and  N_11
REMARK    3  A    between atoms: C_15  and  C_16
REMARK                            x       y       z     vdW  Elec       q    Type
REMARK                         _______ _______ _______ _____ _____    ______ ____
ROOT
ATOM      1  N   UNL     1       0.087   9.407  20.339  0.00  0.00    +0.000 NA
ATOM      2  C   UNL     1      -0.755   9.281  21.524  0.00  0.00    +0.000 C 
ATOM      3  C   UNL     1       0.208   9.510  22.680  0.00  0.00    +0.000 C 
ATOM      4  C   UNL     1       1.586   9.110  22.166  0.00  0.00    +0.000 C 
ATOM      5  C   UNL     1       1.480   9.051  20.636  0.00  0.00    +0.000 C 
ENDROOT
BRANCH   5   6
ATOM      6  C   UNL     1       1.862   7.689  20.064  0.00  0.00    +0.000 A 
ATOM      7  C   UNL     1       2.446   7.622  18.790  0.00  0.00    +0.000 A 
ATOM      8  C   UNL     1       2.827   6.403  18.230  0.00  0.00    +0.000 A 
ATOM      9  C   UNL     1       2.581   5.217  18.921  0.00  0.00    +0.000 A 
ATOM     10  C   UNL     1       1.979   5.252  20.176  0.00  0.00    +0.000 A 
ATOM     11  C   UNL     1       1.642   6.480  20.758  0.00  0.00    +0.000 A 
ATOM     12  O   UNL     1       1.777   4.117  20.925  0.00  0.00    +0.000 OA
ATOM     13  C   UNL     1       0.862   3.213  20.298  0.00  0.00    +0.000 C 
ATOM     14  C   UNL     1       1.502   2.368  19.203  0.00  0.00    +0.000 C 
ATOM     15  C   UNL     1       1.911   3.215  18.009  0.00  0.00    +0.000 C 
ATOM     16  O   UNL     1       3.014   4.062  18.332  0.00  0.00    +0.000 OA
ENDBRANCH   5   6
BRANCH   1  17
ATOM     17  S   UNL     1      -0.304  10.347  19.015  0.00  0.00    +0.000 S 
ATOM     18  O   UNL     1      -1.732  10.586  19.067  0.00  0.00    +0.000 OA
ATOM     19  O   UNL     1       0.327   9.791  17.840  0.00  0.00    +0.000 OA
BRANCH  17  26
ATOM     20  O   UNL     1       3.634  17.350  19.354  0.00  0.00    +0.000 OA
ATOM     21  C   UNL     1       3.156  16.242  19.114  0.00  0.00    +0.000 C 
ATOM     22  C   UNL     1       3.506  15.457  17.873  0.00  0.00    +0.000 C 
ATOM     23  C   UNL     1       3.489  13.959  18.136  0.00  0.00    +0.000 C 
ATOM     24  C   UNL     1       2.205  13.551  18.807  0.00  0.00    +0.000 A 
ATOM     25  C   UNL     1       1.640  12.282  18.607  0.00  0.00    +0.000 A 
ATOM     26  C   UNL     1       0.487  11.925  19.312  0.00  0.00    +0.000 A 
ATOM     27  C   UNL     1      -0.096  12.823  20.219  0.00  0.00    +0.000 A 
ATOM     28  C   UNL     1       0.478  14.078  20.433  0.00  0.00    +0.000 A 
ATOM     29  C   UNL     1       1.616  14.442  19.715  0.00  0.00    +0.000 A 
ATOM     30  N   UNL     1       2.175  15.709  19.911  0.00  0.00    +0.000 N 
ATOM     31  H   UNL     1       1.842  16.307  20.655  0.00  0.00    +0.000 HD
ENDBRANCH  17  26
ENDBRANCH   1  17
TORSDOF 3
ENDMDL
MODEL 6
REMARK VINA RESULT:      -8.2      4.055      9.582
REMARK  Name = 
REMARK  3 active torsions:
REMARK  status: ('A' for Active; 'I' for Inactive)
REMARK    1  A    between atoms: C_7  and  S_8
REMARK    2  A    between atoms: S_8  and  N_11
REMARK    3  A    between atoms: C_15  and  C_16
REMARK                            x       y       z     vdW  Elec       q    Type
REMARK                         _______ _______ _______ _____ _____    ______ ____
ROOT
ATOM      1  N   UNL     1       0.330   9.465  20.196  0.00  0.00    +0.000 NA
ATOM      2  C   UNL     1      -0.716   9.423  21.212  0.00  0.00    +0.000 C 
ATOM      3  C   UNL     1       0.048   9.503  22.525  0.00  0.00    +0.000 C 
ATOM      4  C   UNL     1       1.436   8.939  22.239  0.00  0.00    +0.000 C 
ATOM      5  C   UNL     1       1.594   8.926  20.713  0.00  0.00    +0.000 C 
ENDROOT
BRANCH   5   6
ATOM      6  C   UNL     1       1.899   7.539  20.156  0.00  0.00    +0.000 A 
ATOM      7  C   UNL     1       1.488   6.407  20.876  0.00  0.00    +0.000 A 
ATOM      8  C   UNL     1       1.729   5.118  20.401  0.00  0.00    +0.000 A 
ATOM      9  C   UNL     1       2.435   4.939  19.213  0.00  0.00    +0.000 A 
ATOM     10  C   UNL     1       2.877   6.044  18.490  0.00  0.00    +0.000 A 
ATOM     11  C   UNL     1       2.591   7.337  18.943  0.00  0.00    +0.000 A 
ATOM     12  O   UNL     1       3.517   5.921  17.280  0.00  0.00    +0.000 OA
ATOM     13  C   UNL     1       4.777   5.254  17.401  0.00  0.00    +0.000 C 
ATOM     14  C   UNL     1       4.653   3.737  17.482  0.00  0.00    +0.000 C 
ATOM     15  C   UNL     1       3.985   3.298  18.775  0.00  0.00    +0.000 C 
ATOM     16  O   UNL     1       2.602   3.651  18.786  0.00  0.00    +0.000 OA
ENDBRANCH   5   6
BRANCH   1  17
ATOM     17  S   UNL     1       0.298  10.475  18.867  0.00  0.00    +0.000 S 
ATOM     18  O   UNL     1       0.899   9.751  17.765  0.00  0.00    +0.000 OA
ATOM     19  O   UNL     1       0.772  11.783  19.258  0.00  0.00    +0.000 OA
BRANCH  17  26
ATOM     20  O   UNL     1      -7.420  12.294  17.535  0.00  0.00    +0.000 OA
ATOM     21  C   UNL     1      -6.245  12.195  17.880  0.00  0.00    +0.000 C 
ATOM     22  C   UNL     1      -5.576  13.199  18.788  0.00  0.00    +0.000 C 
ATOM     23  C   UNL     1      -4.527  12.542  19.672  0.00  0.00    +0.000 C 
ATOM     24  C   UNL     1      -3.587  11.703  18.849  0.00  0.00    +0.000 A 
ATOM     25  C   UNL     1      -2.247  11.517  19.222  0.00  0.00    +0.000 A 
ATOM     26  C   UNL     1      -1.436  10.667  18.465  0.00  0.00    +0.000 A 
ATOM     27  C   UNL     1      -1.958   9.998  17.348  0.00  0.00    +0.000 A 
ATOM     28  C   UNL     1      -3.297  10.168  16.989  0.00  0.00    +0.000 A 
ATOM     29  C   UNL     1      -4.100  11.031  17.731  0.00  0.00    +0.000 A 
ATOM     30  N   UNL     1      -5.434  11.220  17.355  0.00  0.00    +0.000 N 
ATOM     31  H   UNL     1      -5.851  10.645  16.636  0.00  0.00    +0.000 HD
ENDBRANCH  17  26
ENDBRANCH   1  17
TORSDOF 3
ENDMDL
MODEL 7
REMARK VINA RESULT:      -8.1      4.155      9.731
REMARK  Name = 
REMARK  3 active torsions:
REMARK  status: ('A' for Active; 'I' for Inactive)
REMARK    1  A    between atoms: C_7  and  S_8
REMARK    2  A    between atoms: S_8  and  N_11
REMARK    3  A    between atoms: C_15  and  C_16
REMARK                            x       y       z     vdW  Elec       q    Type
REMARK                         _______ _______ _______ _____ _____    ______ ____
ROOT
ATOM      1  N   UNL     1       0.274   9.428  20.240  0.00  0.00    +0.000 NA
ATOM      2  C   UNL     1      -0.770   9.336  21.254  0.00  0.00    +0.000 C 
ATOM      3  C   UNL     1      -0.008   9.415  22.569  0.00  0.00    +0.000 C 
ATOM      4  C   UNL     1       1.396   8.899  22.274  0.00  0.00    +0.000 C 
ATOM      5  C   UNL     1       1.555   8.919  20.747  0.00  0.00    +0.000 C 
ENDROOT
BRANCH   5   6
ATOM      6  C   UNL     1       1.902   7.552  20.165  0.00  0.00    +0.000 A 
ATOM      7  C   UNL     1       1.516   6.395  20.859  0.00  0.00    +0.000 A 
ATOM      8  C   UNL     1       1.796   5.123  20.360  0.00  0.00    +0.000 A 
ATOM      9  C   UNL     1       2.515   4.988  19.175  0.00  0.00    +0.000 A 
ATOM     10  C   UNL     1       2.934   6.119  18.478  0.00  0.00    +0.000 A 
ATOM     11  C   UNL     1       2.609   7.394  18.954  0.00  0.00    +0.000 A 
ATOM     12  O   UNL     1       3.587   6.038  17.271  0.00  0.00    +0.000 OA
ATOM     13  C   UNL     1       4.863   5.403  17.390  0.00  0.00    +0.000 C 
ATOM     14  C   UNL     1       4.780   3.882  17.439  0.00  0.00    +0.000 C 
ATOM     15  C   UNL     1       4.114   3.399  18.718  0.00  0.00    +0.000 C 
ATOM     16  O   UNL     1       2.722   3.714  18.724  0.00  0.00    +0.000 OA
ENDBRANCH   5   6
BRANCH   1  17
ATOM     17  S   UNL     1       0.211  10.462  18.929  0.00  0.00    +0.000 S 
ATOM     18  O   UNL     1       0.201   9.639  17.737  0.00  0.00    +0.000 OA
ATOM     19  O   UNL     1       1.185  11.513  19.112  0.00  0.00    +0.000 OA
BRANCH  17  26
ATOM     20  O   UNL     1      -7.400  13.054  18.947  0.00  0.00    +0.000 OA
ATOM     21  C   UNL     1      -6.316  12.490  18.812  0.00  0.00    +0.000 C 
ATOM     22  C   UNL     1      -6.168  11.177  18.081  0.00  0.00    +0.000 C 
ATOM     23  C   UNL     1      -4.827  11.081  17.369  0.00  0.00    +0.000 C 
ATOM     24  C   UNL     1      -3.700  11.417  18.309  0.00  0.00    +0.000 A 
ATOM     25  C   UNL     1      -2.429  10.839  18.172  0.00  0.00    +0.000 A 
ATOM     26  C   UNL     1      -1.397  11.241  19.025  0.00  0.00    +0.000 A 
ATOM     27  C   UNL     1      -1.626  12.221  20.002  0.00  0.00    +0.000 A 
ATOM     28  C   UNL     1      -2.886  12.811  20.125  0.00  0.00    +0.000 A 
ATOM     29  C   UNL     1      -3.921  12.395  19.290  0.00  0.00    +0.000 A 
ATOM     30  N   UNL     1      -5.188  12.968  19.430  0.00  0.00    +0.000 N 
ATOM     31  H   UNL     1      -5.328  13.763  20.039  0.00  0.00    +0.000 HD
ENDBRANCH  17  26
ENDBRANCH   1  17
TORSDOF 3
ENDMDL
MODEL 8
REMARK VINA RESULT:      -8.1      3.983      8.729
REMARK  Name = 
REMARK  3 active torsions:
REMARK  status: ('A' for Active; 'I' for Inactive)
REMARK    1  A    between atoms: C_7  and  S_8
REMARK    2  A    between atoms: S_8  and  N_11
REMARK    3  A    between atoms: C_15  and  C_16
REMARK                            x       y       z     vdW  Elec       q    Type
REMARK                         _______ _______ _______ _____ _____    ______ ____
ROOT
ATOM      1  N   UNL     1       0.648   9.193  19.726  0.00  0.00    +0.000 NA
ATOM      2  C   UNL     1      -0.357   9.485  20.742  0.00  0.00    +0.000 C 
ATOM      3  C   UNL     1       0.453   9.650  22.019  0.00  0.00    +0.000 C 
ATOM      4  C   UNL     1       1.723   8.830  21.821  0.00  0.00    +0.000 C 
ATOM      5  C   UNL     1       1.828   8.547  20.316  0.00  0.00    +0.000 C 
ENDROOT
BRANCH   5   6
ATOM      6  C   UNL     1       1.890   7.057  19.992  0.00  0.00    +0.000 A 
ATOM      7  C   UNL     1       1.372   6.134  20.914  0.00  0.00    +0.000 A 
ATOM      8  C   UNL     1       1.391   4.764  20.656  0.00  0.00    +0.000 A 
ATOM      9  C   UNL     1       1.979   4.288  19.486  0.00  0.00    +0.000 A 
ATOM     10  C   UNL     1       2.525   5.179  18.565  0.00  0.00    +0.000 A 
ATOM     11  C   UNL     1       2.460   6.557  18.802  0.00  0.00    +0.000 A 
ATOM     12  O   UNL     1       3.054   4.763  17.367  0.00  0.00    +0.000 OA
ATOM     13  C   UNL     1       4.211   3.939  17.545  0.00  0.00    +0.000 C 
ATOM     14  C   UNL     1       3.875   2.493  17.890  0.00  0.00    +0.000 C 
ATOM     15  C   UNL     1       3.242   2.379  19.268  0.00  0.00    +0.000 C 
ATOM     16  O   UNL     1       1.929   2.937  19.280  0.00  0.00    +0.000 OA
ENDBRANCH   5   6
BRANCH   1  17
ATOM     17  S   UNL     1       0.733   9.968  18.249  0.00  0.00    +0.000 S 
ATOM     18  O   UNL     1      -0.592   9.921  17.665  0.00  0.00    +0.000 OA
ATOM     19  O   UNL     1       1.892   9.488  17.532  0.00  0.00    +0.000 OA
BRANCH  17  26
ATOM     20  O   UNL     1       2.891  17.656  19.196  0.00  0.00    +0.000 OA
ATOM     21  C   UNL     1       2.746  16.467  18.918  0.00  0.00    +0.000 C 
ATOM     22  C   UNL     1       3.636  15.747  17.933  0.00  0.00    +0.000 C 
ATOM     23  C   UNL     1       3.824  14.287  18.313  0.00  0.00    +0.000 C 
ATOM     24  C   UNL     1       2.494  13.628  18.568  0.00  0.00    +0.000 A 
ATOM     25  C   UNL     1       2.286  12.264  18.314  0.00  0.00    +0.000 A 
ATOM     26  C   UNL     1       1.057  11.685  18.639  0.00  0.00    +0.000 A 
ATOM     27  C   UNL     1       0.041  12.457  19.224  0.00  0.00    +0.000 A 
ATOM     28  C   UNL     1       0.256  13.810  19.495  0.00  0.00    +0.000 A 
ATOM     29  C   UNL     1       1.474  14.393  19.152  0.00  0.00    +0.000 A 
ATOM     30  N   UNL     1       1.678  15.753  19.401  0.00  0.00    +0.000 N 
ATOM     31  H   UNL     1       1.005  16.283  19.939  0.00  0.00    +0.000 HD
ENDBRANCH  17  26
ENDBRANCH   1  17
TORSDOF 3
ENDMDL
MODEL 9
REMARK VINA RESULT:      -8.1      4.368      8.835
REMARK  Name = 
REMARK  3 active torsions:
REMARK  status: ('A' for Active; 'I' for Inactive)
REMARK    1  A    between atoms: C_7  and  S_8
REMARK    2  A    between atoms: S_8  and  N_11
REMARK    3  A    between atoms: C_15  and  C_16
REMARK                            x       y       z     vdW  Elec       q    Type
REMARK                         _______ _______ _______ _____ _____    ______ ____
ROOT
ATOM      1  N   UNL     1       0.071   9.486  20.459  0.00  0.00    +0.000 NA
ATOM      2  C   UNL     1      -0.791   9.301  21.621  0.00  0.00    +0.000 C 
ATOM      3  C   UNL     1       0.155   9.447  22.803  0.00  0.00    +0.000 C 
ATOM      4  C   UNL     1       1.536   9.060  22.288  0.00  0.00    +0.000 C 
ATOM      5  C   UNL     1       1.455   9.094  20.755  0.00  0.00    +0.000 C 
ENDROOT
BRANCH   5   6
ATOM      6  C   UNL     1       1.828   7.764  20.108  0.00  0.00    +0.000 A 
ATOM      7  C   UNL     1       2.358   7.760  18.809  0.00  0.00    +0.000 A 
ATOM      8  C   UNL     1       2.729   6.572  18.180  0.00  0.00    +0.000 A 
ATOM      9  C   UNL     1       2.528   5.354  18.828  0.00  0.00    +0.000 A 
ATOM     10  C   UNL     1       1.979   5.326  20.108  0.00  0.00    +0.000 A 
ATOM     11  C   UNL     1       1.653   6.523  20.757  0.00  0.00    +0.000 A 
ATOM     12  O   UNL     1       1.823   4.157  20.814  0.00  0.00    +0.000 OA
ATOM     13  C   UNL     1       0.894   3.268  20.187  0.00  0.00    +0.000 C 
ATOM     14  C   UNL     1       1.497   2.480  19.030  0.00  0.00    +0.000 C 
ATOM     15  C   UNL     1       1.844   3.385  17.858  0.00  0.00    +0.000 C 
ATOM     16  O   UNL     1       2.949   4.232  18.171  0.00  0.00    +0.000 OA
ENDBRANCH   5   6
BRANCH   1  17
ATOM     17  S   UNL     1      -0.286  10.510  19.188  0.00  0.00    +0.000 S 
ATOM     18  O   UNL     1      -1.582  11.096  19.462  0.00  0.00    +0.000 OA
ATOM     19  O   UNL     1      -0.014   9.827  17.943  0.00  0.00    +0.000 OA
BRANCH  17  26
ATOM     20  O   UNL     1       4.956  16.394  20.782  0.00  0.00    +0.000 OA
ATOM     21  C   UNL     1       4.095  15.517  20.758  0.00  0.00    +0.000 C 
ATOM     22  C   UNL     1       3.347  15.076  21.993  0.00  0.00    +0.000 C 
ATOM     23  C   UNL     1       1.923  14.656  21.664  0.00  0.00    +0.000 C 
ATOM     24  C   UNL     1       1.909  13.670  20.526  0.00  0.00    +0.000 A 
ATOM     25  C   UNL     1       0.922  12.679  20.423  0.00  0.00    +0.000 A 
ATOM     26  C   UNL     1       0.909  11.837  19.307  0.00  0.00    +0.000 A 
ATOM     27  C   UNL     1       1.868  11.988  18.294  0.00  0.00    +0.000 A 
ATOM     28  C   UNL     1       2.838  12.988  18.388  0.00  0.00    +0.000 A 
ATOM     29  C   UNL     1       2.864  13.814  19.510  0.00  0.00    +0.000 A 
ATOM     30  N   UNL     1       3.851  14.798  19.614  0.00  0.00    +0.000 N 
ATOM     31  H   UNL     1       4.461  14.999  18.833  0.00  0.00    +0.000 HD
ENDBRANCH  17  26
ENDBRANCH   1  17
TORSDOF 3
ENDMDL
