MODEL 1
REMARK VINA RESULT:      -8.7      0.000      0.000
REMARK  Name = 
REMARK  6 active torsions:
REMARK  status: ('A' for Active; 'I' for Inactive)
REMARK    1  A    between atoms: C_2  and  C_19
REMARK    2  A    between atoms: N_3  and  C_4
REMARK    3  A    between atoms: C_4  and  C_5
REMARK    4  A    between atoms: C_8  and  O_9
REMARK    5  A    between atoms: O_9  and  C_10
REMARK    6  A    between atoms: C_10  and  C_11
REMARK                            x       y       z     vdW  Elec       q    Type
REMARK                         _______ _______ _______ _____ _____    ______ ____
ROOT
ATOM      1  O   UNL     1       3.860   4.511  16.126  0.00  0.00    +0.000 OA
ATOM      2  C   UNL     1       4.414   3.648  16.801  0.00  0.00    +0.000 C 
ATOM      3  N   UNL     1       5.701   3.213  16.567  0.00  0.00    +0.000 N 
ATOM      4  H   UNL     1       6.136   2.603  17.245  0.00  0.00    +0.000 HD
ENDROOT
BRANCH   2   5
ATOM      5  C   UNL     1       3.857   3.156  18.113  0.00  0.00    +0.000 A 
ATOM      6  C   UNL     1       3.502   1.865  18.036  0.00  0.00    +0.000 A 
ATOM      7  N   UNL     1       2.301   1.444  18.553  0.00  0.00    +0.000 N 
ATOM      8  C   UNL     1       1.325   2.319  18.968  0.00  0.00    +0.000 A 
ATOM      9  O   UNL     1       0.142   2.014  19.049  0.00  0.00    +0.000 OA
ATOM     10  C   UNL     1       1.801   3.682  19.343  0.00  0.00    +0.000 A 
ATOM     11  C   UNL     1       0.971   4.569  20.034  0.00  0.00    +0.000 A 
ATOM     12  C   UNL     1       1.517   5.740  20.560  0.00  0.00    +0.000 A 
ATOM     13  C   UNL     1       2.879   6.013  20.408  0.00  0.00    +0.000 A 
ATOM     14  C   UNL     1       3.687   5.160  19.640  0.00  0.00    +0.000 A 
ATOM     15  C   UNL     1       3.129   4.016  19.064  0.00  0.00    +0.000 A 
ATOM     16  H   UNL     1       1.966   0.515  18.312  0.00  0.00    +0.000 HD
ENDBRANCH   2   5
BRANCH   3  17
ATOM     17  C   UNL     1       6.622   4.024  15.816  0.00  0.00    +0.000 C 
BRANCH  17  18
ATOM     18  C   UNL     1       7.111   5.163  16.668  0.00  0.00    +0.000 A 
ATOM     19  C   UNL     1       7.163   6.459  16.140  0.00  0.00    +0.000 A 
ATOM     20  C   UNL     1       7.619   7.522  16.925  0.00  0.00    +0.000 A 
ATOM     21  C   UNL     1       8.028   7.301  18.240  0.00  0.00    +0.000 A 
ATOM     22  C   UNL     1       8.053   5.998  18.742  0.00  0.00    +0.000 A 
ATOM     23  C   UNL     1       7.586   4.937  17.965  0.00  0.00    +0.000 A 
BRANCH  21  24
ATOM     24  O   UNL     1       8.382   8.419  18.945  0.00  0.00    +0.000 OA
BRANCH  24  25
ATOM     25  C   UNL     1       8.514   9.603  18.150  0.00  0.00    +0.000 C 
BRANCH  25  26
ATOM     26  C   UNL     1       9.288  10.680  18.872  0.00  0.00    +0.000 A 
ATOM     27  C   UNL     1       9.811  11.753  18.136  0.00  0.00    +0.000 A 
ATOM     28  C   UNL     1      10.486  12.794  18.772  0.00  0.00    +0.000 A 
ATOM     29  C   UNL     1      10.641  12.775  20.157  0.00  0.00    +0.000 A 
ATOM     30  C   UNL     1      10.117  11.718  20.901  0.00  0.00    +0.000 A 
ATOM     31  C   UNL     1       9.439  10.678  20.266  0.00  0.00    +0.000 A 
ENDBRANCH  25  26
ENDBRANCH  24  25
ENDBRANCH  21  24
ENDBRANCH  17  18
ENDBRANCH   3  17
TORSDOF 6
ENDMDL
MODEL 2
REMARK VINA RESULT:      -8.6      4.658      8.543
REMARK  Name = 
REMARK  6 active torsions:
REMARK  status: ('A' for Active; 'I' for Inactive)
REMARK    1  A    between atoms: C_2  and  C_19
REMARK    2  A    between atoms: N_3  and  C_4
REMARK    3  A    between atoms: C_4  and  C_5
REMARK    4  A    between atoms: C_8  and  O_9
REMARK    5  A    between atoms: O_9  and  C_10
REMARK    6  A    between atoms: C_10  and  C_11
REMARK                            x       y       z     vdW  Elec       q    Type
REMARK                         _______ _______ _______ _____ _____    ______ ____
ROOT
ATOM      1  O   UNL     1       3.740   3.633  19.422  0.00  0.00    +0.000 OA
ATOM      2  C   UNL     1       4.259   4.627  18.923  0.00  0.00    +0.000 C 
ATOM      3  N   UNL     1       3.694   5.884  18.976  0.00  0.00    +0.000 N 
ATOM      4  H   UNL     1       4.241   6.674  18.665  0.00  0.00    +0.000 HD
ENDROOT
BRANCH   2   5
ATOM      5  C   UNL     1       5.684   4.644  18.430  0.00  0.00    +0.000 A 
ATOM      6  C   UNL     1       6.471   5.359  19.247  0.00  0.00    +0.000 A 
ATOM      7  N   UNL     1       7.373   6.258  18.729  0.00  0.00    +0.000 N 
ATOM      8  C   UNL     1       7.371   6.630  17.407  0.00  0.00    +0.000 A 
ATOM      9  O   UNL     1       7.862   7.677  17.004  0.00  0.00    +0.000 OA
ATOM     10  C   UNL     1       6.746   5.657  16.465  0.00  0.00    +0.000 A 
ATOM     11  C   UNL     1       6.920   5.778  15.083  0.00  0.00    +0.000 A 
ATOM     12  C   UNL     1       6.511   4.734  14.253  0.00  0.00    +0.000 A 
ATOM     13  C   UNL     1       5.947   3.578  14.800  0.00  0.00    +0.000 A 
ATOM     14  C   UNL     1       5.698   3.500  16.178  0.00  0.00    +0.000 A 
ATOM     15  C   UNL     1       6.054   4.569  17.005  0.00  0.00    +0.000 A 
ATOM     16  H   UNL     1       7.813   6.923  19.359  0.00  0.00    +0.000 HD
ENDBRANCH   2   5
BRANCH   3  17
ATOM     17  C   UNL     1       2.702   6.199  19.970  0.00  0.00    +0.000 C 
BRANCH  17  18
ATOM     18  C   UNL     1       2.045   7.510  19.636  0.00  0.00    +0.000 A 
ATOM     19  C   UNL     1       2.153   8.037  18.342  0.00  0.00    +0.000 A 
ATOM     20  C   UNL     1       1.547   9.256  18.025  0.00  0.00    +0.000 A 
ATOM     21  C   UNL     1       0.831   9.959  18.994  0.00  0.00    +0.000 A 
ATOM     22  C   UNL     1       0.789   9.476  20.303  0.00  0.00    +0.000 A 
ATOM     23  C   UNL     1       1.383   8.252  20.619  0.00  0.00    +0.000 A 
BRANCH  21  24
ATOM     24  O   UNL     1       0.212  11.100  18.559  0.00  0.00    +0.000 OA
BRANCH  24  25
ATOM     25  C   UNL     1      -1.047  11.366  19.187  0.00  0.00    +0.000 C 
BRANCH  25  26
ATOM     26  C   UNL     1      -2.193  11.275  18.208  0.00  0.00    +0.000 A 
ATOM     27  C   UNL     1      -1.971  10.692  16.951  0.00  0.00    +0.000 A 
ATOM     28  C   UNL     1      -3.014  10.542  16.039  0.00  0.00    +0.000 A 
ATOM     29  C   UNL     1      -4.297  10.969  16.378  0.00  0.00    +0.000 A 
ATOM     30  C   UNL     1      -4.533  11.540  17.629  0.00  0.00    +0.000 A 
ATOM     31  C   UNL     1      -3.489  11.688  18.542  0.00  0.00    +0.000 A 
ENDBRANCH  25  26
ENDBRANCH  24  25
ENDBRANCH  21  24
ENDBRANCH  17  18
ENDBRANCH   3  17
TORSDOF 6
ENDMDL
MODEL 3
REMARK VINA RESULT:      -8.5      1.812      2.674
REMARK  Name = 
REMARK  6 active torsions:
REMARK  status: ('A' for Active; 'I' for Inactive)
REMARK    1  A    between atoms: C_2  and  C_19
REMARK    2  A    between atoms: N_3  and  C_4
REMARK    3  A    between atoms: C_4  and  C_5
REMARK    4  A    between atoms: C_8  and  O_9
REMARK    5  A    between atoms: O_9  and  C_10
REMARK    6  A    between atoms: C_10  and  C_11
REMARK                            x       y       z     vdW  Elec       q    Type
REMARK                         _______ _______ _______ _____ _____    ______ ____
ROOT
ATOM      1  O   UNL     1       5.051   3.926  15.949  0.00  0.00    +0.000 OA
ATOM      2  C   UNL     1       4.716   4.226  17.091  0.00  0.00    +0.000 C 
ATOM      3  N   UNL     1       5.594   4.260  18.154  0.00  0.00    +0.000 N 
ATOM      4  H   UNL     1       5.277   4.647  19.031  0.00  0.00    +0.000 HD
ENDROOT
BRANCH   2   5
ATOM      5  C   UNL     1       3.378   4.843  17.415  0.00  0.00    +0.000 A 
ATOM      6  C   UNL     1       3.450   6.182  17.420  0.00  0.00    +0.000 A 
ATOM      7  N   UNL     1       2.865   6.903  18.433  0.00  0.00    +0.000 N 
ATOM      8  C   UNL     1       2.380   6.316  19.576  0.00  0.00    +0.000 A 
ATOM      9  O   UNL     1       2.229   6.922  20.629  0.00  0.00    +0.000 OA
ATOM     10  C   UNL     1       2.017   4.874  19.455  0.00  0.00    +0.000 A 
ATOM     11  C   UNL     1       1.265   4.234  20.444  0.00  0.00    +0.000 A 
ATOM     12  C   UNL     1       0.759   2.959  20.195  0.00  0.00    +0.000 A 
ATOM     13  C   UNL     1       0.992   2.336  18.966  0.00  0.00    +0.000 A 
ATOM     14  C   UNL     1       1.818   2.948  18.011  0.00  0.00    +0.000 A 
ATOM     15  C   UNL     1       2.373   4.202  18.282  0.00  0.00    +0.000 A 
ATOM     16  H   UNL     1       3.096   7.889  18.525  0.00  0.00    +0.000 HD
ENDBRANCH   2   5
BRANCH   3  17
ATOM     17  C   UNL     1       7.010   4.373  17.929  0.00  0.00    +0.000 C 
BRANCH  17  18
ATOM     18  C   UNL     1       7.427   5.816  18.017  0.00  0.00    +0.000 A 
ATOM     19  C   UNL     1       7.168   6.685  16.950  0.00  0.00    +0.000 A 
ATOM     20  C   UNL     1       7.554   8.027  17.023  0.00  0.00    +0.000 A 
ATOM     21  C   UNL     1       8.203   8.511  18.159  0.00  0.00    +0.000 A 
ATOM     22  C   UNL     1       8.533   7.629  19.190  0.00  0.00    +0.000 A 
ATOM     23  C   UNL     1       8.137   6.292  19.124  0.00  0.00    +0.000 A 
BRANCH  21  24
ATOM     24  O   UNL     1       8.467   9.854  18.161  0.00  0.00    +0.000 OA
BRANCH  24  25
ATOM     25  C   UNL     1       9.455  10.261  19.114  0.00  0.00    +0.000 C 
BRANCH  25  26
ATOM     26  C   UNL     1      10.074  11.589  18.747  0.00  0.00    +0.000 A 
ATOM     27  C   UNL     1       9.762  12.721  19.515  0.00  0.00    +0.000 A 
ATOM     28  C   UNL     1      10.352  13.954  19.241  0.00  0.00    +0.000 A 
ATOM     29  C   UNL     1      11.269  14.067  18.197  0.00  0.00    +0.000 A 
ATOM     30  C   UNL     1      11.595  12.946  17.434  0.00  0.00    +0.000 A 
ATOM     31  C   UNL     1      11.007  11.712  17.708  0.00  0.00    +0.000 A 
ENDBRANCH  25  26
ENDBRANCH  24  25
ENDBRANCH  21  24
ENDBRANCH  17  18
ENDBRANCH   3  17
TORSDOF 6
ENDMDL
MODEL 4
REMARK VINA RESULT:      -8.2      6.090      8.387
REMARK  Name = 
REMARK  6 active torsions:
REMARK  status: ('A' for Active; 'I' for Inactive)
REMARK    1  A    between atoms: C_2  and  C_19
REMARK    2  A    between atoms: N_3  and  C_4
REMARK    3  A    between atoms: C_4  and  C_5
REMARK    4  A    between atoms: C_8  and  O_9
REMARK    5  A    between atoms: O_9  and  C_10
REMARK    6  A    between atoms: C_10  and  C_11
REMARK                            x       y       z     vdW  Elec       q    Type
REMARK                         _______ _______ _______ _____ _____    ______ ____
ROOT
ATOM      1  O   UNL     1      -0.943  11.039  22.226  0.00  0.00    +0.000 OA
ATOM      2  C   UNL     1      -0.519  11.110  21.076  0.00  0.00    +0.000 C 
ATOM      3  N   UNL     1       0.485  10.301  20.588  0.00  0.00    +0.000 N 
ATOM      4  H   UNL     1       0.686  10.324  19.598  0.00  0.00    +0.000 HD
ENDROOT
BRANCH   2   5
ATOM      5  C   UNL     1      -1.215  11.899  19.996  0.00  0.00    +0.000 A 
ATOM      6  C   UNL     1      -1.729  13.039  20.482  0.00  0.00    +0.000 A 
ATOM      7  N   UNL     1      -3.005  13.423  20.145  0.00  0.00    +0.000 N 
ATOM      8  C   UNL     1      -3.882  12.590  19.495  0.00  0.00    +0.000 A 
ATOM      9  O   UNL     1      -5.097  12.732  19.536  0.00  0.00    +0.000 OA
ATOM     10  C   UNL     1      -3.258  11.491  18.701  0.00  0.00    +0.000 A 
ATOM     11  C   UNL     1      -4.008  10.752  17.782  0.00  0.00    +0.000 A 
ATOM     12  C   UNL     1      -3.348   9.891  16.904  0.00  0.00    +0.000 A 
ATOM     13  C   UNL     1      -1.956   9.782  16.938  0.00  0.00    +0.000 A 
ATOM     14  C   UNL     1      -1.219  10.462  17.919  0.00  0.00    +0.000 A 
ATOM     15  C   UNL     1      -1.883  11.280  18.836  0.00  0.00    +0.000 A 
ATOM     16  H   UNL     1      -3.441  14.175  20.673  0.00  0.00    +0.000 HD
ENDBRANCH   2   5
BRANCH   3  17
ATOM     17  C   UNL     1       0.798   9.054  21.232  0.00  0.00    +0.000 C 
BRANCH  17  18
ATOM     18  C   UNL     1       1.504   8.143  20.265  0.00  0.00    +0.000 A 
ATOM     19  C   UNL     1       1.898   6.862  20.671  0.00  0.00    +0.000 A 
ATOM     20  C   UNL     1       2.556   6.011  19.778  0.00  0.00    +0.000 A 
ATOM     21  C   UNL     1       2.829   6.431  18.477  0.00  0.00    +0.000 A 
ATOM     22  C   UNL     1       2.509   7.736  18.094  0.00  0.00    +0.000 A 
ATOM     23  C   UNL     1       1.840   8.582  18.980  0.00  0.00    +0.000 A 
BRANCH  21  24
ATOM     24  O   UNL     1       3.406   5.495  17.662  0.00  0.00    +0.000 OA
BRANCH  24  25
ATOM     25  C   UNL     1       4.419   6.011  16.792  0.00  0.00    +0.000 C 
BRANCH  25  26
ATOM     26  C   UNL     1       5.733   6.201  17.512  0.00  0.00    +0.000 A 
ATOM     27  C   UNL     1       6.530   7.312  17.195  0.00  0.00    +0.000 A 
ATOM     28  C   UNL     1       7.724   7.550  17.873  0.00  0.00    +0.000 A 
ATOM     29  C   UNL     1       8.133   6.681  18.883  0.00  0.00    +0.000 A 
ATOM     30  C   UNL     1       7.344   5.580  19.215  0.00  0.00    +0.000 A 
ATOM     31  C   UNL     1       6.149   5.341  18.538  0.00  0.00    +0.000 A 
ENDBRANCH  25  26
ENDBRANCH  24  25
ENDBRANCH  21  24
ENDBRANCH  17  18
ENDBRANCH   3  17
TORSDOF 6
ENDMDL
MODEL 5
REMARK VINA RESULT:      -8.2      4.542      8.416
REMARK  Name = 
REMARK  6 active torsions:
REMARK  status: ('A' for Active; 'I' for Inactive)
REMARK    1  A    between atoms: C_2  and  C_19
REMARK    2  A    between atoms: N_3  and  C_4
REMARK    3  A    between atoms: C_4  and  C_5
REMARK    4  A    between atoms: C_8  and  O_9
REMARK    5  A    between atoms: O_9  and  C_10
REMARK    6  A    between atoms: C_10  and  C_11
REMARK                            x       y       z     vdW  Elec       q    Type
REMARK                         _______ _______ _______ _____ _____    ______ ____
ROOT
ATOM      1  O   UNL     1       2.537   4.005  18.521  0.00  0.00    +0.000 OA
ATOM      2  C   UNL     1       3.460   4.784  18.740  0.00  0.00    +0.000 C 
ATOM      3  N   UNL     1       3.304   5.970  19.425  0.00  0.00    +0.000 N 
ATOM      4  H   UNL     1       4.130   6.491  19.685  0.00  0.00    +0.000 HD
ENDROOT
BRANCH   2   5
ATOM      5  C   UNL     1       4.906   4.418  18.520  0.00  0.00    +0.000 A 
ATOM      6  C   UNL     1       5.642   4.672  19.613  0.00  0.00    +0.000 A 
ATOM      7  N   UNL     1       6.858   5.300  19.498  0.00  0.00    +0.000 N 
ATOM      8  C   UNL     1       7.283   5.885  18.330  0.00  0.00    +0.000 A 
ATOM      9  O   UNL     1       8.133   6.765  18.292  0.00  0.00    +0.000 OA
ATOM     10  C   UNL     1       6.655   5.361  17.083  0.00  0.00    +0.000 A 
ATOM     11  C   UNL     1       7.187   5.665  15.826  0.00  0.00    +0.000 A 
ATOM     12  C   UNL     1       6.713   4.983  14.705  0.00  0.00    +0.000 A 
ATOM     13  C   UNL     1       5.729   4.000  14.842  0.00  0.00    +0.000 A 
ATOM     14  C   UNL     1       5.141   3.761  16.093  0.00  0.00    +0.000 A 
ATOM     15  C   UNL     1       5.574   4.484  17.208  0.00  0.00    +0.000 A 
ATOM     16  H   UNL     1       7.303   5.656  20.341  0.00  0.00    +0.000 HD
ENDBRANCH   2   5
BRANCH   3  17
ATOM     17  C   UNL     1       2.174   6.170  20.292  0.00  0.00    +0.000 C 
BRANCH  17  18
ATOM     18  C   UNL     1       1.652   7.573  20.134  0.00  0.00    +0.000 A 
ATOM     19  C   UNL     1       0.886   8.153  21.152  0.00  0.00    +0.000 A 
ATOM     20  C   UNL     1       0.396   9.455  21.012  0.00  0.00    +0.000 A 
ATOM     21  C   UNL     1       0.663  10.186  19.854  0.00  0.00    +0.000 A 
ATOM     22  C   UNL     1       1.358   9.581  18.804  0.00  0.00    +0.000 A 
ATOM     23  C   UNL     1       1.860   8.287  18.949  0.00  0.00    +0.000 A 
BRANCH  21  24
ATOM     24  O   UNL     1       0.204  11.475  19.850  0.00  0.00    +0.000 OA
BRANCH  24  25
ATOM     25  C   UNL     1      -0.246  11.939  18.573  0.00  0.00    +0.000 C 
BRANCH  25  26
ATOM     26  C   UNL     1      -1.669  11.519  18.292  0.00  0.00    +0.000 A 
ATOM     27  C   UNL     1      -1.906  10.477  17.384  0.00  0.00    +0.000 A 
ATOM     28  C   UNL     1      -3.201  10.025  17.137  0.00  0.00    +0.000 A 
ATOM     29  C   UNL     1      -4.277  10.609  17.803  0.00  0.00    +0.000 A 
ATOM     30  C   UNL     1      -4.054  11.639  18.717  0.00  0.00    +0.000 A 
ATOM     31  C   UNL     1      -2.758  12.090  18.966  0.00  0.00    +0.000 A 
ENDBRANCH  25  26
ENDBRANCH  24  25
ENDBRANCH  21  24
ENDBRANCH  17  18
ENDBRANCH   3  17
TORSDOF 6
ENDMDL
MODEL 6
REMARK VINA RESULT:      -8.2      4.937      7.414
REMARK  Name = 
REMARK  6 active torsions:
REMARK  status: ('A' for Active; 'I' for Inactive)
REMARK    1  A    between atoms: C_2  and  C_19
REMARK    2  A    between atoms: N_3  and  C_4
REMARK    3  A    between atoms: C_4  and  C_5
REMARK    4  A    between atoms: C_8  and  O_9
REMARK    5  A    between atoms: O_9  and  C_10
REMARK    6  A    between atoms: C_10  and  C_11
REMARK                            x       y       z     vdW  Elec       q    Type
REMARK                         _______ _______ _______ _____ _____    ______ ____
ROOT
ATOM      1  O   UNL     1      -0.565   8.063  21.727  0.00  0.00    +0.000 OA
ATOM      2  C   UNL     1       0.430   8.558  21.206  0.00  0.00    +0.000 C 
ATOM      3  N   UNL     1       1.568   7.838  20.910  0.00  0.00    +0.000 N 
ATOM      4  H   UNL     1       2.291   8.279  20.360  0.00  0.00    +0.000 HD
ENDROOT
BRANCH   2   5
ATOM      5  C   UNL     1       0.430   9.935  20.591  0.00  0.00    +0.000 A 
ATOM      6  C   UNL     1       0.748  10.871  21.498  0.00  0.00    +0.000 A 
ATOM      7  N   UNL     1       0.023  12.035  21.575  0.00  0.00    +0.000 N 
ATOM      8  C   UNL     1      -1.165  12.214  20.908  0.00  0.00    +0.000 A 
ATOM      9  O   UNL     1      -2.010  13.032  21.250  0.00  0.00    +0.000 OA
ATOM     10  C   UNL     1      -1.362  11.355  19.704  0.00  0.00    +0.000 A 
ATOM     11  C   UNL     1      -2.383  11.623  18.787  0.00  0.00    +0.000 A 
ATOM     12  C   UNL     1      -2.399  10.942  17.571  0.00  0.00    +0.000 A 
ATOM     13  C   UNL     1      -1.399  10.013  17.270  0.00  0.00    +0.000 A 
ATOM     14  C   UNL     1      -0.428   9.688  18.228  0.00  0.00    +0.000 A 
ATOM     15  C   UNL     1      -0.444  10.328  19.470  0.00  0.00    +0.000 A 
ATOM     16  H   UNL     1       0.151  12.635  22.386  0.00  0.00    +0.000 HD
ENDBRANCH   2   5
BRANCH   3  17
ATOM     17  C   UNL     1       1.516   6.405  20.789  0.00  0.00    +0.000 C 
BRANCH  17  18
ATOM     18  C   UNL     1       2.312   5.966  19.590  0.00  0.00    +0.000 A 
ATOM     19  C   UNL     1       2.605   4.609  19.404  0.00  0.00    +0.000 A 
ATOM     20  C   UNL     1       3.347   4.194  18.294  0.00  0.00    +0.000 A 
ATOM     21  C   UNL     1       3.802   5.127  17.363  0.00  0.00    +0.000 A 
ATOM     22  C   UNL     1       3.579   6.488  17.588  0.00  0.00    +0.000 A 
ATOM     23  C   UNL     1       2.828   6.903  18.688  0.00  0.00    +0.000 A 
BRANCH  21  24
ATOM     24  O   UNL     1       4.450   4.608  16.275  0.00  0.00    +0.000 OA
BRANCH  24  25
ATOM     25  C   UNL     1       5.798   4.199  16.527  0.00  0.00    +0.000 C 
BRANCH  25  26
ATOM     26  C   UNL     1       6.576   5.259  17.272  0.00  0.00    +0.000 A 
ATOM     27  C   UNL     1       7.068   4.969  18.553  0.00  0.00    +0.000 A 
ATOM     28  C   UNL     1       7.834   5.901  19.251  0.00  0.00    +0.000 A 
ATOM     29  C   UNL     1       8.122   7.135  18.671  0.00  0.00    +0.000 A 
ATOM     30  C   UNL     1       7.648   7.431  17.393  0.00  0.00    +0.000 A 
ATOM     31  C   UNL     1       6.883   6.498  16.693  0.00  0.00    +0.000 A 
ENDBRANCH  25  26
ENDBRANCH  24  25
ENDBRANCH  21  24
ENDBRANCH  17  18
ENDBRANCH   3  17
TORSDOF 6
ENDMDL
MODEL 7
REMARK VINA RESULT:      -8.1      1.832      2.695
REMARK  Name = 
REMARK  6 active torsions:
REMARK  status: ('A' for Active; 'I' for Inactive)
REMARK    1  A    between atoms: C_2  and  C_19
REMARK    2  A    between atoms: N_3  and  C_4
REMARK    3  A    between atoms: C_4  and  C_5
REMARK    4  A    between atoms: C_8  and  O_9
REMARK    5  A    between atoms: O_9  and  C_10
REMARK    6  A    between atoms: C_10  and  C_11
REMARK                            x       y       z     vdW  Elec       q    Type
REMARK                         _______ _______ _______ _____ _____    ______ ____
ROOT
ATOM      1  O   UNL     1       5.077   4.305  15.888  0.00  0.00    +0.000 OA
ATOM      2  C   UNL     1       4.710   4.488  17.045  0.00  0.00    +0.000 C 
ATOM      3  N   UNL     1       5.557   4.407  18.130  0.00  0.00    +0.000 N 
ATOM      4  H   UNL     1       5.215   4.703  19.034  0.00  0.00    +0.000 HD
ENDROOT
BRANCH   2   5
ATOM      5  C   UNL     1       3.365   5.075  17.392  0.00  0.00    +0.000 A 
ATOM      6  C   UNL     1       3.412   6.416  17.409  0.00  0.00    +0.000 A 
ATOM      7  N   UNL     1       2.826   7.116  18.437  0.00  0.00    +0.000 N 
ATOM      8  C   UNL     1       2.368   6.509  19.580  0.00  0.00    +0.000 A 
ATOM      9  O   UNL     1       2.220   7.102  20.642  0.00  0.00    +0.000 OA
ATOM     10  C   UNL     1       2.031   5.061  19.450  0.00  0.00    +0.000 A 
ATOM     11  C   UNL     1       1.304   4.399  20.444  0.00  0.00    +0.000 A 
ATOM     12  C   UNL     1       0.820   3.116  20.189  0.00  0.00    +0.000 A 
ATOM     13  C   UNL     1       1.048   2.509  18.951  0.00  0.00    +0.000 A 
ATOM     14  C   UNL     1       1.850   3.146  17.991  0.00  0.00    +0.000 A 
ATOM     15  C   UNL     1       2.384   4.407  18.267  0.00  0.00    +0.000 A 
ATOM     16  H   UNL     1       3.040   8.105  18.535  0.00  0.00    +0.000 HD
ENDBRANCH   2   5
BRANCH   3  17
ATOM     17  C   UNL     1       6.979   4.534  17.959  0.00  0.00    +0.000 C 
BRANCH  17  18
ATOM     18  C   UNL     1       7.372   5.985  18.016  0.00  0.00    +0.000 A 
ATOM     19  C   UNL     1       6.963   6.860  17.001  0.00  0.00    +0.000 A 
ATOM     20  C   UNL     1       7.325   8.210  17.045  0.00  0.00    +0.000 A 
ATOM     21  C   UNL     1       8.099   8.696  18.099  0.00  0.00    +0.000 A 
ATOM     22  C   UNL     1       8.575   7.810  19.068  0.00  0.00    +0.000 A 
ATOM     23  C   UNL     1       8.203   6.466  19.033  0.00  0.00    +0.000 A 
BRANCH  21  24
ATOM     24  O   UNL     1       8.332  10.045  18.088  0.00  0.00    +0.000 OA
BRANCH  24  25
ATOM     25  C   UNL     1       9.695  10.412  18.329  0.00  0.00    +0.000 C 
BRANCH  25  26
ATOM     26  C   UNL     1       9.806  11.507  19.364  0.00  0.00    +0.000 A 
ATOM     27  C   UNL     1       9.368  11.254  20.672  0.00  0.00    +0.000 A 
ATOM     28  C   UNL     1       9.501  12.220  21.668  0.00  0.00    +0.000 A 
ATOM     29  C   UNL     1      10.082  13.451  21.367  0.00  0.00    +0.000 A 
ATOM     30  C   UNL     1      10.531  13.710  20.072  0.00  0.00    +0.000 A 
ATOM     31  C   UNL     1      10.399  12.743  19.076  0.00  0.00    +0.000 A 
ENDBRANCH  25  26
ENDBRANCH  24  25
ENDBRANCH  21  24
ENDBRANCH  17  18
ENDBRANCH   3  17
TORSDOF 6
ENDMDL
MODEL 8
REMARK VINA RESULT:      -8.0      5.646      8.318
REMARK  Name = 
REMARK  6 active torsions:
REMARK  status: ('A' for Active; 'I' for Inactive)
REMARK    1  A    between atoms: C_2  and  C_19
REMARK    2  A    between atoms: N_3  and  C_4
REMARK    3  A    between atoms: C_4  and  C_5
REMARK    4  A    between atoms: C_8  and  O_9
REMARK    5  A    between atoms: O_9  and  C_10
REMARK    6  A    between atoms: C_10  and  C_11
REMARK                            x       y       z     vdW  Elec       q    Type
REMARK                         _______ _______ _______ _____ _____    ______ ____
ROOT
ATOM      1  O   UNL     1       0.401  10.239  22.660  0.00  0.00    +0.000 OA
ATOM      2  C   UNL     1       0.682  10.311  21.468  0.00  0.00    +0.000 C 
ATOM      3  N   UNL     1       1.274   9.284  20.765  0.00  0.00    +0.000 N 
ATOM      4  H   UNL     1       1.348   9.364  19.761  0.00  0.00    +0.000 HD
ENDROOT
BRANCH   2   5
ATOM      5  C   UNL     1       0.178  11.419  20.576  0.00  0.00    +0.000 A 
ATOM      6  C   UNL     1       0.132  12.587  21.234  0.00  0.00    +0.000 A 
ATOM      7  N   UNL     1      -0.969  13.402  21.122  0.00  0.00    +0.000 N 
ATOM      8  C   UNL     1      -2.140  12.989  20.534  0.00  0.00    +0.000 A 
ATOM      9  O   UNL     1      -3.225  13.507  20.764  0.00  0.00    +0.000 OA
ATOM     10  C   UNL     1      -2.010  11.865  19.562  0.00  0.00    +0.000 A 
ATOM     11  C   UNL     1      -3.058  11.535  18.698  0.00  0.00    +0.000 A 
ATOM     12  C   UNL     1      -2.824  10.634  17.659  0.00  0.00    +0.000 A 
ATOM     13  C   UNL     1      -1.554  10.079  17.480  0.00  0.00    +0.000 A 
ATOM     14  C   UNL     1      -0.531  10.350  18.401  0.00  0.00    +0.000 A 
ATOM     15  C   UNL     1      -0.779  11.208  19.475  0.00  0.00    +0.000 A 
ATOM     16  H   UNL     1      -1.069  14.176  21.774  0.00  0.00    +0.000 HD
ENDBRANCH   2   5
BRANCH   3  17
ATOM     17  C   UNL     1       1.207   7.931  21.252  0.00  0.00    +0.000 C 
BRANCH  17  18
ATOM     18  C   UNL     1       1.741   6.988  20.208  0.00  0.00    +0.000 A 
ATOM     19  C   UNL     1       1.731   5.607  20.444  0.00  0.00    +0.000 A 
ATOM     20  C   UNL     1       2.227   4.724  19.481  0.00  0.00    +0.000 A 
ATOM     21  C   UNL     1       2.737   5.210  18.277  0.00  0.00    +0.000 A 
ATOM     22  C   UNL     1       2.821   6.589  18.073  0.00  0.00    +0.000 A 
ATOM     23  C   UNL     1       2.315   7.471  19.028  0.00  0.00    +0.000 A 
BRANCH  21  24
ATOM     24  O   UNL     1       3.124   4.258  17.373  0.00  0.00    +0.000 OA
BRANCH  24  25
ATOM     25  C   UNL     1       4.365   3.615  17.684  0.00  0.00    +0.000 C 
BRANCH  25  26
ATOM     26  C   UNL     1       5.489   4.611  17.845  0.00  0.00    +0.000 A 
ATOM     27  C   UNL     1       6.034   4.823  19.120  0.00  0.00    +0.000 A 
ATOM     28  C   UNL     1       7.105   5.695  19.302  0.00  0.00    +0.000 A 
ATOM     29  C   UNL     1       7.650   6.361  18.205  0.00  0.00    +0.000 A 
ATOM     30  C   UNL     1       7.124   6.150  16.931  0.00  0.00    +0.000 A 
ATOM     31  C   UNL     1       6.053   5.277  16.748  0.00  0.00    +0.000 A 
ENDBRANCH  25  26
ENDBRANCH  24  25
ENDBRANCH  21  24
ENDBRANCH  17  18
ENDBRANCH   3  17
TORSDOF 6
ENDMDL
MODEL 9
REMARK VINA RESULT:      -8.0      4.814      6.691
REMARK  Name = 
REMARK  6 active torsions:
REMARK  status: ('A' for Active; 'I' for Inactive)
REMARK    1  A    between atoms: C_2  and  C_19
REMARK    2  A    between atoms: N_3  and  C_4
REMARK    3  A    between atoms: C_4  and  C_5
REMARK    4  A    between atoms: C_8  and  O_9
REMARK    5  A    between atoms: O_9  and  C_10
REMARK    6  A    between atoms: C_10  and  C_11
REMARK                            x       y       z     vdW  Elec       q    Type
REMARK                         _______ _______ _______ _____ _____    ______ ____
ROOT
ATOM      1  O   UNL     1       1.846   4.490  17.700  0.00  0.00    +0.000 OA
ATOM      2  C   UNL     1       2.945   4.902  18.059  0.00  0.00    +0.000 C 
ATOM      3  N   UNL     1       3.112   6.005  18.869  0.00  0.00    +0.000 N 
ATOM      4  H   UNL     1       4.033   6.203  19.233  0.00  0.00    +0.000 HD
ENDROOT
BRANCH   2   5
ATOM      5  C   UNL     1       4.214   4.109  17.877  0.00  0.00    +0.000 A 
ATOM      6  C   UNL     1       4.764   3.796  19.060  0.00  0.00    +0.000 A 
ATOM      7  N   UNL     1       6.115   3.951  19.259  0.00  0.00    +0.000 N 
ATOM      8  C   UNL     1       6.922   4.620  18.372  0.00  0.00    +0.000 A 
ATOM      9  O   UNL     1       7.998   5.115  18.685  0.00  0.00    +0.000 OA
ATOM     10  C   UNL     1       6.418   4.692  16.970  0.00  0.00    +0.000 A 
ATOM     11  C   UNL     1       7.253   5.093  15.923  0.00  0.00    +0.000 A 
ATOM     12  C   UNL     1       6.816   4.935  14.608  0.00  0.00    +0.000 A 
ATOM     13  C   UNL     1       5.565   4.371  14.343  0.00  0.00    +0.000 A 
ATOM     14  C   UNL     1       4.699   4.051  15.399  0.00  0.00    +0.000 A 
ATOM     15  C   UNL     1       5.112   4.261  16.717  0.00  0.00    +0.000 A 
ATOM     16  H   UNL     1       6.476   3.898  20.208  0.00  0.00    +0.000 HD
ENDBRANCH   2   5
BRANCH   3  17
ATOM     17  C   UNL     1       2.031   6.479  19.692  0.00  0.00    +0.000 C 
BRANCH  17  18
ATOM     18  C   UNL     1       1.783   7.937  19.416  0.00  0.00    +0.000 A 
ATOM     19  C   UNL     1       2.217   8.505  18.212  0.00  0.00    +0.000 A 
ATOM     20  C   UNL     1       1.992   9.860  17.950  0.00  0.00    +0.000 A 
ATOM     21  C   UNL     1       1.335  10.658  18.886  0.00  0.00    +0.000 A 
ATOM     22  C   UNL     1       0.973  10.113  20.120  0.00  0.00    +0.000 A 
ATOM     23  C   UNL     1       1.185   8.758  20.378  0.00  0.00    +0.000 A 
BRANCH  21  24
ATOM     24  O   UNL     1       1.097  11.949  18.498  0.00  0.00    +0.000 OA
BRANCH  24  25
ATOM     25  C   UNL     1       1.495  12.937  19.455  0.00  0.00    +0.000 C 
BRANCH  25  26
ATOM     26  C   UNL     1       2.064  14.167  18.787  0.00  0.00    +0.000 A 
ATOM     27  C   UNL     1       1.334  15.364  18.828  0.00  0.00    +0.000 A 
ATOM     28  C   UNL     1       1.847  16.533  18.269  0.00  0.00    +0.000 A 
ATOM     29  C   UNL     1       3.104  16.519  17.667  0.00  0.00    +0.000 A 
ATOM     30  C   UNL     1       3.845  15.337  17.630  0.00  0.00    +0.000 A 
ATOM     31  C   UNL     1       3.332  14.168  18.191  0.00  0.00    +0.000 A 
ENDBRANCH  25  26
ENDBRANCH  24  25
ENDBRANCH  21  24
ENDBRANCH  17  18
ENDBRANCH   3  17
TORSDOF 6
ENDMDL
