MODEL 1
REMARK VINA RESULT:      -8.7      0.000      0.000
REMARK  Name = 
REMARK  7 active torsions:
REMARK  status: ('A' for Active; 'I' for Inactive)
REMARK    1  A    between atoms: C_2  and  C_3
REMARK    2  A    between atoms: C_3  and  C_4
REMARK    3  A    between atoms: C_4  and  C_5
REMARK    4  A    between atoms: C_5  and  N_6
REMARK    5  A    between atoms: C_7  and  C_9
REMARK    6  A    between atoms: N_15  and  C_16
REMARK    7  A    between atoms: C_21  and  C_22
REMARK                            x       y       z     vdW  Elec       q    Type
REMARK                         _______ _______ _______ _____ _____    ______ ____
ROOT
ATOM      1  O   UNL     1       3.630   3.305  16.706  0.00  0.00    +0.000 OA
ATOM      2  C   UNL     1       4.332   4.255  17.041  0.00  0.00    +0.000 C 
ATOM      3  N   UNL     1       4.398   4.775  18.325  0.00  0.00    +0.000 N 
ATOM      4  H   UNL     1       4.562   5.778  18.404  0.00  0.00    +0.000 HD
ENDROOT
BRANCH   3   5
ATOM      5  C   UNL     1       3.710   4.188  19.415  0.00  0.00    +0.000 A 
ATOM      6  C   UNL     1       3.931   2.839  19.743  0.00  0.00    +0.000 A 
ATOM      7  C   UNL     1       3.289   2.249  20.837  0.00  0.00    +0.000 A 
ATOM      8  C   UNL     1       2.435   3.005  21.627  0.00  0.00    +0.000 A 
ATOM      9  C   UNL     1       2.213   4.343  21.311  0.00  0.00    +0.000 A 
ATOM     10  C   UNL     1       2.819   4.951  20.189  0.00  0.00    +0.000 A 
BRANCH  10  11
ATOM     11  C   UNL     1       2.369   6.298  19.808  0.00  0.00    +0.000 A 
ATOM     12  N   UNL     1       2.419   6.910  18.634  0.00  0.00    +0.000 NA
ATOM     13  C   UNL     1       1.924   8.188  18.861  0.00  0.00    +0.000 A 
ATOM     14  C   UNL     1       1.791   9.293  18.006  0.00  0.00    +0.000 A 
ATOM     15  C   UNL     1       1.296  10.499  18.538  0.00  0.00    +0.000 A 
ATOM     16  C   UNL     1       0.926  10.606  19.880  0.00  0.00    +0.000 A 
ATOM     17  C   UNL     1       1.016   9.509  20.734  0.00  0.00    +0.000 A 
ATOM     18  C   UNL     1       1.520   8.333  20.183  0.00  0.00    +0.000 A 
ATOM     19  N   UNL     1       1.734   7.104  20.727  0.00  0.00    +0.000 N 
ATOM     20  H   UNL     1       1.495   6.834  21.667  0.00  0.00    +0.000 HD
ENDBRANCH  10  11
ENDBRANCH   3   5
BRANCH   2  21
ATOM     21  C   UNL     1       5.225   4.991  16.054  0.00  0.00    +0.000 C 
BRANCH  21  22
ATOM     22  C   UNL     1       5.569   6.405  16.539  0.00  0.00    +0.000 C 
BRANCH  22  23
ATOM     23  C   UNL     1       7.055   6.553  16.846  0.00  0.00    +0.000 C 
BRANCH  23  24
ATOM     24  N   UNL     1       7.439   7.933  17.080  0.00  0.00    +0.000 N 
ATOM     25  C   UNL     1       8.200   8.257  18.192  0.00  0.00    +0.000 C 
ATOM     26  O   UNL     1       8.549   7.434  19.024  0.00  0.00    +0.000 OA
ATOM     27  H   UNL     1       7.369   8.597  16.319  0.00  0.00    +0.000 HD
BRANCH  25  28
ATOM     28  C   UNL     1       8.618   9.682  18.337  0.00  0.00    +0.000 A 
ATOM     29  C   UNL     1       8.110  10.697  17.514  0.00  0.00    +0.000 A 
ATOM     30  C   UNL     1       8.498  12.024  17.722  0.00  0.00    +0.000 A 
ATOM     31  C   UNL     1       9.389  12.345  18.748  0.00  0.00    +0.000 A 
ATOM     32  C   UNL     1       9.891  11.341  19.574  0.00  0.00    +0.000 A 
ATOM     33  C   UNL     1       9.504  10.013  19.373  0.00  0.00    +0.000 A 
ENDBRANCH  25  28
ENDBRANCH  23  24
ENDBRANCH  22  23
ENDBRANCH  21  22
ENDBRANCH   2  21
TORSDOF 7
ENDMDL
MODEL 2
REMARK VINA RESULT:      -8.5      3.642      7.671
REMARK  Name = 
REMARK  7 active torsions:
REMARK  status: ('A' for Active; 'I' for Inactive)
REMARK    1  A    between atoms: C_2  and  C_3
REMARK    2  A    between atoms: C_3  and  C_4
REMARK    3  A    between atoms: C_4  and  C_5
REMARK    4  A    between atoms: C_5  and  N_6
REMARK    5  A    between atoms: C_7  and  C_9
REMARK    6  A    between atoms: N_15  and  C_16
REMARK    7  A    between atoms: C_21  and  C_22
REMARK                            x       y       z     vdW  Elec       q    Type
REMARK                         _______ _______ _______ _____ _____    ______ ____
ROOT
ATOM      1  O   UNL     1       1.630   5.351  17.626  0.00  0.00    +0.000 OA
ATOM      2  C   UNL     1       2.208   6.211  18.287  0.00  0.00    +0.000 C 
ATOM      3  N   UNL     1       2.787   5.996  19.529  0.00  0.00    +0.000 N 
ATOM      4  H   UNL     1       2.771   6.779  20.182  0.00  0.00    +0.000 HD
ENDROOT
BRANCH   3   5
ATOM      5  C   UNL     1       2.841   4.713  20.127  0.00  0.00    +0.000 A 
ATOM      6  C   UNL     1       2.096   4.446  21.289  0.00  0.00    +0.000 A 
ATOM      7  C   UNL     1       2.106   3.176  21.875  0.00  0.00    +0.000 A 
ATOM      8  C   UNL     1       2.846   2.155  21.299  0.00  0.00    +0.000 A 
ATOM      9  C   UNL     1       3.584   2.409  20.145  0.00  0.00    +0.000 A 
ATOM     10  C   UNL     1       3.621   3.692  19.556  0.00  0.00    +0.000 A 
BRANCH  10  11
ATOM     11  C   UNL     1       4.585   3.926  18.471  0.00  0.00    +0.000 A 
ATOM     12  N   UNL     1       5.841   4.345  18.525  0.00  0.00    +0.000 NA
ATOM     13  C   UNL     1       6.252   4.455  17.203  0.00  0.00    +0.000 A 
ATOM     14  C   UNL     1       7.460   4.902  16.645  0.00  0.00    +0.000 A 
ATOM     15  C   UNL     1       7.574   4.955  15.242  0.00  0.00    +0.000 A 
ATOM     16  C   UNL     1       6.526   4.558  14.411  0.00  0.00    +0.000 A 
ATOM     17  C   UNL     1       5.334   4.075  14.947  0.00  0.00    +0.000 A 
ATOM     18  C   UNL     1       5.245   4.046  16.337  0.00  0.00    +0.000 A 
ATOM     19  N   UNL     1       4.245   3.642  17.167  0.00  0.00    +0.000 N 
ATOM     20  H   UNL     1       3.376   3.227  16.872  0.00  0.00    +0.000 HD
ENDBRANCH  10  11
ENDBRANCH   3   5
BRANCH   2  21
ATOM     21  C   UNL     1       2.349   7.647  17.804  0.00  0.00    +0.000 C 
BRANCH  21  22
ATOM     22  C   UNL     1       1.894   8.654  18.867  0.00  0.00    +0.000 C 
BRANCH  22  23
ATOM     23  C   UNL     1       1.688  10.044  18.278  0.00  0.00    +0.000 C 
BRANCH  23  24
ATOM     24  N   UNL     1       0.373  10.209  17.686  0.00  0.00    +0.000 N 
ATOM     25  C   UNL     1      -0.734  10.375  18.502  0.00  0.00    +0.000 C 
ATOM     26  O   UNL     1      -0.673  10.360  19.721  0.00  0.00    +0.000 OA
ATOM     27  H   UNL     1       0.304  10.450  16.704  0.00  0.00    +0.000 HD
BRANCH  25  28
ATOM     28  C   UNL     1      -2.046  10.606  17.828  0.00  0.00    +0.000 A 
ATOM     29  C   UNL     1      -3.053  11.394  18.404  0.00  0.00    +0.000 A 
ATOM     30  C   UNL     1      -4.245  11.619  17.709  0.00  0.00    +0.000 A 
ATOM     31  C   UNL     1      -4.439  11.065  16.443  0.00  0.00    +0.000 A 
ATOM     32  C   UNL     1      -3.438  10.287  15.863  0.00  0.00    +0.000 A 
ATOM     33  C   UNL     1      -2.243  10.062  16.551  0.00  0.00    +0.000 A 
ENDBRANCH  25  28
ENDBRANCH  23  24
ENDBRANCH  22  23
ENDBRANCH  21  22
ENDBRANCH   2  21
TORSDOF 7
ENDMDL
MODEL 3
REMARK VINA RESULT:      -8.4      2.819      5.493
REMARK  Name = 
REMARK  7 active torsions:
REMARK  status: ('A' for Active; 'I' for Inactive)
REMARK    1  A    between atoms: C_2  and  C_3
REMARK    2  A    between atoms: C_3  and  C_4
REMARK    3  A    between atoms: C_4  and  C_5
REMARK    4  A    between atoms: C_5  and  N_6
REMARK    5  A    between atoms: C_7  and  C_9
REMARK    6  A    between atoms: N_15  and  C_16
REMARK    7  A    between atoms: C_21  and  C_22
REMARK                            x       y       z     vdW  Elec       q    Type
REMARK                         _______ _______ _______ _____ _____    ______ ____
ROOT
ATOM      1  O   UNL     1       6.034   7.475  16.283  0.00  0.00    +0.000 OA
ATOM      2  C   UNL     1       6.969   6.857  16.786  0.00  0.00    +0.000 C 
ATOM      3  N   UNL     1       7.415   5.615  16.358  0.00  0.00    +0.000 N 
ATOM      4  H   UNL     1       7.790   4.993  17.073  0.00  0.00    +0.000 HD
ENDROOT
BRANCH   3   5
ATOM      5  C   UNL     1       6.876   4.969  15.219  0.00  0.00    +0.000 A 
ATOM      6  C   UNL     1       7.502   5.109  13.968  0.00  0.00    +0.000 A 
ATOM      7  C   UNL     1       7.008   4.451  12.837  0.00  0.00    +0.000 A 
ATOM      8  C   UNL     1       5.895   3.631  12.946  0.00  0.00    +0.000 A 
ATOM      9  C   UNL     1       5.270   3.483  14.182  0.00  0.00    +0.000 A 
ATOM     10  C   UNL     1       5.727   4.167  15.330  0.00  0.00    +0.000 A 
BRANCH  10  11
ATOM     11  C   UNL     1       4.891   4.122  16.539  0.00  0.00    +0.000 A 
ATOM     12  N   UNL     1       4.064   5.030  17.035  0.00  0.00    +0.000 NA
ATOM     13  C   UNL     1       3.594   4.492  18.226  0.00  0.00    +0.000 A 
ATOM     14  C   UNL     1       2.739   5.020  19.205  0.00  0.00    +0.000 A 
ATOM     15  C   UNL     1       2.477   4.252  20.356  0.00  0.00    +0.000 A 
ATOM     16  C   UNL     1       3.034   2.983  20.526  0.00  0.00    +0.000 A 
ATOM     17  C   UNL     1       3.854   2.427  19.548  0.00  0.00    +0.000 A 
ATOM     18  C   UNL     1       4.105   3.215  18.427  0.00  0.00    +0.000 A 
ATOM     19  N   UNL     1       4.847   2.981  17.310  0.00  0.00    +0.000 N 
ATOM     20  H   UNL     1       5.318   2.118  17.094  0.00  0.00    +0.000 HD
ENDBRANCH  10  11
ENDBRANCH   3   5
BRANCH   2  21
ATOM     21  C   UNL     1       7.756   7.397  17.970  0.00  0.00    +0.000 C 
BRANCH  21  22
ATOM     22  C   UNL     1       8.007   8.904  17.849  0.00  0.00    +0.000 C 
BRANCH  22  23
ATOM     23  C   UNL     1       8.942   9.413  18.940  0.00  0.00    +0.000 C 
BRANCH  23  24
ATOM     24  N   UNL     1       9.565  10.677  18.594  0.00  0.00    +0.000 N 
ATOM     25  C   UNL     1       9.747  11.645  19.569  0.00  0.00    +0.000 C 
ATOM     26  O   UNL     1       9.377  11.506  20.725  0.00  0.00    +0.000 OA
ATOM     27  H   UNL     1      10.081  10.748  17.725  0.00  0.00    +0.000 HD
BRANCH  25  28
ATOM     28  C   UNL     1      10.454  12.894  19.162  0.00  0.00    +0.000 A 
ATOM     29  C   UNL     1      11.245  13.630  20.056  0.00  0.00    +0.000 A 
ATOM     30  C   UNL     1      11.927  14.768  19.612  0.00  0.00    +0.000 A 
ATOM     31  C   UNL     1      11.825  15.175  18.281  0.00  0.00    +0.000 A 
ATOM     32  C   UNL     1      11.045  14.444  17.387  0.00  0.00    +0.000 A 
ATOM     33  C   UNL     1      10.365  13.304  17.824  0.00  0.00    +0.000 A 
ENDBRANCH  25  28
ENDBRANCH  23  24
ENDBRANCH  22  23
ENDBRANCH  21  22
ENDBRANCH   2  21
TORSDOF 7
ENDMDL
MODEL 4
REMARK VINA RESULT:      -8.3      1.474      2.052
REMARK  Name = 
REMARK  7 active torsions:
REMARK  status: ('A' for Active; 'I' for Inactive)
REMARK    1  A    between atoms: C_2  and  C_3
REMARK    2  A    between atoms: C_3  and  C_4
REMARK    3  A    between atoms: C_4  and  C_5
REMARK    4  A    between atoms: C_5  and  N_6
REMARK    5  A    between atoms: C_7  and  C_9
REMARK    6  A    between atoms: N_15  and  C_16
REMARK    7  A    between atoms: C_21  and  C_22
REMARK                            x       y       z     vdW  Elec       q    Type
REMARK                         _______ _______ _______ _____ _____    ______ ____
ROOT
ATOM      1  O   UNL     1       7.051   5.199  19.067  0.00  0.00    +0.000 OA
ATOM      2  C   UNL     1       6.329   5.703  18.210  0.00  0.00    +0.000 C 
ATOM      3  N   UNL     1       4.974   5.443  18.067  0.00  0.00    +0.000 N 
ATOM      4  H   UNL     1       4.602   5.469  17.118  0.00  0.00    +0.000 HD
ENDROOT
BRANCH   3   5
ATOM      5  C   UNL     1       4.261   4.620  18.973  0.00  0.00    +0.000 A 
ATOM      6  C   UNL     1       4.619   3.269  19.126  0.00  0.00    +0.000 A 
ATOM      7  C   UNL     1       3.953   2.447  20.041  0.00  0.00    +0.000 A 
ATOM      8  C   UNL     1       2.934   2.969  20.825  0.00  0.00    +0.000 A 
ATOM      9  C   UNL     1       2.576   4.307  20.682  0.00  0.00    +0.000 A 
ATOM     10  C   UNL     1       3.207   5.147  19.738  0.00  0.00    +0.000 A 
BRANCH  10  11
ATOM     11  C   UNL     1       2.630   6.479  19.505  0.00  0.00    +0.000 A 
ATOM     12  N   UNL     1       2.625   7.224  18.409  0.00  0.00    +0.000 NA
ATOM     13  C   UNL     1       2.006   8.413  18.771  0.00  0.00    +0.000 A 
ATOM     14  C   UNL     1       1.768   9.590  18.045  0.00  0.00    +0.000 A 
ATOM     15  C   UNL     1       1.155  10.674  18.702  0.00  0.00    +0.000 A 
ATOM     16  C   UNL     1       0.769  10.590  20.041  0.00  0.00    +0.000 A 
ATOM     17  C   UNL     1       0.962   9.417  20.767  0.00  0.00    +0.000 A 
ATOM     18  C   UNL     1       1.582   8.366  20.094  0.00  0.00    +0.000 A 
ATOM     19  N   UNL     1       1.913   7.109  20.499  0.00  0.00    +0.000 N 
ATOM     20  H   UNL     1       1.697   6.711  21.398  0.00  0.00    +0.000 HD
ENDBRANCH  10  11
ENDBRANCH   3   5
BRANCH   2  21
ATOM     21  C   UNL     1       6.859   6.686  17.178  0.00  0.00    +0.000 C 
BRANCH  21  22
ATOM     22  C   UNL     1       7.948   7.595  17.761  0.00  0.00    +0.000 C 
BRANCH  22  23
ATOM     23  C   UNL     1       7.438   9.011  17.998  0.00  0.00    +0.000 C 
BRANCH  23  24
ATOM     24  N   UNL     1       8.496  10.002  17.929  0.00  0.00    +0.000 N 
ATOM     25  C   UNL     1       9.182  10.358  19.079  0.00  0.00    +0.000 C 
ATOM     26  O   UNL     1       8.924   9.898  20.180  0.00  0.00    +0.000 OA
ATOM     27  H   UNL     1       8.890  10.237  17.026  0.00  0.00    +0.000 HD
BRANCH  25  28
ATOM     28  C   UNL     1      10.303  11.332  18.927  0.00  0.00    +0.000 A 
ATOM     29  C   UNL     1      10.962  11.527  17.705  0.00  0.00    +0.000 A 
ATOM     30  C   UNL     1      11.974  12.487  17.603  0.00  0.00    +0.000 A 
ATOM     31  C   UNL     1      12.332  13.253  18.713  0.00  0.00    +0.000 A 
ATOM     32  C   UNL     1      11.676  13.068  19.929  0.00  0.00    +0.000 A 
ATOM     33  C   UNL     1      10.661  12.113  20.035  0.00  0.00    +0.000 A 
ENDBRANCH  25  28
ENDBRANCH  23  24
ENDBRANCH  22  23
ENDBRANCH  21  22
ENDBRANCH   2  21
TORSDOF 7
ENDMDL
MODEL 5
REMARK VINA RESULT:      -8.3      3.448      7.823
REMARK  Name = 
REMARK  7 active torsions:
REMARK  status: ('A' for Active; 'I' for Inactive)
REMARK    1  A    between atoms: C_2  and  C_3
REMARK    2  A    between atoms: C_3  and  C_4
REMARK    3  A    between atoms: C_4  and  C_5
REMARK    4  A    between atoms: C_5  and  N_6
REMARK    5  A    between atoms: C_7  and  C_9
REMARK    6  A    between atoms: N_15  and  C_16
REMARK    7  A    between atoms: C_21  and  C_22
REMARK                            x       y       z     vdW  Elec       q    Type
REMARK                         _______ _______ _______ _____ _____    ______ ____
ROOT
ATOM      1  O   UNL     1       1.702   5.737  17.833  0.00  0.00    +0.000 OA
ATOM      2  C   UNL     1       2.365   6.501  18.531  0.00  0.00    +0.000 C 
ATOM      3  N   UNL     1       2.979   6.148  19.724  0.00  0.00    +0.000 N 
ATOM      4  H   UNL     1       3.043   6.875  20.437  0.00  0.00    +0.000 HD
ENDROOT
BRANCH   3   5
ATOM      5  C   UNL     1       2.971   4.820  20.216  0.00  0.00    +0.000 A 
ATOM      6  C   UNL     1       2.234   4.502  21.370  0.00  0.00    +0.000 A 
ATOM      7  C   UNL     1       2.182   3.190  21.853  0.00  0.00    +0.000 A 
ATOM      8  C   UNL     1       2.851   2.178  21.179  0.00  0.00    +0.000 A 
ATOM      9  C   UNL     1       3.579   2.484  20.032  0.00  0.00    +0.000 A 
ATOM     10  C   UNL     1       3.679   3.807  19.547  0.00  0.00    +0.000 A 
BRANCH  10  11
ATOM     11  C   UNL     1       4.633   4.074  18.461  0.00  0.00    +0.000 A 
ATOM     12  N   UNL     1       5.685   4.879  18.432  0.00  0.00    +0.000 NA
ATOM     13  C   UNL     1       6.181   4.795  17.138  0.00  0.00    +0.000 A 
ATOM     14  C   UNL     1       7.243   5.464  16.510  0.00  0.00    +0.000 A 
ATOM     15  C   UNL     1       7.485   5.211  15.146  0.00  0.00    +0.000 A 
ATOM     16  C   UNL     1       6.705   4.307  14.423  0.00  0.00    +0.000 A 
ATOM     17  C   UNL     1       5.671   3.606  15.039  0.00  0.00    +0.000 A 
ATOM     18  C   UNL     1       5.448   3.885  16.386  0.00  0.00    +0.000 A 
ATOM     19  N   UNL     1       4.539   3.389  17.269  0.00  0.00    +0.000 N 
ATOM     20  H   UNL     1       3.877   2.656  17.074  0.00  0.00    +0.000 HD
ENDBRANCH  10  11
ENDBRANCH   3   5
BRANCH   2  21
ATOM     21  C   UNL     1       2.583   7.959  18.157  0.00  0.00    +0.000 C 
BRANCH  21  22
ATOM     22  C   UNL     1       1.675   8.897  18.962  0.00  0.00    +0.000 C 
BRANCH  22  23
ATOM     23  C   UNL     1       1.393  10.193  18.212  0.00  0.00    +0.000 C 
BRANCH  23  24
ATOM     24  N   UNL     1       0.014  10.291  17.770  0.00  0.00    +0.000 N 
ATOM     25  C   UNL     1      -0.853  11.165  18.405  0.00  0.00    +0.000 C 
ATOM     26  O   UNL     1      -0.527  11.853  19.359  0.00  0.00    +0.000 OA
ATOM     27  H   UNL     1      -0.237   9.919  16.861  0.00  0.00    +0.000 HD
BRANCH  25  28
ATOM     28  C   UNL     1      -2.238  11.266  17.858  0.00  0.00    +0.000 A 
ATOM     29  C   UNL     1      -2.556  10.863  16.553  0.00  0.00    +0.000 A 
ATOM     30  C   UNL     1      -3.879  10.934  16.104  0.00  0.00    +0.000 A 
ATOM     31  C   UNL     1      -4.886  11.403  16.949  0.00  0.00    +0.000 A 
ATOM     32  C   UNL     1      -4.576  11.799  18.249  0.00  0.00    +0.000 A 
ATOM     33  C   UNL     1      -3.256  11.727  18.704  0.00  0.00    +0.000 A 
ENDBRANCH  25  28
ENDBRANCH  23  24
ENDBRANCH  22  23
ENDBRANCH  21  22
ENDBRANCH   2  21
TORSDOF 7
ENDMDL
MODEL 6
REMARK VINA RESULT:      -8.2      3.246      5.501
REMARK  Name = 
REMARK  7 active torsions:
REMARK  status: ('A' for Active; 'I' for Inactive)
REMARK    1  A    between atoms: C_2  and  C_3
REMARK    2  A    between atoms: C_3  and  C_4
REMARK    3  A    between atoms: C_4  and  C_5
REMARK    4  A    between atoms: C_5  and  N_6
REMARK    5  A    between atoms: C_7  and  C_9
REMARK    6  A    between atoms: N_15  and  C_16
REMARK    7  A    between atoms: C_21  and  C_22
REMARK                            x       y       z     vdW  Elec       q    Type
REMARK                         _______ _______ _______ _____ _____    ______ ____
ROOT
ATOM      1  O   UNL     1       3.281   4.383  16.813  0.00  0.00    +0.000 OA
ATOM      2  C   UNL     1       4.195   5.040  17.304  0.00  0.00    +0.000 C 
ATOM      3  N   UNL     1       4.419   5.188  18.665  0.00  0.00    +0.000 N 
ATOM      4  H   UNL     1       4.814   6.077  18.969  0.00  0.00    +0.000 HD
ENDROOT
BRANCH   3   5
ATOM      5  C   UNL     1       3.647   4.506  19.638  0.00  0.00    +0.000 A 
ATOM      6  C   UNL     1       3.886   3.146  19.899  0.00  0.00    +0.000 A 
ATOM      7  C   UNL     1       3.160   2.463  20.881  0.00  0.00    +0.000 A 
ATOM      8  C   UNL     1       2.200   3.134  21.623  0.00  0.00    +0.000 A 
ATOM      9  C   UNL     1       1.960   4.483  21.373  0.00  0.00    +0.000 A 
ATOM     10  C   UNL     1       2.652   5.185  20.362  0.00  0.00    +0.000 A 
BRANCH  10  11
ATOM     11  C   UNL     1       2.192   6.540  20.023  0.00  0.00    +0.000 A 
ATOM     12  N   UNL     1       2.222   7.184  18.866  0.00  0.00    +0.000 NA
ATOM     13  C   UNL     1       1.725   8.452  19.134  0.00  0.00    +0.000 A 
ATOM     14  C   UNL     1       1.575   9.579  18.312  0.00  0.00    +0.000 A 
ATOM     15  C   UNL     1       1.083  10.769  18.882  0.00  0.00    +0.000 A 
ATOM     16  C   UNL     1       0.731  10.838  20.231  0.00  0.00    +0.000 A 
ATOM     17  C   UNL     1       0.838   9.719  21.055  0.00  0.00    +0.000 A 
ATOM     18  C   UNL     1       1.339   8.560  20.465  0.00  0.00    +0.000 A 
ATOM     19  N   UNL     1       1.567   7.318  20.973  0.00  0.00    +0.000 N 
ATOM     20  H   UNL     1       1.342   7.021  21.908  0.00  0.00    +0.000 HD
ENDBRANCH  10  11
ENDBRANCH   3   5
BRANCH   2  21
ATOM     21  C   UNL     1       5.204   5.792  16.450  0.00  0.00    +0.000 C 
BRANCH  21  22
ATOM     22  C   UNL     1       6.642   5.571  16.936  0.00  0.00    +0.000 C 
BRANCH  22  23
ATOM     23  C   UNL     1       7.545   5.058  15.820  0.00  0.00    +0.000 C 
BRANCH  23  24
ATOM     24  N   UNL     1       6.825   4.264  14.842  0.00  0.00    +0.000 N 
ATOM     25  C   UNL     1       6.985   4.524  13.491  0.00  0.00    +0.000 C 
ATOM     26  O   UNL     1       7.690   5.425  13.064  0.00  0.00    +0.000 OA
ATOM     27  H   UNL     1       6.418   3.382  15.130  0.00  0.00    +0.000 HD
BRANCH  25  28
ATOM     28  C   UNL     1       6.270   3.627  12.537  0.00  0.00    +0.000 A 
ATOM     29  C   UNL     1       6.882   2.502  11.967  0.00  0.00    +0.000 A 
ATOM     30  C   UNL     1       6.152   1.666  11.116  0.00  0.00    +0.000 A 
ATOM     31  C   UNL     1       4.815   1.945  10.831  0.00  0.00    +0.000 A 
ATOM     32  C   UNL     1       4.199   3.058  11.400  0.00  0.00    +0.000 A 
ATOM     33  C   UNL     1       4.922   3.895  12.255  0.00  0.00    +0.000 A 
ENDBRANCH  25  28
ENDBRANCH  23  24
ENDBRANCH  22  23
ENDBRANCH  21  22
ENDBRANCH   2  21
TORSDOF 7
ENDMDL
MODEL 7
REMARK VINA RESULT:      -8.2      2.891      5.276
REMARK  Name = 
REMARK  7 active torsions:
REMARK  status: ('A' for Active; 'I' for Inactive)
REMARK    1  A    between atoms: C_2  and  C_3
REMARK    2  A    between atoms: C_3  and  C_4
REMARK    3  A    between atoms: C_4  and  C_5
REMARK    4  A    between atoms: C_5  and  N_6
REMARK    5  A    between atoms: C_7  and  C_9
REMARK    6  A    between atoms: N_15  and  C_16
REMARK    7  A    between atoms: C_21  and  C_22
REMARK                            x       y       z     vdW  Elec       q    Type
REMARK                         _______ _______ _______ _____ _____    ______ ____
ROOT
ATOM      1  O   UNL     1       5.736   5.790  19.308  0.00  0.00    +0.000 OA
ATOM      2  C   UNL     1       5.082   5.776  18.269  0.00  0.00    +0.000 C 
ATOM      3  N   UNL     1       3.861   5.135  18.113  0.00  0.00    +0.000 N 
ATOM      4  H   UNL     1       3.663   4.750  17.189  0.00  0.00    +0.000 HD
ENDROOT
BRANCH   3   5
ATOM      5  C   UNL     1       3.200   4.494  19.188  0.00  0.00    +0.000 A 
ATOM      6  C   UNL     1       3.337   3.107  19.373  0.00  0.00    +0.000 A 
ATOM      7  C   UNL     1       2.722   2.459  20.449  0.00  0.00    +0.000 A 
ATOM      8  C   UNL     1       1.979   3.191  21.363  0.00  0.00    +0.000 A 
ATOM      9  C   UNL     1       1.841   4.566  21.190  0.00  0.00    +0.000 A 
ATOM     10  C   UNL     1       2.419   5.237  20.091  0.00  0.00    +0.000 A 
BRANCH  10  11
ATOM     11  C   UNL     1       2.051   6.644  19.869  0.00  0.00    +0.000 A 
ATOM     12  N   UNL     1       2.085   7.366  18.759  0.00  0.00    +0.000 NA
ATOM     13  C   UNL     1       1.698   8.645  19.138  0.00  0.00    +0.000 A 
ATOM     14  C   UNL     1       1.602   9.838  18.404  0.00  0.00    +0.000 A 
ATOM     15  C   UNL     1       1.226  11.015  19.078  0.00  0.00    +0.000 A 
ATOM     16  C   UNL     1       0.935  11.010  20.443  0.00  0.00    +0.000 A 
ATOM     17  C   UNL     1       0.987   9.830  21.180  0.00  0.00    +0.000 A 
ATOM     18  C   UNL     1       1.375   8.683  20.489  0.00  0.00    +0.000 A 
ATOM     19  N   UNL     1       1.526   7.394  20.897  0.00  0.00    +0.000 N 
ATOM     20  H   UNL     1       1.316   7.047  21.819  0.00  0.00    +0.000 HD
ENDBRANCH  10  11
ENDBRANCH   3   5
BRANCH   2  21
ATOM     21  C   UNL     1       5.555   6.473  17.002  0.00  0.00    +0.000 C 
BRANCH  21  22
ATOM     22  C   UNL     1       7.066   6.316  16.795  0.00  0.00    +0.000 C 
BRANCH  22  23
ATOM     23  C   UNL     1       7.460   4.860  16.576  0.00  0.00    +0.000 C 
BRANCH  23  24
ATOM     24  N   UNL     1       6.707   4.235  15.504  0.00  0.00    +0.000 N 
ATOM     25  C   UNL     1       7.000   4.543  14.186  0.00  0.00    +0.000 C 
ATOM     26  O   UNL     1       7.856   5.352  13.864  0.00  0.00    +0.000 OA
ATOM     27  H   UNL     1       6.158   3.408  15.708  0.00  0.00    +0.000 HD
BRANCH  25  28
ATOM     28  C   UNL     1       6.235   3.814  13.132  0.00  0.00    +0.000 A 
ATOM     29  C   UNL     1       4.847   3.951  12.987  0.00  0.00    +0.000 A 
ATOM     30  C   UNL     1       4.184   3.284  11.952  0.00  0.00    +0.000 A 
ATOM     31  C   UNL     1       4.897   2.481  11.061  0.00  0.00    +0.000 A 
ATOM     32  C   UNL     1       6.278   2.347  11.196  0.00  0.00    +0.000 A 
ATOM     33  C   UNL     1       6.946   3.015  12.225  0.00  0.00    +0.000 A 
ENDBRANCH  25  28
ENDBRANCH  23  24
ENDBRANCH  22  23
ENDBRANCH  21  22
ENDBRANCH   2  21
TORSDOF 7
ENDMDL
MODEL 8
REMARK VINA RESULT:      -8.1      2.443      4.939
REMARK  Name = 
REMARK  7 active torsions:
REMARK  status: ('A' for Active; 'I' for Inactive)
REMARK    1  A    between atoms: C_2  and  C_3
REMARK    2  A    between atoms: C_3  and  C_4
REMARK    3  A    between atoms: C_4  and  C_5
REMARK    4  A    between atoms: C_5  and  N_6
REMARK    5  A    between atoms: C_7  and  C_9
REMARK    6  A    between atoms: N_15  and  C_16
REMARK    7  A    between atoms: C_21  and  C_22
REMARK                            x       y       z     vdW  Elec       q    Type
REMARK                         _______ _______ _______ _____ _____    ______ ____
ROOT
ATOM      1  O   UNL     1       7.851   4.351  17.780  0.00  0.00    +0.000 OA
ATOM      2  C   UNL     1       7.653   5.545  17.571  0.00  0.00    +0.000 C 
ATOM      3  N   UNL     1       7.134   6.065  16.395  0.00  0.00    +0.000 N 
ATOM      4  H   UNL     1       7.467   6.989  16.118  0.00  0.00    +0.000 HD
ENDROOT
BRANCH   3   5
ATOM      5  C   UNL     1       6.693   5.240  15.332  0.00  0.00    +0.000 A 
ATOM      6  C   UNL     1       7.369   5.260  14.099  0.00  0.00    +0.000 A 
ATOM      7  C   UNL     1       6.974   4.427  13.047  0.00  0.00    +0.000 A 
ATOM      8  C   UNL     1       5.911   3.552  13.220  0.00  0.00    +0.000 A 
ATOM      9  C   UNL     1       5.238   3.523  14.439  0.00  0.00    +0.000 A 
ATOM     10  C   UNL     1       5.594   4.382  15.503  0.00  0.00    +0.000 A 
BRANCH  10  11
ATOM     11  C   UNL     1       4.704   4.436  16.673  0.00  0.00    +0.000 A 
ATOM     12  N   UNL     1       4.284   3.463  17.468  0.00  0.00    +0.000 NA
ATOM     13  C   UNL     1       3.410   4.066  18.362  0.00  0.00    +0.000 A 
ATOM     14  C   UNL     1       2.623   3.528  19.392  0.00  0.00    +0.000 A 
ATOM     15  C   UNL     1       1.776   4.390  20.114  0.00  0.00    +0.000 A 
ATOM     16  C   UNL     1       1.722   5.757  19.836  0.00  0.00    +0.000 A 
ATOM     17  C   UNL     1       2.523   6.316  18.844  0.00  0.00    +0.000 A 
ATOM     18  C   UNL     1       3.342   5.436  18.138  0.00  0.00    +0.000 A 
ATOM     19  N   UNL     1       4.229   5.646  17.128  0.00  0.00    +0.000 N 
ATOM     20  H   UNL     1       4.477   6.546  16.748  0.00  0.00    +0.000 HD
ENDBRANCH  10  11
ENDBRANCH   3   5
BRANCH   2  21
ATOM     21  C   UNL     1       7.972   6.614  18.606  0.00  0.00    +0.000 C 
BRANCH  21  22
ATOM     22  C   UNL     1       8.090   8.005  17.972  0.00  0.00    +0.000 C 
BRANCH  22  23
ATOM     23  C   UNL     1       8.675   9.023  18.944  0.00  0.00    +0.000 C 
BRANCH  23  24
ATOM     24  N   UNL     1       9.101  10.243  18.283  0.00  0.00    +0.000 N 
ATOM     25  C   UNL     1       9.719  11.244  19.015  0.00  0.00    +0.000 C 
ATOM     26  O   UNL     1       9.905  11.171  20.220  0.00  0.00    +0.000 OA
ATOM     27  H   UNL     1       9.173  10.253  17.272  0.00  0.00    +0.000 HD
BRANCH  25  28
ATOM     28  C   UNL     1      10.193  12.442  18.262  0.00  0.00    +0.000 A 
ATOM     29  C   UNL     1       9.602  13.704  18.419  0.00  0.00    +0.000 A 
ATOM     30  C   UNL     1      10.114  14.805  17.726  0.00  0.00    +0.000 A 
ATOM     31  C   UNL     1      11.213  14.655  16.878  0.00  0.00    +0.000 A 
ATOM     32  C   UNL     1      11.809  13.405  16.724  0.00  0.00    +0.000 A 
ATOM     33  C   UNL     1      11.303  12.301  17.418  0.00  0.00    +0.000 A 
ENDBRANCH  25  28
ENDBRANCH  23  24
ENDBRANCH  22  23
ENDBRANCH  21  22
ENDBRANCH   2  21
TORSDOF 7
ENDMDL
MODEL 9
REMARK VINA RESULT:      -8.1      2.972      7.187
REMARK  Name = 
REMARK  7 active torsions:
REMARK  status: ('A' for Active; 'I' for Inactive)
REMARK    1  A    between atoms: C_2  and  C_3
REMARK    2  A    between atoms: C_3  and  C_4
REMARK    3  A    between atoms: C_4  and  C_5
REMARK    4  A    between atoms: C_5  and  N_6
REMARK    5  A    between atoms: C_7  and  C_9
REMARK    6  A    between atoms: N_15  and  C_16
REMARK    7  A    between atoms: C_21  and  C_22
REMARK                            x       y       z     vdW  Elec       q    Type
REMARK                         _______ _______ _______ _____ _____    ______ ____
ROOT
ATOM      1  O   UNL     1       2.087   5.820  21.092  0.00  0.00    +0.000 OA
ATOM      2  C   UNL     1       1.942   6.379  20.007  0.00  0.00    +0.000 C 
ATOM      3  N   UNL     1       2.013   5.743  18.777  0.00  0.00    +0.000 N 
ATOM      4  H   UNL     1       2.382   6.292  18.000  0.00  0.00    +0.000 HD
ENDROOT
BRANCH   3   5
ATOM      5  C   UNL     1       2.178   4.342  18.657  0.00  0.00    +0.000 A 
ATOM      6  C   UNL     1       1.072   3.487  18.810  0.00  0.00    +0.000 A 
ATOM      7  C   UNL     1       1.205   2.103  18.660  0.00  0.00    +0.000 A 
ATOM      8  C   UNL     1       2.439   1.558  18.338  0.00  0.00    +0.000 A 
ATOM      9  C   UNL     1       3.539   2.397  18.181  0.00  0.00    +0.000 A 
ATOM     10  C   UNL     1       3.439   3.794  18.365  0.00  0.00    +0.000 A 
BRANCH  10  11
ATOM     11  C   UNL     1       4.683   4.578  18.389  0.00  0.00    +0.000 A 
ATOM     12  N   UNL     1       5.743   4.468  19.176  0.00  0.00    +0.000 NA
ATOM     13  C   UNL     1       6.588   5.506  18.807  0.00  0.00    +0.000 A 
ATOM     14  C   UNL     1       7.825   5.920  19.325  0.00  0.00    +0.000 A 
ATOM     15  C   UNL     1       8.438   7.061  18.774  0.00  0.00    +0.000 A 
ATOM     16  C   UNL     1       7.850   7.767  17.723  0.00  0.00    +0.000 A 
ATOM     17  C   UNL     1       6.642   7.349  17.169  0.00  0.00    +0.000 A 
ATOM     18  C   UNL     1       6.053   6.224  17.744  0.00  0.00    +0.000 A 
ATOM     19  N   UNL     1       4.899   5.565  17.452  0.00  0.00    +0.000 N 
ATOM     20  H   UNL     1       4.281   5.783  16.688  0.00  0.00    +0.000 HD
ENDBRANCH  10  11
ENDBRANCH   3   5
BRANCH   2  21
ATOM     21  C   UNL     1       1.669   7.871  19.893  0.00  0.00    +0.000 C 
BRANCH  21  22
ATOM     22  C   UNL     1       2.045   8.416  18.510  0.00  0.00    +0.000 C 
BRANCH  22  23
ATOM     23  C   UNL     1       1.459   9.802  18.268  0.00  0.00    +0.000 C 
BRANCH  23  24
ATOM     24  N   UNL     1       0.798  10.339  19.443  0.00  0.00    +0.000 N 
ATOM     25  C   UNL     1      -0.435  10.959  19.317  0.00  0.00    +0.000 C 
ATOM     26  O   UNL     1      -0.999  11.110  18.245  0.00  0.00    +0.000 OA
ATOM     27  H   UNL     1       1.110  10.043  20.360  0.00  0.00    +0.000 HD
BRANCH  25  28
ATOM     28  C   UNL     1      -1.091  11.428  20.573  0.00  0.00    +0.000 A 
ATOM     29  C   UNL     1      -2.187  12.302  20.561  0.00  0.00    +0.000 A 
ATOM     30  C   UNL     1      -2.796  12.674  21.764  0.00  0.00    +0.000 A 
ATOM     31  C   UNL     1      -2.319  12.177  22.978  0.00  0.00    +0.000 A 
ATOM     32  C   UNL     1      -1.234  11.302  22.995  0.00  0.00    +0.000 A 
ATOM     33  C   UNL     1      -0.624  10.924  21.795  0.00  0.00    +0.000 A 
ENDBRANCH  25  28
ENDBRANCH  23  24
ENDBRANCH  22  23
ENDBRANCH  21  22
ENDBRANCH   2  21
TORSDOF 7
ENDMDL
