MODEL 1
REMARK VINA RESULT:      -8.8      0.000      0.000
REMARK  Name = 
REMARK  6 active torsions:
REMARK  status: ('A' for Active; 'I' for Inactive)
REMARK    1  A    between atoms: C_2  and  C_16
REMARK    2  A    between atoms: N_3  and  C_4
REMARK    3  A    between atoms: C_8  and  O_9
REMARK    4  A    between atoms: O_9  and  C_10
REMARK    5  A    between atoms: C_20  and  C_21
REMARK    6  A    between atoms: C_21  and  N_22
REMARK                            x       y       z     vdW  Elec       q    Type
REMARK                         _______ _______ _______ _____ _____    ______ ____
ROOT
ATOM      1  O   UNL     1       2.299   7.492  18.754  0.00  0.00    +0.000 OA
ATOM      2  C   UNL     1       1.928   7.377  19.916  0.00  0.00    +0.000 C 
ATOM      3  N   UNL     1       2.026   6.244  20.713  0.00  0.00    +0.000 N 
ATOM      4  H   UNL     1       1.502   6.236  21.579  0.00  0.00    +0.000 HD
ENDROOT
BRANCH   3   5
ATOM      5  C   UNL     1       2.648   5.027  20.349  0.00  0.00    +0.000 A 
ATOM      6  C   UNL     1       2.076   3.781  20.606  0.00  0.00    +0.000 A 
ATOM      7  C   UNL     1       2.744   2.609  20.255  0.00  0.00    +0.000 A 
ATOM      8  C   UNL     1       3.994   2.666  19.646  0.00  0.00    +0.000 A 
ATOM      9  C   UNL     1       4.580   3.901  19.375  0.00  0.00    +0.000 A 
ATOM     10  C   UNL     1       3.891   5.079  19.702  0.00  0.00    +0.000 A 
BRANCH   9  11
ATOM     11  O   UNL     1       5.803   4.071  18.782  0.00  0.00    +0.000 OA
BRANCH  11  12
ATOM     12  C   UNL     1       5.829   4.714  17.504  0.00  0.00    +0.000 C 
ATOM     13  C   UNL     1       4.988   3.969  16.466  0.00  0.00    +0.000 C 
ATOM     14  C   UNL     1       5.683   4.173  15.126  0.00  0.00    +0.000 C 
ATOM     15  C   UNL     1       7.068   4.732  15.429  0.00  0.00    +0.000 C 
ATOM     16  C   UNL     1       7.244   4.637  16.936  0.00  0.00    +0.000 C 
ENDBRANCH  11  12
ENDBRANCH   9  11
ENDBRANCH   3   5
BRANCH   2  17
ATOM     17  C   UNL     1       1.248   8.547  20.544  0.00  0.00    +0.000 A 
ATOM     18  C   UNL     1       1.090   8.643  21.932  0.00  0.00    +0.000 A 
ATOM     19  C   UNL     1       0.457   9.760  22.475  0.00  0.00    +0.000 A 
ATOM     20  C   UNL     1       0.015  10.794  21.646  0.00  0.00    +0.000 A 
ATOM     21  C   UNL     1       0.221  10.738  20.261  0.00  0.00    +0.000 A 
ATOM     22  C   UNL     1       0.820   9.594  19.716  0.00  0.00    +0.000 A 
BRANCH  21  23
ATOM     23  C   UNL     1      -0.190  11.891  19.374  0.00  0.00    +0.000 C 
BRANCH  23  24
ATOM     24  N   UNL     1      -1.605  11.891  19.094  0.00  0.00    +0.000 N 
ATOM     25  C   UNL     1      -2.204  11.171  18.100  0.00  0.00    +0.000 C 
ATOM     26  O   UNL     1      -1.656  10.431  17.295  0.00  0.00    +0.000 OA
ATOM     27  C   UNL     1      -3.699  11.446  18.143  0.00  0.00    +0.000 C 
ATOM     28  N   UNL     1      -3.764  12.387  19.225  0.00  0.00    +0.000 N 
ATOM     29  C   UNL     1      -2.523  12.636  19.766  0.00  0.00    +0.000 C 
ATOM     30  O   UNL     1      -2.326  13.412  20.685  0.00  0.00    +0.000 OA
ATOM     31  H   UNL     1      -4.597  12.833  19.587  0.00  0.00    +0.000 HD
ENDBRANCH  23  24
ENDBRANCH  21  23
ENDBRANCH   2  17
TORSDOF 6
ENDMDL
MODEL 2
REMARK VINA RESULT:      -8.7      2.661      9.577
REMARK  Name = 
REMARK  6 active torsions:
REMARK  status: ('A' for Active; 'I' for Inactive)
REMARK    1  A    between atoms: C_2  and  C_16
REMARK    2  A    between atoms: N_3  and  C_4
REMARK    3  A    between atoms: C_8  and  O_9
REMARK    4  A    between atoms: O_9  and  C_10
REMARK    5  A    between atoms: C_20  and  C_21
REMARK    6  A    between atoms: C_21  and  N_22
REMARK                            x       y       z     vdW  Elec       q    Type
REMARK                         _______ _______ _______ _____ _____    ______ ____
ROOT
ATOM      1  O   UNL     1       2.155   7.726  19.754  0.00  0.00    +0.000 OA
ATOM      2  C   UNL     1       2.368   7.824  18.551  0.00  0.00    +0.000 C 
ATOM      3  N   UNL     1       1.898   8.816  17.701  0.00  0.00    +0.000 N 
ATOM      4  H   UNL     1       1.990   8.659  16.706  0.00  0.00    +0.000 HD
ENDROOT
BRANCH   3   5
ATOM      5  C   UNL     1       1.144   9.948  18.086  0.00  0.00    +0.000 A 
ATOM      6  C   UNL     1       1.729  11.172  18.409  0.00  0.00    +0.000 A 
ATOM      7  C   UNL     1       0.943  12.250  18.813  0.00  0.00    +0.000 A 
ATOM      8  C   UNL     1      -0.439  12.118  18.904  0.00  0.00    +0.000 A 
ATOM      9  C   UNL     1      -1.045  10.905  18.580  0.00  0.00    +0.000 A 
ATOM     10  C   UNL     1      -0.253   9.832  18.144  0.00  0.00    +0.000 A 
BRANCH   9  11
ATOM     11  O   UNL     1      -2.393  10.668  18.635  0.00  0.00    +0.000 OA
BRANCH  11  12
ATOM     12  C   UNL     1      -3.262  11.713  18.189  0.00  0.00    +0.000 C 
ATOM     13  C   UNL     1      -4.285  12.108  19.254  0.00  0.00    +0.000 C 
ATOM     14  C   UNL     1      -5.546  12.521  18.505  0.00  0.00    +0.000 C 
ATOM     15  C   UNL     1      -5.374  12.055  17.065  0.00  0.00    +0.000 C 
ATOM     16  C   UNL     1      -4.126  11.188  17.045  0.00  0.00    +0.000 C 
ENDBRANCH  11  12
ENDBRANCH   9  11
ENDBRANCH   3   5
BRANCH   2  17
ATOM     17  C   UNL     1       3.169   6.746  17.901  0.00  0.00    +0.000 A 
ATOM     18  C   UNL     1       4.307   7.040  17.141  0.00  0.00    +0.000 A 
ATOM     19  C   UNL     1       5.031   6.000  16.560  0.00  0.00    +0.000 A 
ATOM     20  C   UNL     1       4.646   4.672  16.762  0.00  0.00    +0.000 A 
ATOM     21  C   UNL     1       3.544   4.362  17.571  0.00  0.00    +0.000 A 
ATOM     22  C   UNL     1       2.795   5.412  18.118  0.00  0.00    +0.000 A 
BRANCH  21  23
ATOM     23  C   UNL     1       3.174   2.923  17.850  0.00  0.00    +0.000 C 
BRANCH  23  24
ATOM     24  N   UNL     1       2.843   2.700  19.235  0.00  0.00    +0.000 N 
ATOM     25  C   UNL     1       1.574   2.657  19.738  0.00  0.00    +0.000 C 
ATOM     26  O   UNL     1       0.531   2.804  19.115  0.00  0.00    +0.000 OA
ATOM     27  C   UNL     1       1.659   2.400  21.234  0.00  0.00    +0.000 C 
ATOM     28  N   UNL     1       3.082   2.355  21.415  0.00  0.00    +0.000 N 
ATOM     29  C   UNL     1       3.757   2.538  20.229  0.00  0.00    +0.000 C 
ATOM     30  O   UNL     1       4.972   2.556  20.135  0.00  0.00    +0.000 OA
ATOM     31  H   UNL     1       3.575   2.204  22.285  0.00  0.00    +0.000 HD
ENDBRANCH  23  24
ENDBRANCH  21  23
ENDBRANCH   2  17
TORSDOF 6
ENDMDL
MODEL 3
REMARK VINA RESULT:      -8.6      3.085      9.165
REMARK  Name = 
REMARK  6 active torsions:
REMARK  status: ('A' for Active; 'I' for Inactive)
REMARK    1  A    between atoms: C_2  and  C_16
REMARK    2  A    between atoms: N_3  and  C_4
REMARK    3  A    between atoms: C_8  and  O_9
REMARK    4  A    between atoms: O_9  and  C_10
REMARK    5  A    between atoms: C_20  and  C_21
REMARK    6  A    between atoms: C_21  and  N_22
REMARK                            x       y       z     vdW  Elec       q    Type
REMARK                         _______ _______ _______ _____ _____    ______ ____
ROOT
ATOM      1  O   UNL     1       2.135   7.579  19.707  0.00  0.00    +0.000 OA
ATOM      2  C   UNL     1       2.384   7.712  18.515  0.00  0.00    +0.000 C 
ATOM      3  N   UNL     1       1.957   8.740  17.685  0.00  0.00    +0.000 N 
ATOM      4  H   UNL     1       2.074   8.614  16.688  0.00  0.00    +0.000 HD
ENDROOT
BRANCH   3   5
ATOM      5  C   UNL     1       1.213   9.873  18.086  0.00  0.00    +0.000 A 
ATOM      6  C   UNL     1      -0.181   9.911  18.055  0.00  0.00    +0.000 A 
ATOM      7  C   UNL     1      -0.868  11.064  18.432  0.00  0.00    +0.000 A 
ATOM      8  C   UNL     1      -0.170  12.196  18.842  0.00  0.00    +0.000 A 
ATOM      9  C   UNL     1       1.223  12.177  18.887  0.00  0.00    +0.000 A 
ATOM     10  C   UNL     1       1.909  11.005  18.536  0.00  0.00    +0.000 A 
BRANCH   9  11
ATOM     11  O   UNL     1       2.005  13.234  19.273  0.00  0.00    +0.000 OA
BRANCH  11  12
ATOM     12  C   UNL     1       2.380  14.175  18.262  0.00  0.00    +0.000 C 
ATOM     13  C   UNL     1       3.888  14.425  18.237  0.00  0.00    +0.000 C 
ATOM     14  C   UNL     1       4.075  15.876  17.817  0.00  0.00    +0.000 C 
ATOM     15  C   UNL     1       2.710  16.545  17.926  0.00  0.00    +0.000 C 
ATOM     16  C   UNL     1       1.800  15.542  18.616  0.00  0.00    +0.000 C 
ENDBRANCH  11  12
ENDBRANCH   9  11
ENDBRANCH   3   5
BRANCH   2  17
ATOM     17  C   UNL     1       3.183   6.641  17.852  0.00  0.00    +0.000 A 
ATOM     18  C   UNL     1       4.293   6.945  17.054  0.00  0.00    +0.000 A 
ATOM     19  C   UNL     1       5.017   5.911  16.462  0.00  0.00    +0.000 A 
ATOM     20  C   UNL     1       4.660   4.579  16.691  0.00  0.00    +0.000 A 
ATOM     21  C   UNL     1       3.589   4.259  17.535  0.00  0.00    +0.000 A 
ATOM     22  C   UNL     1       2.839   5.304  18.094  0.00  0.00    +0.000 A 
BRANCH  21  23
ATOM     23  C   UNL     1       3.252   2.818  17.841  0.00  0.00    +0.000 C 
BRANCH  23  24
ATOM     24  N   UNL     1       2.882   2.621  19.220  0.00  0.00    +0.000 N 
ATOM     25  C   UNL     1       1.599   2.560  19.684  0.00  0.00    +0.000 C 
ATOM     26  O   UNL     1       0.574   2.668  19.026  0.00  0.00    +0.000 OA
ATOM     27  C   UNL     1       1.643   2.342  21.188  0.00  0.00    +0.000 C 
ATOM     28  N   UNL     1       3.060   2.334  21.414  0.00  0.00    +0.000 N 
ATOM     29  C   UNL     1       3.768   2.503  20.246  0.00  0.00    +0.000 C 
ATOM     30  O   UNL     1       4.985   2.547  20.189  0.00  0.00    +0.000 OA
ATOM     31  H   UNL     1       3.529   2.215  22.302  0.00  0.00    +0.000 HD
ENDBRANCH  23  24
ENDBRANCH  21  23
ENDBRANCH   2  17
TORSDOF 6
ENDMDL
MODEL 4
REMARK VINA RESULT:      -8.5      2.334      9.193
REMARK  Name = 
REMARK  6 active torsions:
REMARK  status: ('A' for Active; 'I' for Inactive)
REMARK    1  A    between atoms: C_2  and  C_16
REMARK    2  A    between atoms: N_3  and  C_4
REMARK    3  A    between atoms: C_8  and  O_9
REMARK    4  A    between atoms: O_9  and  C_10
REMARK    5  A    between atoms: C_20  and  C_21
REMARK    6  A    between atoms: C_21  and  N_22
REMARK                            x       y       z     vdW  Elec       q    Type
REMARK                         _______ _______ _______ _____ _____    ______ ____
ROOT
ATOM      1  O   UNL     1       1.449   8.708  21.156  0.00  0.00    +0.000 OA
ATOM      2  C   UNL     1       1.686   8.288  20.030  0.00  0.00    +0.000 C 
ATOM      3  N   UNL     1       1.543   8.983  18.836  0.00  0.00    +0.000 N 
ATOM      4  H   UNL     1       1.586   8.448  17.978  0.00  0.00    +0.000 HD
ENDROOT
BRANCH   3   5
ATOM      5  C   UNL     1       1.167  10.339  18.707  0.00  0.00    +0.000 A 
ATOM      6  C   UNL     1       2.087  11.359  18.461  0.00  0.00    +0.000 A 
ATOM      7  C   UNL     1       1.670  12.685  18.373  0.00  0.00    +0.000 A 
ATOM      8  C   UNL     1       0.326  13.012  18.532  0.00  0.00    +0.000 A 
ATOM      9  C   UNL     1      -0.611  12.009  18.771  0.00  0.00    +0.000 A 
ATOM     10  C   UNL     1      -0.191  10.671  18.829  0.00  0.00    +0.000 A 
BRANCH   9  11
ATOM     11  O   UNL     1      -1.953  12.220  18.944  0.00  0.00    +0.000 OA
BRANCH  11  12
ATOM     12  C   UNL     1      -2.848  11.303  18.306  0.00  0.00    +0.000 C 
ATOM     13  C   UNL     1      -2.725  11.342  16.783  0.00  0.00    +0.000 C 
ATOM     14  C   UNL     1      -4.116  11.051  16.233  0.00  0.00    +0.000 C 
ATOM     15  C   UNL     1      -5.086  11.178  17.402  0.00  0.00    +0.000 C 
ATOM     16  C   UNL     1      -4.285  11.754  18.558  0.00  0.00    +0.000 C 
ENDBRANCH  11  12
ENDBRANCH   9  11
ENDBRANCH   3   5
BRANCH   2  17
ATOM     17  C   UNL     1       2.124   6.868  19.900  0.00  0.00    +0.000 A 
ATOM     18  C   UNL     1       1.618   5.868  20.738  0.00  0.00    +0.000 A 
ATOM     19  C   UNL     1       2.048   4.552  20.574  0.00  0.00    +0.000 A 
ATOM     20  C   UNL     1       2.951   4.226  19.559  0.00  0.00    +0.000 A 
ATOM     21  C   UNL     1       3.419   5.208  18.675  0.00  0.00    +0.000 A 
ATOM     22  C   UNL     1       3.015   6.536  18.870  0.00  0.00    +0.000 A 
BRANCH  21  23
ATOM     23  C   UNL     1       4.336   4.840  17.531  0.00  0.00    +0.000 C 
BRANCH  23  24
ATOM     24  N   UNL     1       5.541   5.632  17.517  0.00  0.00    +0.000 N 
ATOM     25  C   UNL     1       6.508   5.601  18.481  0.00  0.00    +0.000 C 
ATOM     26  O   UNL     1       6.510   4.921  19.497  0.00  0.00    +0.000 OA
ATOM     27  C   UNL     1       7.605   6.578  18.091  0.00  0.00    +0.000 C 
ATOM     28  N   UNL     1       7.068   7.107  16.870  0.00  0.00    +0.000 N 
ATOM     29  C   UNL     1       5.854   6.540  16.554  0.00  0.00    +0.000 C 
ATOM     30  O   UNL     1       5.199   6.842  15.571  0.00  0.00    +0.000 OA
ATOM     31  H   UNL     1       7.495   7.805  16.275  0.00  0.00    +0.000 HD
ENDBRANCH  23  24
ENDBRANCH  21  23
ENDBRANCH   2  17
TORSDOF 6
ENDMDL
MODEL 5
REMARK VINA RESULT:      -8.5      2.385      8.770
REMARK  Name = 
REMARK  6 active torsions:
REMARK  status: ('A' for Active; 'I' for Inactive)
REMARK    1  A    between atoms: C_2  and  C_16
REMARK    2  A    between atoms: N_3  and  C_4
REMARK    3  A    between atoms: C_8  and  O_9
REMARK    4  A    between atoms: O_9  and  C_10
REMARK    5  A    between atoms: C_20  and  C_21
REMARK    6  A    between atoms: C_21  and  N_22
REMARK                            x       y       z     vdW  Elec       q    Type
REMARK                         _______ _______ _______ _____ _____    ______ ____
ROOT
ATOM      1  O   UNL     1       2.566   8.693  17.180  0.00  0.00    +0.000 OA
ATOM      2  C   UNL     1       2.691   7.915  18.119  0.00  0.00    +0.000 C 
ATOM      3  N   UNL     1       2.095   8.018  19.369  0.00  0.00    +0.000 N 
ATOM      4  H   UNL     1       2.444   7.414  20.103  0.00  0.00    +0.000 HD
ENDROOT
BRANCH   3   5
ATOM      5  C   UNL     1       1.168   9.008  19.766  0.00  0.00    +0.000 A 
ATOM      6  C   UNL     1       0.923   9.321  21.104  0.00  0.00    +0.000 A 
ATOM      7  C   UNL     1      -0.025  10.284  21.444  0.00  0.00    +0.000 A 
ATOM      8  C   UNL     1      -0.744  10.945  20.453  0.00  0.00    +0.000 A 
ATOM      9  C   UNL     1      -0.510  10.653  19.110  0.00  0.00    +0.000 A 
ATOM     10  C   UNL     1       0.467   9.704  18.771  0.00  0.00    +0.000 A 
BRANCH   9  11
ATOM     11  O   UNL     1      -1.161  11.242  18.059  0.00  0.00    +0.000 OA
BRANCH  11  12
ATOM     12  C   UNL     1      -2.381  10.635  17.620  0.00  0.00    +0.000 C 
ATOM     13  C   UNL     1      -2.438  10.489  16.100  0.00  0.00    +0.000 C 
ATOM     14  C   UNL     1      -3.902  10.647  15.709  0.00  0.00    +0.000 C 
ATOM     15  C   UNL     1      -4.625  11.207  16.928  0.00  0.00    +0.000 C 
ATOM     16  C   UNL     1      -3.543  11.575  17.931  0.00  0.00    +0.000 C 
ENDBRANCH  11  12
ENDBRANCH   9  11
ENDBRANCH   3   5
BRANCH   2  17
ATOM     17  C   UNL     1       3.616   6.759  17.940  0.00  0.00    +0.000 A 
ATOM     18  C   UNL     1       4.709   6.826  17.068  0.00  0.00    +0.000 A 
ATOM     19  C   UNL     1       5.553   5.724  16.939  0.00  0.00    +0.000 A 
ATOM     20  C   UNL     1       5.332   4.573  17.700  0.00  0.00    +0.000 A 
ATOM     21  C   UNL     1       4.277   4.515  18.621  0.00  0.00    +0.000 A 
ATOM     22  C   UNL     1       3.407   5.609  18.715  0.00  0.00    +0.000 A 
BRANCH  21  23
ATOM     23  C   UNL     1       4.086   3.298  19.496  0.00  0.00    +0.000 C 
BRANCH  23  24
ATOM     24  N   UNL     1       2.701   2.910  19.601  0.00  0.00    +0.000 N 
ATOM     25  C   UNL     1       1.944   2.429  18.571  0.00  0.00    +0.000 C 
ATOM     26  O   UNL     1       2.301   2.259  17.413  0.00  0.00    +0.000 OA
ATOM     27  C   UNL     1       0.547   2.139  19.097  0.00  0.00    +0.000 C 
ATOM     28  N   UNL     1       0.687   2.552  20.464  0.00  0.00    +0.000 N 
ATOM     29  C   UNL     1       1.958   3.004  20.737  0.00  0.00    +0.000 C 
ATOM     30  O   UNL     1       2.311   3.423  21.826  0.00  0.00    +0.000 OA
ATOM     31  H   UNL     1      -0.028   2.526  21.178  0.00  0.00    +0.000 HD
ENDBRANCH  23  24
ENDBRANCH  21  23
ENDBRANCH   2  17
TORSDOF 6
ENDMDL
MODEL 6
REMARK VINA RESULT:      -8.5      2.729      9.149
REMARK  Name = 
REMARK  6 active torsions:
REMARK  status: ('A' for Active; 'I' for Inactive)
REMARK    1  A    between atoms: C_2  and  C_16
REMARK    2  A    between atoms: N_3  and  C_4
REMARK    3  A    between atoms: C_8  and  O_9
REMARK    4  A    between atoms: O_9  and  C_10
REMARK    5  A    between atoms: C_20  and  C_21
REMARK    6  A    between atoms: C_21  and  N_22
REMARK                            x       y       z     vdW  Elec       q    Type
REMARK                         _______ _______ _______ _____ _____    ______ ____
ROOT
ATOM      1  O   UNL     1       2.131   7.400  20.184  0.00  0.00    +0.000 OA
ATOM      2  C   UNL     1       2.273   7.279  18.972  0.00  0.00    +0.000 C 
ATOM      3  N   UNL     1       1.965   8.221  18.000  0.00  0.00    +0.000 N 
ATOM      4  H   UNL     1       1.950   7.910  17.037  0.00  0.00    +0.000 HD
ENDROOT
BRANCH   3   5
ATOM      5  C   UNL     1       1.497   9.534  18.238  0.00  0.00    +0.000 A 
ATOM      6  C   UNL     1       2.322  10.657  18.155  0.00  0.00    +0.000 A 
ATOM      7  C   UNL     1       1.819  11.927  18.429  0.00  0.00    +0.000 A 
ATOM      8  C   UNL     1       0.486  12.093  18.793  0.00  0.00    +0.000 A 
ATOM      9  C   UNL     1      -0.356  10.986  18.876  0.00  0.00    +0.000 A 
ATOM     10  C   UNL     1       0.146   9.712  18.569  0.00  0.00    +0.000 A 
BRANCH   9  11
ATOM     11  O   UNL     1      -1.680  11.037  19.225  0.00  0.00    +0.000 OA
BRANCH  11  12
ATOM     12  C   UNL     1      -2.637  11.071  18.162  0.00  0.00    +0.000 C 
ATOM     13  C   UNL     1      -3.072   9.669  17.733  0.00  0.00    +0.000 C 
ATOM     14  C   UNL     1      -3.354   9.748  16.238  0.00  0.00    +0.000 C 
ATOM     15  C   UNL     1      -2.772  11.069  15.749  0.00  0.00    +0.000 C 
ATOM     16  C   UNL     1      -1.971  11.635  16.910  0.00  0.00    +0.000 C 
ENDBRANCH  11  12
ENDBRANCH   9  11
ENDBRANCH   3   5
BRANCH   2  17
ATOM     17  C   UNL     1       2.779   5.971  18.463  0.00  0.00    +0.000 A 
ATOM     18  C   UNL     1       1.911   5.008  17.935  0.00  0.00    +0.000 A 
ATOM     19  C   UNL     1       2.430   3.803  17.461  0.00  0.00    +0.000 A 
ATOM     20  C   UNL     1       3.808   3.571  17.481  0.00  0.00    +0.000 A 
ATOM     21  C   UNL     1       4.692   4.551  17.952  0.00  0.00    +0.000 A 
ATOM     22  C   UNL     1       4.162   5.743  18.465  0.00  0.00    +0.000 A 
BRANCH  21  23
ATOM     23  C   UNL     1       6.186   4.329  17.902  0.00  0.00    +0.000 C 
BRANCH  23  24
ATOM     24  N   UNL     1       6.929   5.557  18.038  0.00  0.00    +0.000 N 
ATOM     25  C   UNL     1       7.057   6.505  17.063  0.00  0.00    +0.000 C 
ATOM     26  O   UNL     1       6.582   6.469  15.936  0.00  0.00    +0.000 OA
ATOM     27  C   UNL     1       7.912   7.638  17.605  0.00  0.00    +0.000 C 
ATOM     28  N   UNL     1       8.213   7.140  18.917  0.00  0.00    +0.000 N 
ATOM     29  C   UNL     1       7.628   5.915  19.148  0.00  0.00    +0.000 C 
ATOM     30  O   UNL     1       7.755   5.287  20.185  0.00  0.00    +0.000 OA
ATOM     31  H   UNL     1       8.773   7.598  19.623  0.00  0.00    +0.000 HD
ENDBRANCH  23  24
ENDBRANCH  21  23
ENDBRANCH   2  17
TORSDOF 6
ENDMDL
MODEL 7
REMARK VINA RESULT:      -8.5      0.450      1.417
REMARK  Name = 
REMARK  6 active torsions:
REMARK  status: ('A' for Active; 'I' for Inactive)
REMARK    1  A    between atoms: C_2  and  C_16
REMARK    2  A    between atoms: N_3  and  C_4
REMARK    3  A    between atoms: C_8  and  O_9
REMARK    4  A    between atoms: O_9  and  C_10
REMARK    5  A    between atoms: C_20  and  C_21
REMARK    6  A    between atoms: C_21  and  N_22
REMARK                            x       y       z     vdW  Elec       q    Type
REMARK                         _______ _______ _______ _____ _____    ______ ____
ROOT
ATOM      1  O   UNL     1       2.331   7.719  18.958  0.00  0.00    +0.000 OA
ATOM      2  C   UNL     1       1.833   7.514  20.058  0.00  0.00    +0.000 C 
ATOM      3  N   UNL     1       1.794   6.307  20.742  0.00  0.00    +0.000 N 
ATOM      4  H   UNL     1       1.181   6.245  21.545  0.00  0.00    +0.000 HD
ENDROOT
BRANCH   3   5
ATOM      5  C   UNL     1       2.395   5.098  20.323  0.00  0.00    +0.000 A 
ATOM      6  C   UNL     1       1.764   3.859  20.444  0.00  0.00    +0.000 A 
ATOM      7  C   UNL     1       2.411   2.692  20.043  0.00  0.00    +0.000 A 
ATOM      8  C   UNL     1       3.700   2.746  19.520  0.00  0.00    +0.000 A 
ATOM      9  C   UNL     1       4.345   3.973  19.385  0.00  0.00    +0.000 A 
ATOM     10  C   UNL     1       3.678   5.149  19.760  0.00  0.00    +0.000 A 
BRANCH   9  11
ATOM     11  O   UNL     1       5.610   4.138  18.885  0.00  0.00    +0.000 OA
BRANCH  11  12
ATOM     12  C   UNL     1       5.732   4.766  17.604  0.00  0.00    +0.000 C 
ATOM     13  C   UNL     1       4.934   4.034  16.525  0.00  0.00    +0.000 C 
ATOM     14  C   UNL     1       5.714   4.202  15.227  0.00  0.00    +0.000 C 
ATOM     15  C   UNL     1       7.094   4.723  15.608  0.00  0.00    +0.000 C 
ATOM     16  C   UNL     1       7.176   4.641  17.124  0.00  0.00    +0.000 C 
ENDBRANCH  11  12
ENDBRANCH   9  11
ENDBRANCH   3   5
BRANCH   2  17
ATOM     17  C   UNL     1       1.145   8.656  20.728  0.00  0.00    +0.000 A 
ATOM     18  C   UNL     1       0.959   8.684  22.116  0.00  0.00    +0.000 A 
ATOM     19  C   UNL     1       0.319   9.776  22.701  0.00  0.00    +0.000 A 
ATOM     20  C   UNL     1      -0.104  10.851  21.914  0.00  0.00    +0.000 A 
ATOM     21  C   UNL     1       0.129  10.862  20.532  0.00  0.00    +0.000 A 
ATOM     22  C   UNL     1       0.736   9.743  19.944  0.00  0.00    +0.000 A 
BRANCH  21  23
ATOM     23  C   UNL     1      -0.261  12.058  19.695  0.00  0.00    +0.000 C 
BRANCH  23  24
ATOM     24  N   UNL     1      -1.677  12.101  19.425  0.00  0.00    +0.000 N 
ATOM     25  C   UNL     1      -2.605  12.716  20.217  0.00  0.00    +0.000 C 
ATOM     26  O   UNL     1      -2.398  13.311  21.265  0.00  0.00    +0.000 OA
ATOM     27  C   UNL     1      -3.973  12.533  19.581  0.00  0.00    +0.000 C 
ATOM     28  N   UNL     1      -3.629  11.748  18.430  0.00  0.00    +0.000 N 
ATOM     29  C   UNL     1      -2.276  11.504  18.361  0.00  0.00    +0.000 C 
ATOM     30  O   UNL     1      -1.749  10.845  17.480  0.00  0.00    +0.000 OA
ATOM     31  H   UNL     1      -4.265  11.401  17.724  0.00  0.00    +0.000 HD
ENDBRANCH  23  24
ENDBRANCH  21  23
ENDBRANCH   2  17
TORSDOF 6
ENDMDL
MODEL 8
REMARK VINA RESULT:      -8.5      2.588      8.915
REMARK  Name = 
REMARK  6 active torsions:
REMARK  status: ('A' for Active; 'I' for Inactive)
REMARK    1  A    between atoms: C_2  and  C_16
REMARK    2  A    between atoms: N_3  and  C_4
REMARK    3  A    between atoms: C_8  and  O_9
REMARK    4  A    between atoms: O_9  and  C_10
REMARK    5  A    between atoms: C_20  and  C_21
REMARK    6  A    between atoms: C_21  and  N_22
REMARK                            x       y       z     vdW  Elec       q    Type
REMARK                         _______ _______ _______ _____ _____    ______ ____
ROOT
ATOM      1  O   UNL     1       2.608   8.622  17.325  0.00  0.00    +0.000 OA
ATOM      2  C   UNL     1       2.726   7.640  18.048  0.00  0.00    +0.000 C 
ATOM      3  N   UNL     1       2.266   7.505  19.351  0.00  0.00    +0.000 N 
ATOM      4  H   UNL     1       2.607   6.717  19.886  0.00  0.00    +0.000 HD
ENDROOT
BRANCH   3   5
ATOM      5  C   UNL     1       1.505   8.460  20.064  0.00  0.00    +0.000 A 
ATOM      6  C   UNL     1       1.166   8.304  21.408  0.00  0.00    +0.000 A 
ATOM      7  C   UNL     1       0.387   9.260  22.058  0.00  0.00    +0.000 A 
ATOM      8  C   UNL     1      -0.067  10.383  21.372  0.00  0.00    +0.000 A 
ATOM      9  C   UNL     1       0.266  10.561  20.030  0.00  0.00    +0.000 A 
ATOM     10  C   UNL     1       1.076   9.612  19.388  0.00  0.00    +0.000 A 
BRANCH   9  11
ATOM     11  O   UNL     1      -0.127  11.625  19.263  0.00  0.00    +0.000 OA
BRANCH  11  12
ATOM     12  C   UNL     1       0.356  12.919  19.641  0.00  0.00    +0.000 C 
ATOM     13  C   UNL     1      -0.699  14.008  19.444  0.00  0.00    +0.000 C 
ATOM     14  C   UNL     1       0.059  15.275  19.067  0.00  0.00    +0.000 C 
ATOM     15  C   UNL     1       1.481  14.850  18.721  0.00  0.00    +0.000 C 
ATOM     16  C   UNL     1       1.473  13.330  18.685  0.00  0.00    +0.000 C 
ENDBRANCH  11  12
ENDBRANCH   9  11
ENDBRANCH   3   5
BRANCH   2  17
ATOM     17  C   UNL     1       3.485   6.473  17.509  0.00  0.00    +0.000 A 
ATOM     18  C   UNL     1       4.658   6.646  16.764  0.00  0.00    +0.000 A 
ATOM     19  C   UNL     1       5.340   5.527  16.289  0.00  0.00    +0.000 A 
ATOM     20  C   UNL     1       4.877   4.241  16.582  0.00  0.00    +0.000 A 
ATOM     21  C   UNL     1       3.739   4.054  17.378  0.00  0.00    +0.000 A 
ATOM     22  C   UNL     1       3.033   5.183  17.817  0.00  0.00    +0.000 A 
BRANCH  21  23
ATOM     23  C   UNL     1       3.284   2.663  17.757  0.00  0.00    +0.000 C 
BRANCH  23  24
ATOM     24  N   UNL     1       2.828   2.588  19.122  0.00  0.00    +0.000 N 
ATOM     25  C   UNL     1       3.643   2.535  20.217  0.00  0.00    +0.000 C 
ATOM     26  O   UNL     1       4.867   2.534  20.223  0.00  0.00    +0.000 OA
ATOM     27  C   UNL     1       2.773   2.466  21.461  0.00  0.00    +0.000 C 
ATOM     28  N   UNL     1       1.465   2.457  20.869  0.00  0.00    +0.000 N 
ATOM     29  C   UNL     1       1.522   2.526  19.496  0.00  0.00    +0.000 C 
ATOM     30  O   UNL     1       0.539   2.517  18.774  0.00  0.00    +0.000 OA
ATOM     31  H   UNL     1       0.581   2.416  21.359  0.00  0.00    +0.000 HD
ENDBRANCH  23  24
ENDBRANCH  21  23
ENDBRANCH   2  17
TORSDOF 6
ENDMDL
MODEL 9
REMARK VINA RESULT:      -8.4      6.374      8.622
REMARK  Name = 
REMARK  6 active torsions:
REMARK  status: ('A' for Active; 'I' for Inactive)
REMARK    1  A    between atoms: C_2  and  C_16
REMARK    2  A    between atoms: N_3  and  C_4
REMARK    3  A    between atoms: C_8  and  O_9
REMARK    4  A    between atoms: O_9  and  C_10
REMARK    5  A    between atoms: C_20  and  C_21
REMARK    6  A    between atoms: C_21  and  N_22
REMARK                            x       y       z     vdW  Elec       q    Type
REMARK                         _______ _______ _______ _____ _____    ______ ____
ROOT
ATOM      1  O   UNL     1       8.580   7.416  18.919  0.00  0.00    +0.000 OA
ATOM      2  C   UNL     1       8.021   8.229  18.193  0.00  0.00    +0.000 C 
ATOM      3  N   UNL     1       7.039   7.965  17.248  0.00  0.00    +0.000 N 
ATOM      4  H   UNL     1       6.815   8.701  16.591  0.00  0.00    +0.000 HD
ENDROOT
BRANCH   3   5
ATOM      5  C   UNL     1       6.446   6.706  17.000  0.00  0.00    +0.000 A 
ATOM      6  C   UNL     1       7.123   5.662  16.371  0.00  0.00    +0.000 A 
ATOM      7  C   UNL     1       6.483   4.449  16.122  0.00  0.00    +0.000 A 
ATOM      8  C   UNL     1       5.155   4.265  16.496  0.00  0.00    +0.000 A 
ATOM      9  C   UNL     1       4.462   5.292  17.132  0.00  0.00    +0.000 A 
ATOM     10  C   UNL     1       5.119   6.501  17.408  0.00  0.00    +0.000 A 
BRANCH   9  11
ATOM     11  O   UNL     1       3.156   5.217  17.540  0.00  0.00    +0.000 OA
BRANCH  11  12
ATOM     12  C   UNL     1       2.818   4.181  18.467  0.00  0.00    +0.000 C 
ATOM     13  C   UNL     1       1.933   3.107  17.835  0.00  0.00    +0.000 C 
ATOM     14  C   UNL     1       1.017   2.600  18.942  0.00  0.00    +0.000 C 
ATOM     15  C   UNL     1       1.134   3.588  20.096  0.00  0.00    +0.000 C 
ATOM     16  C   UNL     1       1.935   4.766  19.567  0.00  0.00    +0.000 C 
ENDBRANCH  11  12
ENDBRANCH   9  11
ENDBRANCH   3   5
BRANCH   2  17
ATOM     17  C   UNL     1       8.463   9.651  18.281  0.00  0.00    +0.000 A 
ATOM     18  C   UNL     1       8.020  10.612  17.364  0.00  0.00    +0.000 A 
ATOM     19  C   UNL     1       8.452  11.932  17.490  0.00  0.00    +0.000 A 
ATOM     20  C   UNL     1       9.292  12.302  18.543  0.00  0.00    +0.000 A 
ATOM     21  C   UNL     1       9.695  11.363  19.502  0.00  0.00    +0.000 A 
ATOM     22  C   UNL     1       9.292  10.029  19.347  0.00  0.00    +0.000 A 
BRANCH  21  23
ATOM     23  C   UNL     1      10.542  11.781  20.681  0.00  0.00    +0.000 C 
BRANCH  23  24
ATOM     24  N   UNL     1       9.913  12.810  21.472  0.00  0.00    +0.000 N 
ATOM     25  C   UNL     1       8.896  12.601  22.360  0.00  0.00    +0.000 C 
ATOM     26  O   UNL     1       8.357  11.535  22.622  0.00  0.00    +0.000 OA
ATOM     27  C   UNL     1       8.522  13.936  22.983  0.00  0.00    +0.000 C 
ATOM     28  N   UNL     1       9.425  14.813  22.294  0.00  0.00    +0.000 N 
ATOM     29  C   UNL     1      10.229  14.131  21.409  0.00  0.00    +0.000 C 
ATOM     30  O   UNL     1      11.064  14.665  20.699  0.00  0.00    +0.000 OA
ATOM     31  H   UNL     1       9.504  15.814  22.415  0.00  0.00    +0.000 HD
ENDBRANCH  23  24
ENDBRANCH  21  23
ENDBRANCH   2  17
TORSDOF 6
ENDMDL
