MODEL 1
REMARK VINA RESULT:      -9.0      0.000      0.000
REMARK  Name = 
REMARK  10 active torsions:
REMARK  status: ('A' for Active; 'I' for Inactive)
REMARK    1  A    between atoms: C_1  and  C_2
REMARK    2  A    between atoms: C_5  and  C_6
REMARK    3  A    between atoms: C_6  and  C_7
REMARK    4  A    between atoms: C_7  and  C_8
REMARK    5  A    between atoms: C_7  and  C_9
REMARK    6  A    between atoms: C_13  and  N_14
REMARK    7  A    between atoms: C_15  and  C_17
REMARK    8  A    between atoms: C_20  and  C_21
REMARK    9  A    between atoms: C_22  and  C_23
REMARK   10  A    between atoms: C_23  and  O_24
REMARK                            x       y       z     vdW  Elec       q    Type
REMARK                         _______ _______ _______ _____ _____    ______ ____
ROOT
ATOM      1  N   UNL     1       2.486   7.514  18.952  0.00  0.00    +0.000 N 
ATOM      2  C   UNL     1       1.794   8.584  18.400  0.00  0.00    +0.000 C 
ATOM      3  O   UNL     1       1.439   8.677  17.227  0.00  0.00    +0.000 OA
ATOM      4  H   UNL     1       2.560   7.465  19.958  0.00  0.00    +0.000 HD
ENDROOT
BRANCH   2   5
ATOM      5  C   UNL     1       1.377   9.696  19.302  0.00  0.00    +0.000 A 
ATOM      6  C   UNL     1       1.386  11.043  18.947  0.00  0.00    +0.000 A 
ATOM      7  C   UNL     1       0.863  11.996  19.836  0.00  0.00    +0.000 A 
ATOM      8  C   UNL     1       0.305  11.620  21.074  0.00  0.00    +0.000 A 
ATOM      9  C   UNL     1      -0.277  12.677  21.976  0.00  0.00    +0.000 C 
ATOM     10  C   UNL     1       0.275  10.259  21.429  0.00  0.00    +0.000 A 
ATOM     11  C   UNL     1       0.839   9.323  20.543  0.00  0.00    +0.000 A 
BRANCH  10  12
ATOM     12  C   UNL     1      -0.435   9.718  22.647  0.00  0.00    +0.000 C 
ATOM     13  F   UNL     1      -1.497  10.471  23.039  0.00  0.00    +0.000 F 
ATOM     14  F   UNL     1      -0.890   8.446  22.548  0.00  0.00    +0.000 F 
BRANCH  12  15
ATOM     15  O   UNL     1       0.468   9.752  23.732  0.00  0.00    +0.000 OA
ATOM     16  H   UNL     1       1.276  10.089  23.314  0.00  0.00    +0.000 HD
ENDBRANCH  12  15
ENDBRANCH  10  12
ENDBRANCH   2   5
BRANCH   1  21
ATOM     17  C   UNL     1       4.556   5.301  16.756  0.00  0.00    +0.000 A 
ATOM     18  C   UNL     1       3.840   4.098  16.851  0.00  0.00    +0.000 A 
ATOM     19  C   UNL     1       2.667   4.028  17.600  0.00  0.00    +0.000 A 
ATOM     20  C   UNL     1       2.199   5.152  18.275  0.00  0.00    +0.000 A 
ATOM     21  C   UNL     1       2.894   6.364  18.225  0.00  0.00    +0.000 A 
ATOM     22  C   UNL     1       4.053   6.436  17.434  0.00  0.00    +0.000 A 
BRANCH  17  23
ATOM     23  C   UNL     1       5.823   5.423  15.906  0.00  0.00    +0.000 C 
ATOM     24  C   UNL     1       5.553   4.815  14.525  0.00  0.00    +0.000 C 
BRANCH  23  25
ATOM     25  C   UNL     1       7.073   4.810  16.563  0.00  0.00    +0.000 C 
BRANCH  25  30
ATOM     26  C   UNL     1       8.259   7.476  18.469  0.00  0.00    +0.000 C 
ATOM     27  C   UNL     1       7.656   6.191  18.793  0.00  0.00    +0.000 C 
ATOM     28  N   UNL     1       7.374   5.550  19.869  0.00  0.00    +0.000 NA
ATOM     29  N   UNL     1       6.886   4.435  19.076  0.00  0.00    +0.000 NA
ATOM     30  C   UNL     1       7.195   5.077  18.003  0.00  0.00    +0.000 C 
ENDBRANCH  25  30
ENDBRANCH  23  25
ENDBRANCH  17  23
ENDBRANCH   1  21
TORSDOF 7
ENDMDL
MODEL 2
REMARK VINA RESULT:      -8.8      2.320      2.699
REMARK  Name = 
REMARK  10 active torsions:
REMARK  status: ('A' for Active; 'I' for Inactive)
REMARK    1  A    between atoms: C_1  and  C_2
REMARK    2  A    between atoms: C_5  and  C_6
REMARK    3  A    between atoms: C_6  and  C_7
REMARK    4  A    between atoms: C_7  and  C_8
REMARK    5  A    between atoms: C_7  and  C_9
REMARK    6  A    between atoms: C_13  and  N_14
REMARK    7  A    between atoms: C_15  and  C_17
REMARK    8  A    between atoms: C_20  and  C_21
REMARK    9  A    between atoms: C_22  and  C_23
REMARK   10  A    between atoms: C_23  and  O_24
REMARK                            x       y       z     vdW  Elec       q    Type
REMARK                         _______ _______ _______ _____ _____    ______ ____
ROOT
ATOM      1  N   UNL     1       2.364   6.944  18.833  0.00  0.00    +0.000 N 
ATOM      2  C   UNL     1       2.197   8.188  18.240  0.00  0.00    +0.000 C 
ATOM      3  O   UNL     1       2.490   8.471  17.080  0.00  0.00    +0.000 OA
ATOM      4  H   UNL     1       1.920   6.781  19.726  0.00  0.00    +0.000 HD
ENDROOT
BRANCH   2   5
ATOM      5  C   UNL     1       1.549   9.269  19.035  0.00  0.00    +0.000 A 
ATOM      6  C   UNL     1       0.995   9.093  20.301  0.00  0.00    +0.000 A 
ATOM      7  C   UNL     1       0.513  10.206  21.007  0.00  0.00    +0.000 A 
ATOM      8  C   UNL     1       0.599  11.509  20.476  0.00  0.00    +0.000 A 
ATOM      9  C   UNL     1       0.102  12.676  21.289  0.00  0.00    +0.000 C 
ATOM     10  C   UNL     1       1.175  11.696  19.205  0.00  0.00    +0.000 A 
ATOM     11  C   UNL     1       1.616  10.563  18.497  0.00  0.00    +0.000 A 
BRANCH  10  12
ATOM     12  C   UNL     1       1.468  13.048  18.600  0.00  0.00    +0.000 C 
ATOM     13  F   UNL     1       0.360  13.700  18.158  0.00  0.00    +0.000 F 
ATOM     14  F   UNL     1       2.127  13.922  19.398  0.00  0.00    +0.000 F 
BRANCH  12  15
ATOM     15  O   UNL     1       2.267  12.850  17.452  0.00  0.00    +0.000 OA
ATOM     16  H   UNL     1       3.022  12.358  17.812  0.00  0.00    +0.000 HD
ENDBRANCH  12  15
ENDBRANCH  10  12
ENDBRANCH   2   5
BRANCH   1  21
ATOM     17  C   UNL     1       4.645   4.889  16.692  0.00  0.00    +0.000 A 
ATOM     18  C   UNL     1       4.136   3.604  16.932  0.00  0.00    +0.000 A 
ATOM     19  C   UNL     1       3.032   3.420  17.759  0.00  0.00    +0.000 A 
ATOM     20  C   UNL     1       2.425   4.515  18.371  0.00  0.00    +0.000 A 
ATOM     21  C   UNL     1       2.913   5.810  18.177  0.00  0.00    +0.000 A 
ATOM     22  C   UNL     1       4.002   5.989  17.307  0.00  0.00    +0.000 A 
BRANCH  17  23
ATOM     23  C   UNL     1       5.829   5.130  15.753  0.00  0.00    +0.000 C 
ATOM     24  C   UNL     1       5.531   4.470  14.402  0.00  0.00    +0.000 C 
BRANCH  23  25
ATOM     25  C   UNL     1       7.180   4.666  16.327  0.00  0.00    +0.000 C 
BRANCH  25  30
ATOM     26  C   UNL     1       7.671   7.884  17.574  0.00  0.00    +0.000 C 
ATOM     27  C   UNL     1       7.676   6.556  18.172  0.00  0.00    +0.000 C 
ATOM     28  N   UNL     1       7.893   6.072  19.341  0.00  0.00    +0.000 NA
ATOM     29  N   UNL     1       7.696   4.730  18.821  0.00  0.00    +0.000 NA
ATOM     30  C   UNL     1       7.503   5.225  17.648  0.00  0.00    +0.000 C 
ENDBRANCH  25  30
ENDBRANCH  23  25
ENDBRANCH  17  23
ENDBRANCH   1  21
TORSDOF 7
ENDMDL
MODEL 3
REMARK VINA RESULT:      -8.5      1.845      3.233
REMARK  Name = 
REMARK  10 active torsions:
REMARK  status: ('A' for Active; 'I' for Inactive)
REMARK    1  A    between atoms: C_1  and  C_2
REMARK    2  A    between atoms: C_5  and  C_6
REMARK    3  A    between atoms: C_6  and  C_7
REMARK    4  A    between atoms: C_7  and  C_8
REMARK    5  A    between atoms: C_7  and  C_9
REMARK    6  A    between atoms: C_13  and  N_14
REMARK    7  A    between atoms: C_15  and  C_17
REMARK    8  A    between atoms: C_20  and  C_21
REMARK    9  A    between atoms: C_22  and  C_23
REMARK   10  A    between atoms: C_23  and  O_24
REMARK                            x       y       z     vdW  Elec       q    Type
REMARK                         _______ _______ _______ _____ _____    ______ ____
ROOT
ATOM      1  N   UNL     1       2.426   7.702  19.137  0.00  0.00    +0.000 N 
ATOM      2  C   UNL     1       1.793   8.790  18.552  0.00  0.00    +0.000 C 
ATOM      3  O   UNL     1       1.620   8.954  17.347  0.00  0.00    +0.000 OA
ATOM      4  H   UNL     1       2.347   7.587  20.137  0.00  0.00    +0.000 HD
ENDROOT
BRANCH   2   5
ATOM      5  C   UNL     1       1.208   9.830  19.446  0.00  0.00    +0.000 A 
ATOM      6  C   UNL     1       0.939  11.141  19.059  0.00  0.00    +0.000 A 
ATOM      7  C   UNL     1       0.280  12.004  19.949  0.00  0.00    +0.000 A 
ATOM      8  C   UNL     1      -0.140  11.569  21.222  0.00  0.00    +0.000 A 
ATOM      9  C   UNL     1      -0.877  12.523  22.126  0.00  0.00    +0.000 C 
ATOM     10  C   UNL     1       0.112  10.240  21.611  0.00  0.00    +0.000 A 
ATOM     11  C   UNL     1       0.808   9.401  20.721  0.00  0.00    +0.000 A 
BRANCH  10  12
ATOM     12  C   UNL     1      -0.426   9.612  22.875  0.00  0.00    +0.000 C 
ATOM     13  F   UNL     1       0.510   9.457  23.848  0.00  0.00    +0.000 F 
ATOM     14  F   UNL     1      -1.471  10.252  23.453  0.00  0.00    +0.000 F 
BRANCH  12  15
ATOM     15  O   UNL     1      -0.861   8.305  22.564  0.00  0.00    +0.000 OA
ATOM     16  H   UNL     1      -0.516   8.185  21.664  0.00  0.00    +0.000 HD
ENDBRANCH  12  15
ENDBRANCH  10  12
ENDBRANCH   2   5
BRANCH   1  21
ATOM     17  C   UNL     1       2.773   4.274  17.673  0.00  0.00    +0.000 A 
ATOM     18  C   UNL     1       3.937   4.436  16.907  0.00  0.00    +0.000 A 
ATOM     19  C   UNL     1       4.620   5.650  16.902  0.00  0.00    +0.000 A 
ATOM     20  C   UNL     1       4.146   6.724  17.652  0.00  0.00    +0.000 A 
ATOM     21  C   UNL     1       2.979   6.611  18.411  0.00  0.00    +0.000 A 
ATOM     22  C   UNL     1       2.319   5.371  18.443  0.00  0.00    +0.000 A 
BRANCH  17  23
ATOM     23  C   UNL     1       2.024   2.941  17.735  0.00  0.00    +0.000 C 
ATOM     24  C   UNL     1       0.762   3.122  18.588  0.00  0.00    +0.000 C 
BRANCH  23  25
ATOM     25  C   UNL     1       2.884   1.767  18.234  0.00  0.00    +0.000 C 
BRANCH  25  30
ATOM     26  C   UNL     1       2.208   2.669  21.533  0.00  0.00    +0.000 C 
ATOM     27  C   UNL     1       3.431   2.419  20.783  0.00  0.00    +0.000 C 
ATOM     28  N   UNL     1       4.690   2.471  21.029  0.00  0.00    +0.000 NA
ATOM     29  N   UNL     1       4.974   2.103  19.654  0.00  0.00    +0.000 NA
ATOM     30  C   UNL     1       3.709   2.077  19.412  0.00  0.00    +0.000 C 
ENDBRANCH  25  30
ENDBRANCH  23  25
ENDBRANCH  17  23
ENDBRANCH   1  21
TORSDOF 7
ENDMDL
MODEL 4
REMARK VINA RESULT:      -8.5      1.095      1.136
REMARK  Name = 
REMARK  10 active torsions:
REMARK  status: ('A' for Active; 'I' for Inactive)
REMARK    1  A    between atoms: C_1  and  C_2
REMARK    2  A    between atoms: C_5  and  C_6
REMARK    3  A    between atoms: C_6  and  C_7
REMARK    4  A    between atoms: C_7  and  C_8
REMARK    5  A    between atoms: C_7  and  C_9
REMARK    6  A    between atoms: C_13  and  N_14
REMARK    7  A    between atoms: C_15  and  C_17
REMARK    8  A    between atoms: C_20  and  C_21
REMARK    9  A    between atoms: C_22  and  C_23
REMARK   10  A    between atoms: C_23  and  O_24
REMARK                            x       y       z     vdW  Elec       q    Type
REMARK                         _______ _______ _______ _____ _____    ______ ____
ROOT
ATOM      1  N   UNL     1       2.229   7.204  18.221  0.00  0.00    +0.000 N 
ATOM      2  C   UNL     1       1.934   7.532  19.537  0.00  0.00    +0.000 C 
ATOM      3  O   UNL     1       2.191   6.843  20.521  0.00  0.00    +0.000 OA
ATOM      4  H   UNL     1       2.138   7.925  17.520  0.00  0.00    +0.000 HD
ENDROOT
BRANCH   2   5
ATOM      5  C   UNL     1       1.310   8.859  19.812  0.00  0.00    +0.000 A 
ATOM      6  C   UNL     1       1.030   9.814  18.838  0.00  0.00    +0.000 A 
ATOM      7  C   UNL     1       0.336  10.982  19.194  0.00  0.00    +0.000 A 
ATOM      8  C   UNL     1      -0.110  11.201  20.513  0.00  0.00    +0.000 A 
ATOM      9  C   UNL     1      -0.883  12.453  20.835  0.00  0.00    +0.000 C 
ATOM     10  C   UNL     1       0.153  10.230  21.496  0.00  0.00    +0.000 A 
ATOM     11  C   UNL     1       0.884   9.085  21.129  0.00  0.00    +0.000 A 
BRANCH  10  12
ATOM     12  C   UNL     1      -0.406  10.273  22.898  0.00  0.00    +0.000 C 
ATOM     13  F   UNL     1      -0.652  11.531  23.350  0.00  0.00    +0.000 F 
ATOM     14  F   UNL     1      -1.546   9.570  23.101  0.00  0.00    +0.000 F 
BRANCH  12  15
ATOM     15  O   UNL     1       0.568   9.746  23.775  0.00  0.00    +0.000 OA
ATOM     16  H   UNL     1       0.137   9.841  24.639  0.00  0.00    +0.000 HD
ENDBRANCH  12  15
ENDBRANCH  10  12
ENDBRANCH   2   5
BRANCH   1  21
ATOM     17  C   UNL     1       4.737   4.927  16.628  0.00  0.00    +0.000 A 
ATOM     18  C   UNL     1       4.279   3.681  17.081  0.00  0.00    +0.000 A 
ATOM     19  C   UNL     1       3.136   3.588  17.871  0.00  0.00    +0.000 A 
ATOM     20  C   UNL     1       2.439   4.739  18.231  0.00  0.00    +0.000 A 
ATOM     21  C   UNL     1       2.874   6.002  17.821  0.00  0.00    +0.000 A 
ATOM     22  C   UNL     1       4.004   6.082  16.990  0.00  0.00    +0.000 A 
BRANCH  17  23
ATOM     23  C   UNL     1       5.964   5.059  15.723  0.00  0.00    +0.000 C 
ATOM     24  C   UNL     1       5.685   4.330  14.403  0.00  0.00    +0.000 C 
BRANCH  23  25
ATOM     25  C   UNL     1       7.271   4.575  16.374  0.00  0.00    +0.000 C 
BRANCH  25  30
ATOM     26  C   UNL     1       7.603   7.860  17.492  0.00  0.00    +0.000 C 
ATOM     27  C   UNL     1       7.679   6.559  18.141  0.00  0.00    +0.000 C 
ATOM     28  N   UNL     1       7.927   6.132  19.326  0.00  0.00    +0.000 NA
ATOM     29  N   UNL     1       7.796   4.763  18.860  0.00  0.00    +0.000 NA
ATOM     30  C   UNL     1       7.572   5.201  17.670  0.00  0.00    +0.000 C 
ENDBRANCH  25  30
ENDBRANCH  23  25
ENDBRANCH  17  23
ENDBRANCH   1  21
TORSDOF 7
ENDMDL
MODEL 5
REMARK VINA RESULT:      -8.5      2.390      3.445
REMARK  Name = 
REMARK  10 active torsions:
REMARK  status: ('A' for Active; 'I' for Inactive)
REMARK    1  A    between atoms: C_1  and  C_2
REMARK    2  A    between atoms: C_5  and  C_6
REMARK    3  A    between atoms: C_6  and  C_7
REMARK    4  A    between atoms: C_7  and  C_8
REMARK    5  A    between atoms: C_7  and  C_9
REMARK    6  A    between atoms: C_13  and  N_14
REMARK    7  A    between atoms: C_15  and  C_17
REMARK    8  A    between atoms: C_20  and  C_21
REMARK    9  A    between atoms: C_22  and  C_23
REMARK   10  A    between atoms: C_23  and  O_24
REMARK                            x       y       z     vdW  Elec       q    Type
REMARK                         _______ _______ _______ _____ _____    ______ ____
ROOT
ATOM      1  N   UNL     1       2.033   6.361  20.899  0.00  0.00    +0.000 N 
ATOM      2  C   UNL     1       1.819   7.526  20.175  0.00  0.00    +0.000 C 
ATOM      3  O   UNL     1       2.191   7.730  19.022  0.00  0.00    +0.000 OA
ATOM      4  H   UNL     1       1.525   6.240  21.763  0.00  0.00    +0.000 HD
ENDROOT
BRANCH   2   5
ATOM      5  C   UNL     1       1.015   8.612  20.805  0.00  0.00    +0.000 A 
ATOM      6  C   UNL     1       0.775   8.723  22.173  0.00  0.00    +0.000 A 
ATOM      7  C   UNL     1       0.101   9.851  22.668  0.00  0.00    +0.000 A 
ATOM      8  C   UNL     1      -0.321  10.890  21.815  0.00  0.00    +0.000 A 
ATOM      9  C   UNL     1      -1.008  12.097  22.400  0.00  0.00    +0.000 C 
ATOM     10  C   UNL     1      -0.065  10.792  20.435  0.00  0.00    +0.000 A 
ATOM     11  C   UNL     1       0.577   9.637  19.953  0.00  0.00    +0.000 A 
BRANCH  10  12
ATOM     12  C   UNL     1      -0.322  11.905  19.446  0.00  0.00    +0.000 C 
ATOM     13  F   UNL     1      -1.583  12.407  19.505  0.00  0.00    +0.000 F 
ATOM     14  F   UNL     1       0.513  12.968  19.524  0.00  0.00    +0.000 F 
BRANCH  12  15
ATOM     15  O   UNL     1      -0.194  11.371  18.144  0.00  0.00    +0.000 OA
ATOM     16  H   UNL     1       0.433  10.644  18.283  0.00  0.00    +0.000 HD
ENDBRANCH  12  15
ENDBRANCH  10  12
ENDBRANCH   2   5
BRANCH   1  21
ATOM     17  C   UNL     1       4.609   4.339  19.086  0.00  0.00    +0.000 A 
ATOM     18  C   UNL     1       4.240   3.042  19.475  0.00  0.00    +0.000 A 
ATOM     19  C   UNL     1       3.134   2.834  20.294  0.00  0.00    +0.000 A 
ATOM     20  C   UNL     1       2.385   3.917  20.749  0.00  0.00    +0.000 A 
ATOM     21  C   UNL     1       2.731   5.227  20.403  0.00  0.00    +0.000 A 
ATOM     22  C   UNL     1       3.823   5.424  19.543  0.00  0.00    +0.000 A 
BRANCH  17  23
ATOM     23  C   UNL     1       5.792   4.599  18.151  0.00  0.00    +0.000 C 
ATOM     24  C   UNL     1       6.837   5.437  18.897  0.00  0.00    +0.000 C 
BRANCH  23  25
ATOM     25  C   UNL     1       5.395   5.245  16.812  0.00  0.00    +0.000 C 
BRANCH  25  30
ATOM     26  C   UNL     1       6.001   3.838  13.680  0.00  0.00    +0.000 C 
ATOM     27  C   UNL     1       6.727   4.776  14.525  0.00  0.00    +0.000 C 
ATOM     28  N   UNL     1       7.850   5.396  14.461  0.00  0.00    +0.000 NA
ATOM     29  N   UNL     1       7.602   5.977  15.769  0.00  0.00    +0.000 NA
ATOM     30  C   UNL     1       6.489   5.332  15.833  0.00  0.00    +0.000 C 
ENDBRANCH  25  30
ENDBRANCH  23  25
ENDBRANCH  17  23
ENDBRANCH   1  21
TORSDOF 7
ENDMDL
MODEL 6
REMARK VINA RESULT:      -8.3      3.671      8.750
REMARK  Name = 
REMARK  10 active torsions:
REMARK  status: ('A' for Active; 'I' for Inactive)
REMARK    1  A    between atoms: C_1  and  C_2
REMARK    2  A    between atoms: C_5  and  C_6
REMARK    3  A    between atoms: C_6  and  C_7
REMARK    4  A    between atoms: C_7  and  C_8
REMARK    5  A    between atoms: C_7  and  C_9
REMARK    6  A    between atoms: C_13  and  N_14
REMARK    7  A    between atoms: C_15  and  C_17
REMARK    8  A    between atoms: C_20  and  C_21
REMARK    9  A    between atoms: C_22  and  C_23
REMARK   10  A    between atoms: C_23  and  O_24
REMARK                            x       y       z     vdW  Elec       q    Type
REMARK                         _______ _______ _______ _____ _____    ______ ____
ROOT
ATOM      1  N   UNL     1       1.817   8.505  17.886  0.00  0.00    +0.000 N 
ATOM      2  C   UNL     1       2.179   7.577  18.853  0.00  0.00    +0.000 C 
ATOM      3  O   UNL     1       2.179   7.772  20.067  0.00  0.00    +0.000 OA
ATOM      4  H   UNL     1       1.680   8.176  16.941  0.00  0.00    +0.000 HD
ENDROOT
BRANCH   2   5
ATOM      5  C   UNL     1       2.540   6.200  18.411  0.00  0.00    +0.000 A 
ATOM      6  C   UNL     1       3.667   5.885  17.656  0.00  0.00    +0.000 A 
ATOM      7  C   UNL     1       3.971   4.539  17.394  0.00  0.00    +0.000 A 
ATOM      8  C   UNL     1       3.173   3.492  17.898  0.00  0.00    +0.000 A 
ATOM      9  C   UNL     1       3.562   2.064  17.620  0.00  0.00    +0.000 C 
ATOM     10  C   UNL     1       2.044   3.804  18.678  0.00  0.00    +0.000 A 
ATOM     11  C   UNL     1       1.734   5.159  18.897  0.00  0.00    +0.000 A 
BRANCH  10  12
ATOM     12  C   UNL     1       1.208   2.777  19.404  0.00  0.00    +0.000 C 
ATOM     13  F   UNL     1       0.416   2.038  18.583  0.00  0.00    +0.000 F 
ATOM     14  F   UNL     1       1.892   1.892  20.167  0.00  0.00    +0.000 F 
BRANCH  12  15
ATOM     15  O   UNL     1       0.318   3.463  20.260  0.00  0.00    +0.000 OA
ATOM     16  H   UNL     1      -0.529   3.034  20.061  0.00  0.00    +0.000 HD
ENDBRANCH  12  15
ENDBRANCH  10  12
ENDBRANCH   2   5
BRANCH   1  21
ATOM     17  C   UNL     1      -0.406  11.348  18.880  0.00  0.00    +0.000 A 
ATOM     18  C   UNL     1       0.509  12.412  18.857  0.00  0.00    +0.000 A 
ATOM     19  C   UNL     1       1.834  12.201  18.482  0.00  0.00    +0.000 A 
ATOM     20  C   UNL     1       2.269  10.924  18.137  0.00  0.00    +0.000 A 
ATOM     21  C   UNL     1       1.396   9.833  18.168  0.00  0.00    +0.000 A 
ATOM     22  C   UNL     1       0.053  10.063  18.506  0.00  0.00    +0.000 A 
BRANCH  17  23
ATOM     23  C   UNL     1      -1.878  11.554  19.244  0.00  0.00    +0.000 C 
ATOM     24  C   UNL     1      -2.706  11.592  17.954  0.00  0.00    +0.000 C 
BRANCH  23  25
ATOM     25  C   UNL     1      -2.133  12.794  20.120  0.00  0.00    +0.000 C 
BRANCH  25  30
ATOM     26  C   UNL     1      -0.653  10.939  22.673  0.00  0.00    +0.000 C 
ATOM     27  C   UNL     1      -1.860  11.749  22.580  0.00  0.00    +0.000 C 
ATOM     28  N   UNL     1      -2.831  12.050  23.365  0.00  0.00    +0.000 NA
ATOM     29  N   UNL     1      -3.452  12.817  22.300  0.00  0.00    +0.000 NA
ATOM     30  C   UNL     1      -2.485  12.489  21.514  0.00  0.00    +0.000 C 
ENDBRANCH  25  30
ENDBRANCH  23  25
ENDBRANCH  17  23
ENDBRANCH   1  21
TORSDOF 7
ENDMDL
MODEL 7
REMARK VINA RESULT:      -8.3      1.353      1.528
REMARK  Name = 
REMARK  10 active torsions:
REMARK  status: ('A' for Active; 'I' for Inactive)
REMARK    1  A    between atoms: C_1  and  C_2
REMARK    2  A    between atoms: C_5  and  C_6
REMARK    3  A    between atoms: C_6  and  C_7
REMARK    4  A    between atoms: C_7  and  C_8
REMARK    5  A    between atoms: C_7  and  C_9
REMARK    6  A    between atoms: C_13  and  N_14
REMARK    7  A    between atoms: C_15  and  C_17
REMARK    8  A    between atoms: C_20  and  C_21
REMARK    9  A    between atoms: C_22  and  C_23
REMARK   10  A    between atoms: C_23  and  O_24
REMARK                            x       y       z     vdW  Elec       q    Type
REMARK                         _______ _______ _______ _____ _____    ______ ____
ROOT
ATOM      1  N   UNL     1       2.276   7.230  19.247  0.00  0.00    +0.000 N 
ATOM      2  C   UNL     1       1.963   8.386  18.544  0.00  0.00    +0.000 C 
ATOM      3  O   UNL     1       2.263   8.614  17.374  0.00  0.00    +0.000 OA
ATOM      4  H   UNL     1       1.822   7.078  20.136  0.00  0.00    +0.000 HD
ENDROOT
BRANCH   2   5
ATOM      5  C   UNL     1       1.139   9.426  19.224  0.00  0.00    +0.000 A 
ATOM      6  C   UNL     1       0.484  10.465  18.568  0.00  0.00    +0.000 A 
ATOM      7  C   UNL     1      -0.359  11.320  19.296  0.00  0.00    +0.000 A 
ATOM      8  C   UNL     1      -0.579  11.138  20.677  0.00  0.00    +0.000 A 
ATOM      9  C   UNL     1      -1.522  12.060  21.405  0.00  0.00    +0.000 C 
ATOM     10  C   UNL     1       0.066  10.078  21.340  0.00  0.00    +0.000 A 
ATOM     11  C   UNL     1       0.937   9.255  20.602  0.00  0.00    +0.000 A 
BRANCH  10  12
ATOM     12  C   UNL     1      -0.210   9.683  22.772  0.00  0.00    +0.000 C 
ATOM     13  F   UNL     1       0.912   9.415  23.490  0.00  0.00    +0.000 F 
ATOM     14  F   UNL     1      -0.924  10.574  23.502  0.00  0.00    +0.000 F 
BRANCH  12  15
ATOM     15  O   UNL     1      -0.942   8.475  22.759  0.00  0.00    +0.000 OA
ATOM     16  H   UNL     1      -1.040   8.287  23.706  0.00  0.00    +0.000 HD
ENDBRANCH  12  15
ENDBRANCH  10  12
ENDBRANCH   2   5
BRANCH   1  21
ATOM     17  C   UNL     1       4.625   5.319  17.046  0.00  0.00    +0.000 A 
ATOM     18  C   UNL     1       4.570   4.053  17.647  0.00  0.00    +0.000 A 
ATOM     19  C   UNL     1       3.740   3.822  18.741  0.00  0.00    +0.000 A 
ATOM     20  C   UNL     1       2.961   4.854  19.261  0.00  0.00    +0.000 A 
ATOM     21  C   UNL     1       3.003   6.136  18.706  0.00  0.00    +0.000 A 
ATOM     22  C   UNL     1       3.812   6.349  17.577  0.00  0.00    +0.000 A 
BRANCH  17  23
ATOM     23  C   UNL     1       5.493   5.595  15.817  0.00  0.00    +0.000 C 
ATOM     24  C   UNL     1       5.113   4.603  14.711  0.00  0.00    +0.000 C 
BRANCH  23  25
ATOM     25  C   UNL     1       7.005   5.572  16.105  0.00  0.00    +0.000 C 
BRANCH  25  30
ATOM     26  C   UNL     1       7.716   5.567  19.518  0.00  0.00    +0.000 C 
ATOM     27  C   UNL     1       7.778   6.580  18.474  0.00  0.00    +0.000 C 
ATOM     28  N   UNL     1       8.071   7.828  18.416  0.00  0.00    +0.000 NA
ATOM     29  N   UNL     1       7.768   7.834  16.997  0.00  0.00    +0.000 NA
ATOM     30  C   UNL     1       7.453   6.587  17.070  0.00  0.00    +0.000 C 
ENDBRANCH  25  30
ENDBRANCH  23  25
ENDBRANCH  17  23
ENDBRANCH   1  21
TORSDOF 7
ENDMDL
MODEL 8
REMARK VINA RESULT:      -8.3      1.699      2.590
REMARK  Name = 
REMARK  10 active torsions:
REMARK  status: ('A' for Active; 'I' for Inactive)
REMARK    1  A    between atoms: C_1  and  C_2
REMARK    2  A    between atoms: C_5  and  C_6
REMARK    3  A    between atoms: C_6  and  C_7
REMARK    4  A    between atoms: C_7  and  C_8
REMARK    5  A    between atoms: C_7  and  C_9
REMARK    6  A    between atoms: C_13  and  N_14
REMARK    7  A    between atoms: C_15  and  C_17
REMARK    8  A    between atoms: C_20  and  C_21
REMARK    9  A    between atoms: C_22  and  C_23
REMARK   10  A    between atoms: C_23  and  O_24
REMARK                            x       y       z     vdW  Elec       q    Type
REMARK                         _______ _______ _______ _____ _____    ______ ____
ROOT
ATOM      1  N   UNL     1       2.330   6.652  19.432  0.00  0.00    +0.000 N 
ATOM      2  C   UNL     1       2.266   7.827  18.696  0.00  0.00    +0.000 C 
ATOM      3  O   UNL     1       2.821   8.026  17.618  0.00  0.00    +0.000 OA
ATOM      4  H   UNL     1       1.688   6.540  20.204  0.00  0.00    +0.000 HD
ENDROOT
BRANCH   2   5
ATOM      5  C   UNL     1       1.402   8.932  19.202  0.00  0.00    +0.000 A 
ATOM      6  C   UNL     1       0.734   9.845  18.390  0.00  0.00    +0.000 A 
ATOM      7  C   UNL     1      -0.144  10.774  18.971  0.00  0.00    +0.000 A 
ATOM      8  C   UNL     1      -0.388  10.790  20.359  0.00  0.00    +0.000 A 
ATOM      9  C   UNL     1      -1.368  11.781  20.928  0.00  0.00    +0.000 C 
ATOM     10  C   UNL     1       0.269   9.856  21.182  0.00  0.00    +0.000 A 
ATOM     11  C   UNL     1       1.175   8.959  20.587  0.00  0.00    +0.000 A 
BRANCH  10  12
ATOM     12  C   UNL     1      -0.027   9.667  22.651  0.00  0.00    +0.000 C 
ATOM     13  F   UNL     1       1.062   9.323  23.387  0.00  0.00    +0.000 F 
ATOM     14  F   UNL     1      -0.590  10.726  23.280  0.00  0.00    +0.000 F 
BRANCH  12  15
ATOM     15  O   UNL     1      -0.923   8.583  22.781  0.00  0.00    +0.000 OA
ATOM     16  H   UNL     1      -1.173   8.637  23.717  0.00  0.00    +0.000 HD
ENDBRANCH  12  15
ENDBRANCH  10  12
ENDBRANCH   2   5
BRANCH   1  21
ATOM     17  C   UNL     1       5.257   4.451  18.658  0.00  0.00    +0.000 A 
ATOM     18  C   UNL     1       4.606   3.237  18.394  0.00  0.00    +0.000 A 
ATOM     19  C   UNL     1       3.216   3.154  18.433  0.00  0.00    +0.000 A 
ATOM     20  C   UNL     1       2.456   4.278  18.749  0.00  0.00    +0.000 A 
ATOM     21  C   UNL     1       3.066   5.501  19.041  0.00  0.00    +0.000 A 
ATOM     22  C   UNL     1       4.466   5.585  18.959  0.00  0.00    +0.000 A 
BRANCH  17  23
ATOM     23  C   UNL     1       6.780   4.587  18.581  0.00  0.00    +0.000 C 
ATOM     24  C   UNL     1       7.218   5.758  19.468  0.00  0.00    +0.000 C 
BRANCH  23  25
ATOM     25  C   UNL     1       7.318   4.729  17.146  0.00  0.00    +0.000 C 
BRANCH  25  30
ATOM     26  C   UNL     1       5.454   4.178  14.252  0.00  0.00    +0.000 C 
ATOM     27  C   UNL     1       5.699   5.343  15.091  0.00  0.00    +0.000 C 
ATOM     28  N   UNL     1       5.365   6.582  15.068  0.00  0.00    +0.000 NA
ATOM     29  N   UNL     1       6.147   6.815  16.269  0.00  0.00    +0.000 NA
ATOM     30  C   UNL     1       6.495   5.575  16.269  0.00  0.00    +0.000 C 
ENDBRANCH  25  30
ENDBRANCH  23  25
ENDBRANCH  17  23
ENDBRANCH   1  21
TORSDOF 7
ENDMDL
MODEL 9
REMARK VINA RESULT:      -8.2      1.915      2.777
REMARK  Name = 
REMARK  10 active torsions:
REMARK  status: ('A' for Active; 'I' for Inactive)
REMARK    1  A    between atoms: C_1  and  C_2
REMARK    2  A    between atoms: C_5  and  C_6
REMARK    3  A    between atoms: C_6  and  C_7
REMARK    4  A    between atoms: C_7  and  C_8
REMARK    5  A    between atoms: C_7  and  C_9
REMARK    6  A    between atoms: C_13  and  N_14
REMARK    7  A    between atoms: C_15  and  C_17
REMARK    8  A    between atoms: C_20  and  C_21
REMARK    9  A    between atoms: C_22  and  C_23
REMARK   10  A    between atoms: C_23  and  O_24
REMARK                            x       y       z     vdW  Elec       q    Type
REMARK                         _______ _______ _______ _____ _____    ______ ____
ROOT
ATOM      1  N   UNL     1       2.256   6.687  20.171  0.00  0.00    +0.000 N 
ATOM      2  C   UNL     1       2.062   7.734  19.280  0.00  0.00    +0.000 C 
ATOM      3  O   UNL     1       2.360   7.723  18.087  0.00  0.00    +0.000 OA
ATOM      4  H   UNL     1       1.807   6.743  21.074  0.00  0.00    +0.000 HD
ENDROOT
BRANCH   2   5
ATOM      5  C   UNL     1       1.378   8.964  19.773  0.00  0.00    +0.000 A 
ATOM      6  C   UNL     1       1.062  10.062  18.977  0.00  0.00    +0.000 A 
ATOM      7  C   UNL     1       0.314  11.118  19.521  0.00  0.00    +0.000 A 
ATOM      8  C   UNL     1      -0.149  11.085  20.852  0.00  0.00    +0.000 A 
ATOM      9  C   UNL     1      -0.980  12.226  21.377  0.00  0.00    +0.000 C 
ATOM     10  C   UNL     1       0.152   9.969  21.655  0.00  0.00    +0.000 A 
ATOM     11  C   UNL     1       0.936   8.938  21.104  0.00  0.00    +0.000 A 
BRANCH  10  12
ATOM     12  C   UNL     1      -0.417   9.742  23.035  0.00  0.00    +0.000 C 
ATOM     13  F   UNL     1       0.530   9.619  24.003  0.00  0.00    +0.000 F 
ATOM     14  F   UNL     1      -1.287  10.682  23.476  0.00  0.00    +0.000 F 
BRANCH  12  15
ATOM     15  O   UNL     1      -1.106   8.509  23.028  0.00  0.00    +0.000 OA
ATOM     16  H   UNL     1      -1.760   8.638  23.733  0.00  0.00    +0.000 HD
ENDBRANCH  12  15
ENDBRANCH  10  12
ENDBRANCH   2   5
BRANCH   1  21
ATOM     17  C   UNL     1       4.568   4.216  18.571  0.00  0.00    +0.000 A 
ATOM     18  C   UNL     1       4.135   3.027  19.177  0.00  0.00    +0.000 A 
ATOM     19  C   UNL     1       3.069   3.034  20.074  0.00  0.00    +0.000 A 
ATOM     20  C   UNL     1       2.427   4.229  20.389  0.00  0.00    +0.000 A 
ATOM     21  C   UNL     1       2.841   5.439  19.825  0.00  0.00    +0.000 A 
ATOM     22  C   UNL     1       3.889   5.416  18.891  0.00  0.00    +0.000 A 
BRANCH  17  23
ATOM     23  C   UNL     1       5.706   4.236  17.549  0.00  0.00    +0.000 C 
ATOM     24  C   UNL     1       6.963   4.802  18.220  0.00  0.00    +0.000 C 
BRANCH  23  25
ATOM     25  C   UNL     1       5.364   4.991  16.253  0.00  0.00    +0.000 C 
BRANCH  25  30
ATOM     26  C   UNL     1       6.023   3.661  13.099  0.00  0.00    +0.000 C 
ATOM     27  C   UNL     1       6.739   4.571  13.982  0.00  0.00    +0.000 C 
ATOM     28  N   UNL     1       7.867   5.183  13.957  0.00  0.00    +0.000 NA
ATOM     29  N   UNL     1       7.597   5.732  15.274  0.00  0.00    +0.000 NA
ATOM     30  C   UNL     1       6.478   5.095  15.299  0.00  0.00    +0.000 C 
ENDBRANCH  25  30
ENDBRANCH  23  25
ENDBRANCH  17  23
ENDBRANCH   1  21
TORSDOF 7
ENDMDL
