MODEL 1
REMARK VINA RESULT:      -8.6      0.000      0.000
REMARK  Name = 
REMARK  5 active torsions:
REMARK  status: ('A' for Active; 'I' for Inactive)
REMARK    1  A    between atoms: C_1  and  C_2
REMARK    2  A    between atoms: C_8  and  C_9
REMARK    3  A    between atoms: N_11  and  C_12
REMARK    4  A    between atoms: C_15  and  O_16
REMARK    5  A    between atoms: O_16  and  C_17
REMARK                            x       y       z     vdW  Elec       q    Type
REMARK                         _______ _______ _______ _____ _____    ______ ____
ROOT
ATOM      1  C   UNL     1       1.842   8.408  19.651  0.00  0.00    +0.000 A 
ATOM      2  C   UNL     1       1.708   7.195  20.308  0.00  0.00    +0.000 A 
ATOM      3  C   UNL     1       2.174   5.985  19.791  0.00  0.00    +0.000 A 
ATOM      4  C   UNL     1       2.961   5.943  18.671  0.00  0.00    +0.000 A 
ATOM      5  C   UNL     1       3.062   7.191  17.936  0.00  0.00    +0.000 A 
ATOM      6  F   UNL     1       3.825   7.329  16.829  0.00  0.00    +0.000 F 
ATOM      7  C   UNL     1       2.399   8.393  18.370  0.00  0.00    +0.000 A 
ENDROOT
BRANCH   1  10
ATOM      8  C   UNL     1       0.066  10.099  20.117  0.00  0.00    +0.000 C 
ATOM      9  O   UNL     1      -0.763   9.550  19.387  0.00  0.00    +0.000 OA
ATOM     10  N   UNL     1       1.360   9.586  20.286  0.00  0.00    +0.000 N 
ATOM     11  H   UNL     1       2.000   9.983  20.944  0.00  0.00    +0.000 HD
BRANCH   8  19
ATOM     12  C   UNL     1      -0.864  10.116  23.149  0.00  0.00    +0.000 C 
ATOM     13  C   UNL     1      -0.795  11.361  22.338  0.00  0.00    +0.000 A 
ATOM     14  C   UNL     1      -1.124  12.528  22.930  0.00  0.00    +0.000 A 
ATOM     15  C   UNL     1      -1.254  13.771  22.142  0.00  0.00    +0.000 A 
ATOM     16  O   UNL     1      -1.748  14.783  22.623  0.00  0.00    +0.000 OA
ATOM     17  N   UNL     1      -0.809  13.680  20.851  0.00  0.00    +0.000 N 
ATOM     18  C   UNL     1      -0.358  12.511  20.270  0.00  0.00    +0.000 A 
ATOM     19  C   UNL     1      -0.384  11.326  20.926  0.00  0.00    +0.000 A 
ATOM     20  H   UNL     1      -0.905  14.525  20.299  0.00  0.00    +0.000 HD
ENDBRANCH   8  19
ENDBRANCH   1  10
BRANCH   4  21
ATOM     21  O   UNL     1       3.851   4.859  18.664  0.00  0.00    +0.000 OA
BRANCH  21  22
ATOM     22  C   UNL     1       5.309   4.771  18.595  0.00  0.00    +0.000 A 
ATOM     23  C   UNL     1       6.569   5.518  19.428  0.00  0.00    +0.000 A 
ATOM     24  C   UNL     1       7.797   5.941  18.944  0.00  0.00    +0.000 A 
ATOM     25  N   UNL     1       7.314   5.398  17.898  0.00  0.00    +0.000 NA
ATOM     26  C   UNL     1       6.849   4.855  16.830  0.00  0.00    +0.000 A 
ATOM     27  C   UNL     1       7.492   4.959  15.639  0.00  0.00    +0.000 A 
ATOM     28  C   UNL     1       6.712   4.716  14.544  0.00  0.00    +0.000 A 
ATOM     29 CL   UNL     1       7.426   5.034  13.016  0.00  0.00    +0.000 Cl
ATOM     30  C   UNL     1       5.379   4.277  14.704  0.00  0.00    +0.000 A 
ATOM     31  C   UNL     1       4.811   4.126  15.999  0.00  0.00    +0.000 A 
ATOM     32  C   UNL     1       5.585   4.481  17.150  0.00  0.00    +0.000 A 
ENDBRANCH  21  22
ENDBRANCH   4  21
TORSDOF 4
ENDMDL
MODEL 2
REMARK VINA RESULT:      -8.6      0.770      1.332
REMARK  Name = 
REMARK  5 active torsions:
REMARK  status: ('A' for Active; 'I' for Inactive)
REMARK    1  A    between atoms: C_1  and  C_2
REMARK    2  A    between atoms: C_8  and  C_9
REMARK    3  A    between atoms: N_11  and  C_12
REMARK    4  A    between atoms: C_15  and  O_16
REMARK    5  A    between atoms: O_16  and  C_17
REMARK                            x       y       z     vdW  Elec       q    Type
REMARK                         _______ _______ _______ _____ _____    ______ ____
ROOT
ATOM      1  C   UNL     1       1.809   8.028  19.976  0.00  0.00    +0.000 A 
ATOM      2  C   UNL     1       1.768   6.782  20.583  0.00  0.00    +0.000 A 
ATOM      3  C   UNL     1       2.254   5.619  19.984  0.00  0.00    +0.000 A 
ATOM      4  C   UNL     1       2.972   5.662  18.819  0.00  0.00    +0.000 A 
ATOM      5  C   UNL     1       2.973   6.943  18.137  0.00  0.00    +0.000 A 
ATOM      6  F   UNL     1       3.660   7.165  16.994  0.00  0.00    +0.000 F 
ATOM      7  C   UNL     1       2.287   8.094  18.664  0.00  0.00    +0.000 A 
ENDROOT
BRANCH   1  10
ATOM      8  C   UNL     1       0.353  10.044  20.195  0.00  0.00    +0.000 C 
ATOM      9  O   UNL     1      -0.143   9.908  19.073  0.00  0.00    +0.000 OA
ATOM     10  N   UNL     1       1.315   9.153  20.692  0.00  0.00    +0.000 N 
ATOM     11  H   UNL     1       1.652   9.215  21.631  0.00  0.00    +0.000 HD
BRANCH   8  19
ATOM     12  C   UNL     1       0.609  13.157  19.649  0.00  0.00    +0.000 C 
ATOM     13  C   UNL     1      -0.096  12.622  20.843  0.00  0.00    +0.000 A 
ATOM     14  C   UNL     1      -0.654  13.499  21.703  0.00  0.00    +0.000 A 
ATOM     15  C   UNL     1      -1.207  13.051  22.997  0.00  0.00    +0.000 A 
ATOM     16  O   UNL     1      -1.526  13.851  23.866  0.00  0.00    +0.000 OA
ATOM     17  N   UNL     1      -1.303  11.693  23.139  0.00  0.00    +0.000 N 
ATOM     18  C   UNL     1      -0.839  10.784  22.208  0.00  0.00    +0.000 A 
ATOM     19  C   UNL     1      -0.181  11.174  21.090  0.00  0.00    +0.000 A 
ATOM     20  H   UNL     1      -1.671  11.375  24.029  0.00  0.00    +0.000 HD
ENDBRANCH   8  19
ENDBRANCH   1  10
BRANCH   4  21
ATOM     21  O   UNL     1       3.906   4.622  18.709  0.00  0.00    +0.000 OA
BRANCH  21  22
ATOM     22  C   UNL     1       5.366   4.602  18.627  0.00  0.00    +0.000 A 
ATOM     23  C   UNL     1       6.598   5.387  19.466  0.00  0.00    +0.000 A 
ATOM     24  C   UNL     1       7.801   5.876  18.982  0.00  0.00    +0.000 A 
ATOM     25  N   UNL     1       7.334   5.335  17.928  0.00  0.00    +0.000 NA
ATOM     26  C   UNL     1       6.884   4.795  16.852  0.00  0.00    +0.000 A 
ATOM     27  C   UNL     1       7.512   4.955  15.658  0.00  0.00    +0.000 A 
ATOM     28  C   UNL     1       6.734   4.701  14.564  0.00  0.00    +0.000 A 
ATOM     29 CL   UNL     1       7.418   5.086  13.039  0.00  0.00    +0.000 Cl
ATOM     30  C   UNL     1       5.423   4.199  14.725  0.00  0.00    +0.000 A 
ATOM     31  C   UNL     1       4.875   3.993  16.021  0.00  0.00    +0.000 A 
ATOM     32  C   UNL     1       5.642   4.357  17.173  0.00  0.00    +0.000 A 
ENDBRANCH  21  22
ENDBRANCH   4  21
TORSDOF 4
ENDMDL
MODEL 3
REMARK VINA RESULT:      -8.5      3.601      4.567
REMARK  Name = 
REMARK  5 active torsions:
REMARK  status: ('A' for Active; 'I' for Inactive)
REMARK    1  A    between atoms: C_1  and  C_2
REMARK    2  A    between atoms: C_8  and  C_9
REMARK    3  A    between atoms: N_11  and  C_12
REMARK    4  A    between atoms: C_15  and  O_16
REMARK    5  A    between atoms: O_16  and  C_17
REMARK                            x       y       z     vdW  Elec       q    Type
REMARK                         _______ _______ _______ _____ _____    ______ ____
ROOT
ATOM      1  C   UNL     1      -0.350  10.245  19.311  0.00  0.00    +0.000 A 
ATOM      2  C   UNL     1       0.525   9.872  18.303  0.00  0.00    +0.000 A 
ATOM      3  C   UNL     1       1.654   9.082  18.518  0.00  0.00    +0.000 A 
ATOM      4  C   UNL     1       1.878   8.469  19.721  0.00  0.00    +0.000 A 
ATOM      5  C   UNL     1       1.011   8.893  20.806  0.00  0.00    +0.000 A 
ATOM      6  F   UNL     1       1.077   8.363  22.047  0.00  0.00    +0.000 F 
ATOM      7  C   UNL     1      -0.027   9.874  20.619  0.00  0.00    +0.000 A 
ENDROOT
BRANCH   1  10
ATOM      8  C   UNL     1      -2.631  10.518  18.333  0.00  0.00    +0.000 C 
ATOM      9  O   UNL     1      -2.724   9.331  18.011  0.00  0.00    +0.000 OA
ATOM     10  N   UNL     1      -1.490  11.025  18.973  0.00  0.00    +0.000 N 
ATOM     11  H   UNL     1      -1.452  11.966  19.310  0.00  0.00    +0.000 HD
BRANCH   8  19
ATOM     12  C   UNL     1      -4.128  10.986  15.577  0.00  0.00    +0.000 C 
ATOM     13  C   UNL     1      -4.572  11.640  16.836  0.00  0.00    +0.000 A 
ATOM     14  C   UNL     1      -5.657  12.441  16.793  0.00  0.00    +0.000 A 
ATOM     15  C   UNL     1      -6.044  13.263  17.957  0.00  0.00    +0.000 A 
ATOM     16  O   UNL     1      -6.894  14.139  17.866  0.00  0.00    +0.000 OA
ATOM     17  N   UNL     1      -5.363  12.980  19.110  0.00  0.00    +0.000 N 
ATOM     18  C   UNL     1      -4.325  12.072  19.190  0.00  0.00    +0.000 A 
ATOM     19  C   UNL     1      -3.847  11.429  18.099  0.00  0.00    +0.000 A 
ATOM     20  H   UNL     1      -5.614  13.547  19.912  0.00  0.00    +0.000 HD
ENDBRANCH   8  19
ENDBRANCH   1  10
BRANCH   4  21
ATOM     21  O   UNL     1       2.591   7.267  19.603  0.00  0.00    +0.000 OA
BRANCH  21  22
ATOM     22  C   UNL     1       2.263   5.970  19.011  0.00  0.00    +0.000 A 
ATOM     23  C   UNL     1       1.683   4.514  19.628  0.00  0.00    +0.000 A 
ATOM     24  C   UNL     1       2.017   3.221  19.256  0.00  0.00    +0.000 A 
ATOM     25  N   UNL     1       2.699   3.886  18.411  0.00  0.00    +0.000 NA
ATOM     26  C   UNL     1       3.396   4.534  17.547  0.00  0.00    +0.000 A 
ATOM     27  C   UNL     1       4.277   3.906  16.726  0.00  0.00    +0.000 A 
ATOM     28  C   UNL     1       5.227   4.720  16.176  0.00  0.00    +0.000 A 
ATOM     29 CL   UNL     1       6.480   3.943  15.299  0.00  0.00    +0.000 Cl
ATOM     30  C   UNL     1       5.174   6.116  16.385  0.00  0.00    +0.000 A 
ATOM     31  C   UNL     1       4.165   6.693  17.205  0.00  0.00    +0.000 A 
ATOM     32  C   UNL     1       3.231   5.839  17.873  0.00  0.00    +0.000 A 
ENDBRANCH  21  22
ENDBRANCH   4  21
TORSDOF 4
ENDMDL
MODEL 4
REMARK VINA RESULT:      -8.5      3.663      4.527
REMARK  Name = 
REMARK  5 active torsions:
REMARK  status: ('A' for Active; 'I' for Inactive)
REMARK    1  A    between atoms: C_1  and  C_2
REMARK    2  A    between atoms: C_8  and  C_9
REMARK    3  A    between atoms: N_11  and  C_12
REMARK    4  A    between atoms: C_15  and  O_16
REMARK    5  A    between atoms: O_16  and  C_17
REMARK                            x       y       z     vdW  Elec       q    Type
REMARK                         _______ _______ _______ _____ _____    ______ ____
ROOT
ATOM      1  C   UNL     1      -0.519  10.324  19.364  0.00  0.00    +0.000 A 
ATOM      2  C   UNL     1       0.343   9.980  18.334  0.00  0.00    +0.000 A 
ATOM      3  C   UNL     1       1.500   9.222  18.520  0.00  0.00    +0.000 A 
ATOM      4  C   UNL     1       1.769   8.611  19.715  0.00  0.00    +0.000 A 
ATOM      5  C   UNL     1       0.915   9.007  20.821  0.00  0.00    +0.000 A 
ATOM      6  F   UNL     1       1.024   8.474  22.058  0.00  0.00    +0.000 F 
ATOM      7  C   UNL     1      -0.155   9.958  20.662  0.00  0.00    +0.000 A 
ENDROOT
BRANCH   1  10
ATOM      8  C   UNL     1      -2.793  10.557  18.362  0.00  0.00    +0.000 C 
ATOM      9  O   UNL     1      -2.826   9.391  17.962  0.00  0.00    +0.000 OA
ATOM     10  N   UNL     1      -1.688  11.072  19.055  0.00  0.00    +0.000 N 
ATOM     11  H   UNL     1      -1.699  11.989  19.452  0.00  0.00    +0.000 HD
BRANCH   8  19
ATOM     12  C   UNL     1      -4.137  12.442  20.529  0.00  0.00    +0.000 C 
ATOM     13  C   UNL     1      -4.672  12.324  19.146  0.00  0.00    +0.000 A 
ATOM     14  C   UNL     1      -5.751  13.062  18.813  0.00  0.00    +0.000 A 
ATOM     15  C   UNL     1      -6.443  12.860  17.524  0.00  0.00    +0.000 A 
ATOM     16  O   UNL     1      -7.532  13.371  17.297  0.00  0.00    +0.000 OA
ATOM     17  N   UNL     1      -5.782  12.051  16.640  0.00  0.00    +0.000 N 
ATOM     18  C   UNL     1      -4.609  11.382  16.933  0.00  0.00    +0.000 A 
ATOM     19  C   UNL     1      -4.047  11.425  18.164  0.00  0.00    +0.000 A 
ATOM     20  H   UNL     1      -6.255  11.898  15.756  0.00  0.00    +0.000 HD
ENDBRANCH   8  19
ENDBRANCH   1  10
BRANCH   4  21
ATOM     21  O   UNL     1       2.513   7.431  19.575  0.00  0.00    +0.000 OA
BRANCH  21  22
ATOM     22  C   UNL     1       2.191   6.110  19.035  0.00  0.00    +0.000 A 
ATOM     23  C   UNL     1       1.623   4.675  19.710  0.00  0.00    +0.000 A 
ATOM     24  C   UNL     1       1.964   3.371  19.387  0.00  0.00    +0.000 A 
ATOM     25  N   UNL     1       2.638   4.007  18.514  0.00  0.00    +0.000 NA
ATOM     26  C   UNL     1       3.327   4.625  17.623  0.00  0.00    +0.000 A 
ATOM     27  C   UNL     1       4.209   3.972  16.823  0.00  0.00    +0.000 A 
ATOM     28  C   UNL     1       5.151   4.771  16.237  0.00  0.00    +0.000 A 
ATOM     29 CL   UNL     1       6.405   3.967  15.384  0.00  0.00    +0.000 Cl
ATOM     30  C   UNL     1       5.089   6.173  16.392  0.00  0.00    +0.000 A 
ATOM     31  C   UNL     1       4.080   6.775  17.193  0.00  0.00    +0.000 A 
ATOM     32  C   UNL     1       3.155   5.941  17.898  0.00  0.00    +0.000 A 
ENDBRANCH  21  22
ENDBRANCH   4  21
TORSDOF 4
ENDMDL
MODEL 5
REMARK VINA RESULT:      -8.2      4.314     10.248
REMARK  Name = 
REMARK  5 active torsions:
REMARK  status: ('A' for Active; 'I' for Inactive)
REMARK    1  A    between atoms: C_1  and  C_2
REMARK    2  A    between atoms: C_8  and  C_9
REMARK    3  A    between atoms: N_11  and  C_12
REMARK    4  A    between atoms: C_15  and  O_16
REMARK    5  A    between atoms: O_16  and  C_17
REMARK                            x       y       z     vdW  Elec       q    Type
REMARK                         _______ _______ _______ _____ _____    ______ ____
ROOT
ATOM      1  C   UNL     1       1.826   7.721  20.044  0.00  0.00    +0.000 A 
ATOM      2  C   UNL     1       0.930   8.280  20.943  0.00  0.00    +0.000 A 
ATOM      3  C   UNL     1       0.275   9.492  20.722  0.00  0.00    +0.000 A 
ATOM      4  C   UNL     1       0.340  10.129  19.512  0.00  0.00    +0.000 A 
ATOM      5  C   UNL     1       1.317   9.596  18.581  0.00  0.00    +0.000 A 
ATOM      6  F   UNL     1       1.484  10.086  17.332  0.00  0.00    +0.000 F 
ATOM      7  C   UNL     1       2.144   8.461  18.902  0.00  0.00    +0.000 A 
ENDROOT
BRANCH   1  10
ATOM      8  C   UNL     1       2.455   5.374  19.473  0.00  0.00    +0.000 C 
ATOM      9  O   UNL     1       1.977   5.436  18.338  0.00  0.00    +0.000 OA
ATOM     10  N   UNL     1       2.411   6.463  20.356  0.00  0.00    +0.000 N 
ATOM     11  H   UNL     1       2.873   6.439  21.242  0.00  0.00    +0.000 HD
BRANCH   8  19
ATOM     12  C   UNL     1       1.439   3.182  21.527  0.00  0.00    +0.000 C 
ATOM     13  C   UNL     1       2.733   3.048  20.807  0.00  0.00    +0.000 A 
ATOM     14  C   UNL     1       3.479   1.946  21.031  0.00  0.00    +0.000 A 
ATOM     15  C   UNL     1       4.850   1.832  20.495  0.00  0.00    +0.000 A 
ATOM     16  O   UNL     1       5.605   0.939  20.858  0.00  0.00    +0.000 OA
ATOM     17  N   UNL     1       5.198   2.807  19.600  0.00  0.00    +0.000 N 
ATOM     18  C   UNL     1       4.391   3.879  19.274  0.00  0.00    +0.000 A 
ATOM     19  C   UNL     1       3.197   4.089  19.877  0.00  0.00    +0.000 A 
ATOM     20  H   UNL     1       6.142   2.743  19.235  0.00  0.00    +0.000 HD
ENDBRANCH   8  19
ENDBRANCH   1  10
BRANCH   4  21
ATOM     21  O   UNL     1      -0.807  10.884  19.225  0.00  0.00    +0.000 OA
BRANCH  21  22
ATOM     22  C   UNL     1      -1.532  11.913  19.970  0.00  0.00    +0.000 A 
ATOM     23  C   UNL     1      -1.587  12.366  21.592  0.00  0.00    +0.000 A 
ATOM     24  C   UNL     1      -2.674  12.798  22.335  0.00  0.00    +0.000 A 
ATOM     25  N   UNL     1      -3.213  12.680  21.187  0.00  0.00    +0.000 NA
ATOM     26  C   UNL     1      -3.780  12.570  20.039  0.00  0.00    +0.000 A 
ATOM     27  C   UNL     1      -5.122  12.714  19.890  0.00  0.00    +0.000 A 
ATOM     28  C   UNL     1      -5.633  12.172  18.744  0.00  0.00    +0.000 A 
ATOM     29 CL   UNL     1      -7.343  12.150  18.609  0.00  0.00    +0.000 Cl
ATOM     30  C   UNL     1      -4.768  11.624  17.771  0.00  0.00    +0.000 A 
ATOM     31  C   UNL     1      -3.362  11.583  17.984  0.00  0.00    +0.000 A 
ATOM     32  C   UNL     1      -2.828  12.049  19.227  0.00  0.00    +0.000 A 
ENDBRANCH  21  22
ENDBRANCH   4  21
TORSDOF 4
ENDMDL
MODEL 6
REMARK VINA RESULT:      -8.1      0.885      1.262
REMARK  Name = 
REMARK  5 active torsions:
REMARK  status: ('A' for Active; 'I' for Inactive)
REMARK    1  A    between atoms: C_1  and  C_2
REMARK    2  A    between atoms: C_8  and  C_9
REMARK    3  A    between atoms: N_11  and  C_12
REMARK    4  A    between atoms: C_15  and  O_16
REMARK    5  A    between atoms: O_16  and  C_17
REMARK                            x       y       z     vdW  Elec       q    Type
REMARK                         _______ _______ _______ _____ _____    ______ ____
ROOT
ATOM      1  C   UNL     1       1.751   7.984  19.727  0.00  0.00    +0.000 A 
ATOM      2  C   UNL     1       1.723   6.797  20.442  0.00  0.00    +0.000 A 
ATOM      3  C   UNL     1       2.337   5.622  20.007  0.00  0.00    +0.000 A 
ATOM      4  C   UNL     1       3.167   5.611  18.919  0.00  0.00    +0.000 A 
ATOM      5  C   UNL     1       3.162   6.824  18.121  0.00  0.00    +0.000 A 
ATOM      6  F   UNL     1       3.948   6.990  17.035  0.00  0.00    +0.000 F 
ATOM      7  C   UNL     1       2.356   7.966  18.467  0.00  0.00    +0.000 A 
ENDROOT
BRANCH   1  10
ATOM      8  C   UNL     1       0.416  10.084  19.530  0.00  0.00    +0.000 C 
ATOM      9  O   UNL     1       0.294   9.989  18.307  0.00  0.00    +0.000 OA
ATOM     10  N   UNL     1       1.120   9.131  20.281  0.00  0.00    +0.000 N 
ATOM     11  H   UNL     1       1.144   9.164  21.280  0.00  0.00    +0.000 HD
BRANCH   8  19
ATOM     12  C   UNL     1      -2.388  11.325  18.721  0.00  0.00    +0.000 C 
ATOM     13  C   UNL     1      -1.621  11.810  19.899  0.00  0.00    +0.000 A 
ATOM     14  C   UNL     1      -2.156  12.797  20.648  0.00  0.00    +0.000 A 
ATOM     15  C   UNL     1      -1.375  13.451  21.717  0.00  0.00    +0.000 A 
ATOM     16  O   UNL     1      -1.769  14.475  22.260  0.00  0.00    +0.000 OA
ATOM     17  N   UNL     1      -0.189  12.837  22.017  0.00  0.00    +0.000 N 
ATOM     18  C   UNL     1       0.313  11.749  21.329  0.00  0.00    +0.000 A 
ATOM     19  C   UNL     1      -0.311  11.237  20.242  0.00  0.00    +0.000 A 
ATOM     20  H   UNL     1       0.360  13.285  22.742  0.00  0.00    +0.000 HD
ENDBRANCH   8  19
ENDBRANCH   1  10
BRANCH   4  21
ATOM     21  O   UNL     1       4.169   4.633  18.999  0.00  0.00    +0.000 OA
BRANCH  21  22
ATOM     22  C   UNL     1       5.619   4.677  18.816  0.00  0.00    +0.000 A 
ATOM     23  C   UNL     1       6.864   5.562  19.527  0.00  0.00    +0.000 A 
ATOM     24  C   UNL     1       8.005   6.081  18.937  0.00  0.00    +0.000 A 
ATOM     25  N   UNL     1       7.495   5.465  17.946  0.00  0.00    +0.000 NA
ATOM     26  C   UNL     1       7.001   4.851  16.931  0.00  0.00    +0.000 A 
ATOM     27  C   UNL     1       7.537   4.978  15.690  0.00  0.00    +0.000 A 
ATOM     28  C   UNL     1       6.701   4.632  14.666  0.00  0.00    +0.000 A 
ATOM     29 CL   UNL     1       7.260   4.969  13.080  0.00  0.00    +0.000 Cl
ATOM     30  C   UNL     1       5.431   4.077  14.943  0.00  0.00    +0.000 A 
ATOM     31  C   UNL     1       4.983   3.913  16.283  0.00  0.00    +0.000 A 
ATOM     32  C   UNL     1       5.808   4.372  17.359  0.00  0.00    +0.000 A 
ENDBRANCH  21  22
ENDBRANCH   4  21
TORSDOF 4
ENDMDL
MODEL 7
REMARK VINA RESULT:      -8.1      1.987      2.775
REMARK  Name = 
REMARK  5 active torsions:
REMARK  status: ('A' for Active; 'I' for Inactive)
REMARK    1  A    between atoms: C_1  and  C_2
REMARK    2  A    between atoms: C_8  and  C_9
REMARK    3  A    between atoms: N_11  and  C_12
REMARK    4  A    between atoms: C_15  and  O_16
REMARK    5  A    between atoms: O_16  and  C_17
REMARK                            x       y       z     vdW  Elec       q    Type
REMARK                         _______ _______ _______ _____ _____    ______ ____
ROOT
ATOM      1  C   UNL     1       0.932  10.071  20.859  0.00  0.00    +0.000 A 
ATOM      2  C   UNL     1       1.062   8.890  21.573  0.00  0.00    +0.000 A 
ATOM      3  C   UNL     1       1.429   7.676  20.990  0.00  0.00    +0.000 A 
ATOM      4  C   UNL     1       1.861   7.609  19.693  0.00  0.00    +0.000 A 
ATOM      5  C   UNL     1       1.674   8.819  18.912  0.00  0.00    +0.000 A 
ATOM      6  F   UNL     1       2.076   8.931  17.627  0.00  0.00    +0.000 F 
ATOM      7  C   UNL     1       1.096  10.012  19.473  0.00  0.00    +0.000 A 
ENDROOT
BRANCH   1  10
ATOM      8  C   UNL     1      -0.632  11.937  21.412  0.00  0.00    +0.000 C 
ATOM      9  O   UNL     1      -1.509  11.539  20.640  0.00  0.00    +0.000 OA
ATOM     10  N   UNL     1       0.586  11.258  21.562  0.00  0.00    +0.000 N 
ATOM     11  H   UNL     1       1.258  11.533  22.249  0.00  0.00    +0.000 HD
BRANCH   8  19
ATOM     12  C   UNL     1      -3.012  12.202  23.491  0.00  0.00    +0.000 C 
ATOM     13  C   UNL     1      -2.025  13.294  23.279  0.00  0.00    +0.000 A 
ATOM     14  C   UNL     1      -2.148  14.419  24.013  0.00  0.00    +0.000 A 
ATOM     15  C   UNL     1      -1.320  15.609  23.728  0.00  0.00    +0.000 A 
ATOM     16  O   UNL     1      -1.561  16.693  24.245  0.00  0.00    +0.000 OA
ATOM     17  N   UNL     1      -0.303  15.399  22.837  0.00  0.00    +0.000 N 
ATOM     18  C   UNL     1      -0.098  14.210  22.166  0.00  0.00    +0.000 A 
ATOM     19  C   UNL     1      -0.943  13.159  22.291  0.00  0.00    +0.000 A 
ATOM     20  H   UNL     1       0.263  16.214  22.627  0.00  0.00    +0.000 HD
ENDBRANCH   8  19
ENDBRANCH   1  10
BRANCH   4  21
ATOM     21  O   UNL     1       2.772   6.566  19.468  0.00  0.00    +0.000 OA
BRANCH  21  22
ATOM     22  C   UNL     1       2.695   5.328  18.694  0.00  0.00    +0.000 A 
ATOM     23  C   UNL     1       2.446   3.710  19.092  0.00  0.00    +0.000 A 
ATOM     24  C   UNL     1       3.024   2.581  18.534  0.00  0.00    +0.000 A 
ATOM     25  N   UNL     1       3.527   3.486  17.792  0.00  0.00    +0.000 NA
ATOM     26  C   UNL     1       4.046   4.381  17.030  0.00  0.00    +0.000 A 
ATOM     27  C   UNL     1       5.008   4.073  16.122  0.00  0.00    +0.000 A 
ATOM     28  C   UNL     1       5.752   5.136  15.693  0.00  0.00    +0.000 A 
ATOM     29 CL   UNL     1       7.106   4.768  14.705  0.00  0.00    +0.000 Cl
ATOM     30  C   UNL     1       5.422   6.447  16.104  0.00  0.00    +0.000 A 
ATOM     31  C   UNL     1       4.346   6.679  17.005  0.00  0.00    +0.000 A 
ATOM     32  C   UNL     1       3.629   5.564  17.544  0.00  0.00    +0.000 A 
ENDBRANCH  21  22
ENDBRANCH   4  21
TORSDOF 4
ENDMDL
MODEL 8
REMARK VINA RESULT:      -8.0      2.068      2.974
REMARK  Name = 
REMARK  5 active torsions:
REMARK  status: ('A' for Active; 'I' for Inactive)
REMARK    1  A    between atoms: C_1  and  C_2
REMARK    2  A    between atoms: C_8  and  C_9
REMARK    3  A    between atoms: N_11  and  C_12
REMARK    4  A    between atoms: C_15  and  O_16
REMARK    5  A    between atoms: O_16  and  C_17
REMARK                            x       y       z     vdW  Elec       q    Type
REMARK                         _______ _______ _______ _____ _____    ______ ____
ROOT
ATOM      1  C   UNL     1       0.060   9.953  20.510  0.00  0.00    +0.000 A 
ATOM      2  C   UNL     1       0.223   8.772  21.217  0.00  0.00    +0.000 A 
ATOM      3  C   UNL     1       0.964   7.689  20.745  0.00  0.00    +0.000 A 
ATOM      4  C   UNL     1       1.735   7.788  19.618  0.00  0.00    +0.000 A 
ATOM      5  C   UNL     1       1.532   8.991  18.830  0.00  0.00    +0.000 A 
ATOM      6  F   UNL     1       2.236   9.261  17.709  0.00  0.00    +0.000 F 
ATOM      7  C   UNL     1       0.601  10.017  19.223  0.00  0.00    +0.000 A 
ENDROOT
BRANCH   1  10
ATOM      8  C   UNL     1      -0.757  11.247  22.483  0.00  0.00    +0.000 C 
ATOM      9  O   UNL     1      -0.155  10.541  23.297  0.00  0.00    +0.000 OA
ATOM     10  N   UNL     1      -0.689  11.007  21.103  0.00  0.00    +0.000 N 
ATOM     11  H   UNL     1      -1.106  11.630  20.441  0.00  0.00    +0.000 HD
BRANCH   8  19
ATOM     12  C   UNL     1       0.169  14.273  22.276  0.00  0.00    +0.000 C 
ATOM     13  C   UNL     1      -1.121  13.884  22.904  0.00  0.00    +0.000 A 
ATOM     14  C   UNL     1      -1.920  14.861  23.381  0.00  0.00    +0.000 A 
ATOM     15  C   UNL     1      -3.123  14.542  24.177  0.00  0.00    +0.000 A 
ATOM     16  O   UNL     1      -3.736  15.411  24.784  0.00  0.00    +0.000 OA
ATOM     17  N   UNL     1      -3.462  13.216  24.194  0.00  0.00    +0.000 N 
ATOM     18  C   UNL     1      -2.710  12.219  23.606  0.00  0.00    +0.000 A 
ATOM     19  C   UNL     1      -1.519  12.472  23.012  0.00  0.00    +0.000 A 
ATOM     20  H   UNL     1      -4.280  12.986  24.747  0.00  0.00    +0.000 HD
ENDBRANCH   8  19
ENDBRANCH   1  10
BRANCH   4  21
ATOM     21  O   UNL     1       2.859   6.950  19.643  0.00  0.00    +0.000 OA
BRANCH  21  22
ATOM     22  C   UNL     1       3.072   5.560  19.242  0.00  0.00    +0.000 A 
ATOM     23  C   UNL     1       3.304   4.120  20.084  0.00  0.00    +0.000 A 
ATOM     24  C   UNL     1       4.130   3.053  19.766  0.00  0.00    +0.000 A 
ATOM     25  N   UNL     1       4.313   3.796  18.748  0.00  0.00    +0.000 NA
ATOM     26  C   UNL     1       4.514   4.527  17.710  0.00  0.00    +0.000 A 
ATOM     27  C   UNL     1       5.459   4.211  16.788  0.00  0.00    +0.000 A 
ATOM     28  C   UNL     1       5.851   5.250  15.991  0.00  0.00    +0.000 A 
ATOM     29 CL   UNL     1       7.183   4.950  14.952  0.00  0.00    +0.000 Cl
ATOM     30  C   UNL     1       5.204   6.501  16.085  0.00  0.00    +0.000 A 
ATOM     31  C   UNL     1       4.169   6.717  17.037  0.00  0.00    +0.000 A 
ATOM     32  C   UNL     1       3.825   5.669  17.949  0.00  0.00    +0.000 A 
ENDBRANCH  21  22
ENDBRANCH   4  21
TORSDOF 4
ENDMDL
MODEL 9
REMARK VINA RESULT:      -8.0      4.289     10.661
REMARK  Name = 
REMARK  5 active torsions:
REMARK  status: ('A' for Active; 'I' for Inactive)
REMARK    1  A    between atoms: C_1  and  C_2
REMARK    2  A    between atoms: C_8  and  C_9
REMARK    3  A    between atoms: N_11  and  C_12
REMARK    4  A    between atoms: C_15  and  O_16
REMARK    5  A    between atoms: O_16  and  C_17
REMARK                            x       y       z     vdW  Elec       q    Type
REMARK                         _______ _______ _______ _____ _____    ______ ____
ROOT
ATOM      1  C   UNL     1       1.922   8.571  18.903  0.00  0.00    +0.000 A 
ATOM      2  C   UNL     1       1.316   9.259  17.863  0.00  0.00    +0.000 A 
ATOM      3  C   UNL     1       0.116   9.957  17.999  0.00  0.00    +0.000 A 
ATOM      4  C   UNL     1      -0.458  10.158  19.226  0.00  0.00    +0.000 A 
ATOM      5  C   UNL     1       0.124   9.397  20.317  0.00  0.00    +0.000 A 
ATOM      6  F   UNL     1      -0.301   9.505  21.595  0.00  0.00    +0.000 F 
ATOM      7  C   UNL     1       1.243   8.511  20.122  0.00  0.00    +0.000 A 
ENDROOT
BRANCH   1  10
ATOM      8  C   UNL     1       3.290   6.577  18.282  0.00  0.00    +0.000 C 
ATOM      9  O   UNL     1       2.307   5.848  18.131  0.00  0.00    +0.000 OA
ATOM     10  N   UNL     1       3.164   7.922  18.660  0.00  0.00    +0.000 N 
ATOM     11  H   UNL     1       3.955   8.533  18.699  0.00  0.00    +0.000 HD
BRANCH   8  19
ATOM     12  C   UNL     1       4.854   6.890  15.541  0.00  0.00    +0.000 C 
ATOM     13  C   UNL     1       5.430   6.154  16.698  0.00  0.00    +0.000 A 
ATOM     14  C   UNL     1       6.664   5.624  16.568  0.00  0.00    +0.000 A 
ATOM     15  C   UNL     1       7.221   4.730  17.603  0.00  0.00    +0.000 A 
ATOM     16  O   UNL     1       8.243   4.084  17.405  0.00  0.00    +0.000 OA
ATOM     17  N   UNL     1       6.495   4.672  18.761  0.00  0.00    +0.000 N 
ATOM     18  C   UNL     1       5.283   5.309  18.946  0.00  0.00    +0.000 A 
ATOM     19  C   UNL     1       4.676   6.000  17.952  0.00  0.00    +0.000 A 
ATOM     20  H   UNL     1       6.864   4.052  19.473  0.00  0.00    +0.000 HD
ENDBRANCH   8  19
ENDBRANCH   1  10
BRANCH   4  21
ATOM     21  O   UNL     1      -1.199  11.346  19.299  0.00  0.00    +0.000 OA
BRANCH  21  22
ATOM     22  C   UNL     1      -1.457  12.293  20.384  0.00  0.00    +0.000 A 
ATOM     23  C   UNL     1      -0.746  12.576  21.885  0.00  0.00    +0.000 A 
ATOM     24  C   UNL     1      -1.355  12.929  23.080  0.00  0.00    +0.000 A 
ATOM     25  N   UNL     1      -2.362  12.930  22.300  0.00  0.00    +0.000 NA
ATOM     26  C   UNL     1      -3.394  12.940  21.534  0.00  0.00    +0.000 A 
ATOM     27  C   UNL     1      -4.648  13.099  22.029  0.00  0.00    +0.000 A 
ATOM     28  C   UNL     1      -5.649  12.678  21.199  0.00  0.00    +0.000 A 
ATOM     29 CL   UNL     1      -7.232  12.670  21.861  0.00  0.00    +0.000 Cl
ATOM     30  C   UNL     1      -5.349  12.233  19.893  0.00  0.00    +0.000 A 
ATOM     31  C   UNL     1      -4.004  12.170  19.435  0.00  0.00    +0.000 A 
ATOM     32  C   UNL     1      -2.941  12.506  20.332  0.00  0.00    +0.000 A 
ENDBRANCH  21  22
ENDBRANCH   4  21
TORSDOF 4
ENDMDL
