MODEL 1
REMARK VINA RESULT:      -8.8      0.000      0.000
REMARK  Name = 
REMARK  5 active torsions:
REMARK  status: ('A' for Active; 'I' for Inactive)
REMARK    1  A    between atoms: C_1  and  N_2
REMARK    2  A    between atoms: C_4  and  C_5
REMARK    3  A    between atoms: N_7  and  C_8
REMARK    4  A    between atoms: C_8  and  C_9
REMARK    5  A    between atoms: N_11  and  C_12
REMARK                            x       y       z     vdW  Elec       q    Type
REMARK                         _______ _______ _______ _____ _____    ______ ____
ROOT
ATOM      1  C   UNL     1       2.250   7.260  19.727  0.00  0.00    +0.000 C 
ATOM      2  O   UNL     1       2.235   8.121  18.861  0.00  0.00    +0.000 OA
ATOM      3  N   UNL     1       1.935   7.489  21.045  0.00  0.00    +0.000 N 
ATOM      4  H   UNL     1       1.824   6.690  21.667  0.00  0.00    +0.000 HD
ENDROOT
BRANCH   1   8
ATOM      5  C   UNL     1       1.747   2.595  20.802  0.00  0.00    +0.000 C 
ATOM      6  N   UNL     1       2.331   3.575  19.905  0.00  0.00    +0.000 N 
ATOM      7  N   UNL     1       2.076   4.900  20.175  0.00  0.00    +0.000 NA
ATOM      8  C   UNL     1       2.601   5.806  19.399  0.00  0.00    +0.000 A 
ATOM      9  C   UNL     1       3.492   5.494  18.263  0.00  0.00    +0.000 A 
ATOM     10  C   UNL     1       4.152   6.461  17.495  0.00  0.00    +0.000 A 
ATOM     11  C   UNL     1       4.974   6.079  16.431  0.00  0.00    +0.000 A 
ATOM     12  C   UNL     1       5.147   4.731  16.126  0.00  0.00    +0.000 A 
ATOM     13  C   UNL     1       4.507   3.763  16.894  0.00  0.00    +0.000 A 
ATOM     14  C   UNL     1       3.691   4.148  17.969  0.00  0.00    +0.000 A 
ATOM     15  C   UNL     1       3.064   3.119  18.815  0.00  0.00    +0.000 A 
ATOM     16  O   UNL     1       3.227   1.931  18.547  0.00  0.00    +0.000 OA
ENDBRANCH   1   8
BRANCH   3  17
ATOM     17  C   UNL     1       1.546   8.802  21.503  0.00  0.00    +0.000 C 
BRANCH  17  18
ATOM     18  C   UNL     1       0.169   9.201  20.960  0.00  0.00    +0.000 C 
ATOM     19  O   UNL     1      -0.870   8.731  21.420  0.00  0.00    +0.000 OA
ATOM     20  N   UNL     1       0.230  10.111  19.914  0.00  0.00    +0.000 N 
ATOM     21  H   UNL     1       1.071  10.093  19.343  0.00  0.00    +0.000 HD
BRANCH  20  22
ATOM     22  C   UNL     1      -0.922  10.640  19.293  0.00  0.00    +0.000 A 
ATOM     23  C   UNL     1      -1.745  11.578  19.928  0.00  0.00    +0.000 A 
ATOM     24  C   UNL     1      -2.870  12.083  19.268  0.00  0.00    +0.000 A 
ATOM     25  C   UNL     1      -3.185  11.624  17.991  0.00  0.00    +0.000 A 
ATOM     26  F   UNL     1      -4.278  12.097  17.377  0.00  0.00    +0.000 F 
ATOM     27  C   UNL     1      -2.376  10.690  17.358  0.00  0.00    +0.000 A 
ATOM     28  F   UNL     1      -2.701  10.232  16.140  0.00  0.00    +0.000 F 
ATOM     29  C   UNL     1      -1.235  10.223  17.995  0.00  0.00    +0.000 A 
ATOM     30  F   UNL     1      -0.450   9.317  17.388  0.00  0.00    +0.000 F 
ENDBRANCH  20  22
ENDBRANCH  17  18
ENDBRANCH   3  17
TORSDOF 4
ENDMDL
MODEL 2
REMARK VINA RESULT:      -8.6      1.157      1.644
REMARK  Name = 
REMARK  5 active torsions:
REMARK  status: ('A' for Active; 'I' for Inactive)
REMARK    1  A    between atoms: C_1  and  N_2
REMARK    2  A    between atoms: C_4  and  C_5
REMARK    3  A    between atoms: N_7  and  C_8
REMARK    4  A    between atoms: C_8  and  C_9
REMARK    5  A    between atoms: N_11  and  C_12
REMARK                            x       y       z     vdW  Elec       q    Type
REMARK                         _______ _______ _______ _____ _____    ______ ____
ROOT
ATOM      1  C   UNL     1       2.265   7.226  19.648  0.00  0.00    +0.000 C 
ATOM      2  O   UNL     1       2.249   8.158  18.858  0.00  0.00    +0.000 OA
ATOM      3  N   UNL     1       1.948   7.340  20.980  0.00  0.00    +0.000 N 
ATOM      4  H   UNL     1       1.838   6.490  21.531  0.00  0.00    +0.000 HD
ENDROOT
BRANCH   1   8
ATOM      5  C   UNL     1       1.716   2.484  20.272  0.00  0.00    +0.000 C 
ATOM      6  N   UNL     1       2.329   3.539  19.486  0.00  0.00    +0.000 N 
ATOM      7  N   UNL     1       2.071   4.835  19.870  0.00  0.00    +0.000 NA
ATOM      8  C   UNL     1       2.621   5.806  19.197  0.00  0.00    +0.000 A 
ATOM      9  C   UNL     1       3.542   5.595  18.062  0.00  0.00    +0.000 A 
ATOM     10  C   UNL     1       4.228   6.625  17.406  0.00  0.00    +0.000 A 
ATOM     11  C   UNL     1       5.079   6.338  16.334  0.00  0.00    +0.000 A 
ATOM     12  C   UNL     1       5.256   5.023  15.912  0.00  0.00    +0.000 A 
ATOM     13  C   UNL     1       4.591   3.992  16.569  0.00  0.00    +0.000 A 
ATOM     14  C   UNL     1       3.745   4.281  17.650  0.00  0.00    +0.000 A 
ATOM     15  C   UNL     1       3.091   3.182  18.379  0.00  0.00    +0.000 A 
ATOM     16  O   UNL     1       3.258   2.023  18.008  0.00  0.00    +0.000 OA
ENDBRANCH   1   8
BRANCH   3  17
ATOM     17  C   UNL     1       1.554   8.608  21.548  0.00  0.00    +0.000 C 
BRANCH  17  18
ATOM     18  C   UNL     1       0.155   9.024  21.079  0.00  0.00    +0.000 C 
ATOM     19  O   UNL     1      -0.863   8.532  21.563  0.00  0.00    +0.000 OA
ATOM     20  N   UNL     1       0.171   9.974  20.070  0.00  0.00    +0.000 N 
ATOM     21  H   UNL     1       0.988   9.983  19.464  0.00  0.00    +0.000 HD
BRANCH  20  22
ATOM     22  C   UNL     1      -1.007  10.525  19.519  0.00  0.00    +0.000 A 
ATOM     23  C   UNL     1      -1.623   9.980  18.386  0.00  0.00    +0.000 A 
ATOM     24  C   UNL     1      -2.796  10.554  17.884  0.00  0.00    +0.000 A 
ATOM     25  C   UNL     1      -3.328  11.686  18.497  0.00  0.00    +0.000 A 
ATOM     26  F   UNL     1      -4.439  12.241  17.993  0.00  0.00    +0.000 F 
ATOM     27  C   UNL     1      -2.718  12.234  19.617  0.00  0.00    +0.000 A 
ATOM     28  F   UNL     1      -3.221  13.341  20.184  0.00  0.00    +0.000 F 
ATOM     29  C   UNL     1      -1.581  11.638  20.143  0.00  0.00    +0.000 A 
ATOM     30  F   UNL     1      -0.985  12.165  21.225  0.00  0.00    +0.000 F 
ENDBRANCH  20  22
ENDBRANCH  17  18
ENDBRANCH   3  17
TORSDOF 4
ENDMDL
MODEL 3
REMARK VINA RESULT:      -8.5      2.405      3.007
REMARK  Name = 
REMARK  5 active torsions:
REMARK  status: ('A' for Active; 'I' for Inactive)
REMARK    1  A    between atoms: C_1  and  N_2
REMARK    2  A    between atoms: C_4  and  C_5
REMARK    3  A    between atoms: N_7  and  C_8
REMARK    4  A    between atoms: C_8  and  C_9
REMARK    5  A    between atoms: N_11  and  C_12
REMARK                            x       y       z     vdW  Elec       q    Type
REMARK                         _______ _______ _______ _____ _____    ______ ____
ROOT
ATOM      1  C   UNL     1       2.290   7.484  18.877  0.00  0.00    +0.000 C 
ATOM      2  O   UNL     1       2.302   7.869  20.036  0.00  0.00    +0.000 OA
ATOM      3  N   UNL     1       2.092   8.305  17.794  0.00  0.00    +0.000 N 
ATOM      4  H   UNL     1       2.250   7.930  16.860  0.00  0.00    +0.000 HD
ENDROOT
BRANCH   1   8
ATOM      5  C   UNL     1       0.961   2.886  19.398  0.00  0.00    +0.000 C 
ATOM      6  N   UNL     1       1.871   3.819  18.759  0.00  0.00    +0.000 N 
ATOM      7  N   UNL     1       1.720   5.151  19.068  0.00  0.00    +0.000 NA
ATOM      8  C   UNL     1       2.534   6.013  18.525  0.00  0.00    +0.000 A 
ATOM      9  C   UNL     1       3.640   5.637  17.623  0.00  0.00    +0.000 A 
ATOM     10  C   UNL     1       4.589   6.539  17.127  0.00  0.00    +0.000 A 
ATOM     11  C   UNL     1       5.604   6.100  16.271  0.00  0.00    +0.000 A 
ATOM     12  C   UNL     1       5.683   4.758  15.907  0.00  0.00    +0.000 A 
ATOM     13  C   UNL     1       4.753   3.852  16.409  0.00  0.00    +0.000 A 
ATOM     14  C   UNL     1       3.742   4.293  17.276  0.00  0.00    +0.000 A 
ATOM     15  C   UNL     1       2.798   3.320  17.850  0.00  0.00    +0.000 A 
ATOM     16  O   UNL     1       2.877   2.136  17.533  0.00  0.00    +0.000 OA
ENDBRANCH   1   8
BRANCH   3  17
ATOM     17  C   UNL     1       1.887   9.725  17.961  0.00  0.00    +0.000 C 
BRANCH  17  18
ATOM     18  C   UNL     1       0.675  10.017  18.854  0.00  0.00    +0.000 C 
ATOM     19  O   UNL     1      -0.472   9.756  18.494  0.00  0.00    +0.000 OA
ATOM     20  N   UNL     1       1.010  10.604  20.065  0.00  0.00    +0.000 N 
ATOM     21  H   UNL     1       1.863  11.157  20.083  0.00  0.00    +0.000 HD
BRANCH  20  22
ATOM     22  C   UNL     1       0.051  10.921  21.052  0.00  0.00    +0.000 A 
ATOM     23  C   UNL     1      -0.133  10.128  22.192  0.00  0.00    +0.000 A 
ATOM     24  C   UNL     1      -1.089  10.489  23.148  0.00  0.00    +0.000 A 
ATOM     25  C   UNL     1      -1.875  11.621  22.944  0.00  0.00    +0.000 A 
ATOM     26  F   UNL     1      -2.803  11.945  23.855  0.00  0.00    +0.000 F 
ATOM     27  C   UNL     1      -1.701  12.408  21.814  0.00  0.00    +0.000 A 
ATOM     28  F   UNL     1      -2.481  13.480  21.612  0.00  0.00    +0.000 F 
ATOM     29  C   UNL     1      -0.722  12.075  20.888  0.00  0.00    +0.000 A 
ATOM     30  F   UNL     1      -0.551  12.831  19.791  0.00  0.00    +0.000 F 
ENDBRANCH  20  22
ENDBRANCH  17  18
ENDBRANCH   3  17
TORSDOF 4
ENDMDL
MODEL 4
REMARK VINA RESULT:      -8.5      3.900      8.767
REMARK  Name = 
REMARK  5 active torsions:
REMARK  status: ('A' for Active; 'I' for Inactive)
REMARK    1  A    between atoms: C_1  and  N_2
REMARK    2  A    between atoms: C_4  and  C_5
REMARK    3  A    between atoms: N_7  and  C_8
REMARK    4  A    between atoms: C_8  and  C_9
REMARK    5  A    between atoms: N_11  and  C_12
REMARK                            x       y       z     vdW  Elec       q    Type
REMARK                         _______ _______ _______ _____ _____    ______ ____
ROOT
ATOM      1  C   UNL     1       1.326  10.494  18.540  0.00  0.00    +0.000 C 
ATOM      2  O   UNL     1       2.186  11.191  18.024  0.00  0.00    +0.000 OA
ATOM      3  N   UNL     1       1.420   9.130  18.677  0.00  0.00    +0.000 N 
ATOM      4  H   UNL     1       0.732   8.649  19.254  0.00  0.00    +0.000 HD
ENDROOT
BRANCH   1   8
ATOM      5  C   UNL     1      -0.726  13.133  22.004  0.00  0.00    +0.000 C 
ATOM      6  N   UNL     1      -0.918  12.395  20.769  0.00  0.00    +0.000 N 
ATOM      7  N   UNL     1       0.191  11.793  20.221  0.00  0.00    +0.000 NA
ATOM      8  C   UNL     1       0.049  11.107  19.122  0.00  0.00    +0.000 A 
ATOM      9  C   UNL     1      -1.248  10.904  18.447  0.00  0.00    +0.000 A 
ATOM     10  C   UNL     1      -1.432  10.076  17.332  0.00  0.00    +0.000 A 
ATOM     11  C   UNL     1      -2.696   9.944  16.749  0.00  0.00    +0.000 A 
ATOM     12  C   UNL     1      -3.786  10.632  17.274  0.00  0.00    +0.000 A 
ATOM     13  C   UNL     1      -3.616  11.445  18.391  0.00  0.00    +0.000 A 
ATOM     14  C   UNL     1      -2.349  11.568  18.981  0.00  0.00    +0.000 A 
ATOM     15  C   UNL     1      -2.186  12.380  20.198  0.00  0.00    +0.000 A 
ATOM     16  O   UNL     1      -3.153  12.979  20.662  0.00  0.00    +0.000 OA
ENDBRANCH   1   8
BRANCH   3  17
ATOM     17  C   UNL     1       2.582   8.411  18.212  0.00  0.00    +0.000 C 
BRANCH  17  18
ATOM     18  C   UNL     1       2.560   6.948  18.672  0.00  0.00    +0.000 C 
ATOM     19  O   UNL     1       2.023   6.609  19.724  0.00  0.00    +0.000 OA
ATOM     20  N   UNL     1       3.208   6.086  17.800  0.00  0.00    +0.000 N 
ATOM     21  H   UNL     1       3.956   6.482  17.238  0.00  0.00    +0.000 HD
BRANCH  20  22
ATOM     22  C   UNL     1       3.272   4.691  18.012  0.00  0.00    +0.000 A 
ATOM     23  C   UNL     1       2.444   3.795  17.324  0.00  0.00    +0.000 A 
ATOM     24  C   UNL     1       2.553   2.421  17.560  0.00  0.00    +0.000 A 
ATOM     25  C   UNL     1       3.464   1.952  18.504  0.00  0.00    +0.000 A 
ATOM     26  F   UNL     1       3.543   0.635  18.738  0.00  0.00    +0.000 F 
ATOM     27  C   UNL     1       4.284   2.836  19.193  0.00  0.00    +0.000 A 
ATOM     28  F   UNL     1       5.139   2.378  20.119  0.00  0.00    +0.000 F 
ATOM     29  C   UNL     1       4.208   4.195  18.926  0.00  0.00    +0.000 A 
ATOM     30  F   UNL     1       4.998   5.055  19.591  0.00  0.00    +0.000 F 
ENDBRANCH  20  22
ENDBRANCH  17  18
ENDBRANCH   3  17
TORSDOF 4
ENDMDL
MODEL 5
REMARK VINA RESULT:      -8.4      3.287      8.640
REMARK  Name = 
REMARK  5 active torsions:
REMARK  status: ('A' for Active; 'I' for Inactive)
REMARK    1  A    between atoms: C_1  and  N_2
REMARK    2  A    between atoms: C_4  and  C_5
REMARK    3  A    between atoms: N_7  and  C_8
REMARK    4  A    between atoms: C_8  and  C_9
REMARK    5  A    between atoms: N_11  and  C_12
REMARK                            x       y       z     vdW  Elec       q    Type
REMARK                         _______ _______ _______ _____ _____    ______ ____
ROOT
ATOM      1  C   UNL     1       1.025  10.844  18.598  0.00  0.00    +0.000 C 
ATOM      2  O   UNL     1       1.930  11.613  18.313  0.00  0.00    +0.000 OA
ATOM      3  N   UNL     1       1.114   9.477  18.490  0.00  0.00    +0.000 N 
ATOM      4  H   UNL     1       0.372   8.906  18.892  0.00  0.00    +0.000 HD
ENDROOT
BRANCH   1   8
ATOM      5  C   UNL     1      -1.328  13.238  22.049  0.00  0.00    +0.000 C 
ATOM      6  N   UNL     1      -1.423  12.527  20.787  0.00  0.00    +0.000 N 
ATOM      7  N   UNL     1      -0.257  12.015  20.268  0.00  0.00    +0.000 NA
ATOM      8  C   UNL     1      -0.311  11.355  19.145  0.00  0.00    +0.000 A 
ATOM      9  C   UNL     1      -1.565  11.089  18.413  0.00  0.00    +0.000 A 
ATOM     10  C   UNL     1      -1.651  10.285  17.270  0.00  0.00    +0.000 A 
ATOM     11  C   UNL     1      -2.880  10.089  16.633  0.00  0.00    +0.000 A 
ATOM     12  C   UNL     1      -4.033  10.689  17.133  0.00  0.00    +0.000 A 
ATOM     13  C   UNL     1      -3.959  11.476  18.278  0.00  0.00    +0.000 A 
ATOM     14  C   UNL     1      -2.727  11.664  18.921  0.00  0.00    +0.000 A 
ATOM     15  C   UNL     1      -2.665  12.448  20.166  0.00  0.00    +0.000 A 
ATOM     16  O   UNL     1      -3.686  12.968  20.607  0.00  0.00    +0.000 OA
ENDBRANCH   1   8
BRANCH   3  17
ATOM     17  C   UNL     1       2.324   8.842  18.026  0.00  0.00    +0.000 C 
BRANCH  17  18
ATOM     18  C   UNL     1       2.517   7.462  18.667  0.00  0.00    +0.000 C 
ATOM     19  O   UNL     1       2.151   7.226  19.816  0.00  0.00    +0.000 OA
ATOM     20  N   UNL     1       3.145   6.549  17.833  0.00  0.00    +0.000 N 
ATOM     21  H   UNL     1       3.773   6.930  17.130  0.00  0.00    +0.000 HD
BRANCH  20  22
ATOM     22  C   UNL     1       3.386   5.209  18.210  0.00  0.00    +0.000 A 
ATOM     23  C   UNL     1       4.569   4.818  18.848  0.00  0.00    +0.000 A 
ATOM     24  C   UNL     1       4.758   3.480  19.212  0.00  0.00    +0.000 A 
ATOM     25  C   UNL     1       3.778   2.538  18.910  0.00  0.00    +0.000 A 
ATOM     26  F   UNL     1       3.979   1.256  19.243  0.00  0.00    +0.000 F 
ATOM     27  C   UNL     1       2.604   2.919  18.273  0.00  0.00    +0.000 A 
ATOM     28  F   UNL     1       1.679   2.001  17.961  0.00  0.00    +0.000 F 
ATOM     29  C   UNL     1       2.398   4.253  17.952  0.00  0.00    +0.000 A 
ATOM     30  F   UNL     1       1.266   4.628  17.334  0.00  0.00    +0.000 F 
ENDBRANCH  20  22
ENDBRANCH  17  18
ENDBRANCH   3  17
TORSDOF 4
ENDMDL
MODEL 6
REMARK VINA RESULT:      -8.4      1.511      1.656
REMARK  Name = 
REMARK  5 active torsions:
REMARK  status: ('A' for Active; 'I' for Inactive)
REMARK    1  A    between atoms: C_1  and  N_2
REMARK    2  A    between atoms: C_4  and  C_5
REMARK    3  A    between atoms: N_7  and  C_8
REMARK    4  A    between atoms: C_8  and  C_9
REMARK    5  A    between atoms: N_11  and  C_12
REMARK                            x       y       z     vdW  Elec       q    Type
REMARK                         _______ _______ _______ _____ _____    ______ ____
ROOT
ATOM      1  C   UNL     1       2.281   7.387  19.053  0.00  0.00    +0.000 C 
ATOM      2  O   UNL     1       2.388   7.715  20.224  0.00  0.00    +0.000 OA
ATOM      3  N   UNL     1       1.983   8.258  18.033  0.00  0.00    +0.000 N 
ATOM      4  H   UNL     1       2.065   7.932  17.072  0.00  0.00    +0.000 HD
ENDROOT
BRANCH   1   8
ATOM      5  C   UNL     1       0.914   2.778  19.296  0.00  0.00    +0.000 C 
ATOM      6  N   UNL     1       1.828   3.740  18.709  0.00  0.00    +0.000 N 
ATOM      7  N   UNL     1       1.691   5.052  19.102  0.00  0.00    +0.000 NA
ATOM      8  C   UNL     1       2.509   5.939  18.608  0.00  0.00    +0.000 A 
ATOM      9  C   UNL     1       3.606   5.610  17.676  0.00  0.00    +0.000 A 
ATOM     10  C   UNL     1       4.559   6.534  17.230  0.00  0.00    +0.000 A 
ATOM     11  C   UNL     1       5.564   6.140  16.340  0.00  0.00    +0.000 A 
ATOM     12  C   UNL     1       5.628   4.823  15.893  0.00  0.00    +0.000 A 
ATOM     13  C   UNL     1       4.694   3.896  16.344  0.00  0.00    +0.000 A 
ATOM     14  C   UNL     1       3.693   4.290  17.244  0.00  0.00    +0.000 A 
ATOM     15  C   UNL     1       2.744   3.292  17.764  0.00  0.00    +0.000 A 
ATOM     16  O   UNL     1       2.810   2.129  17.372  0.00  0.00    +0.000 OA
ENDBRANCH   1   8
BRANCH   3  17
ATOM     17  C   UNL     1       1.779   9.665  18.289  0.00  0.00    +0.000 C 
BRANCH  17  18
ATOM     18  C   UNL     1       0.328   9.959  18.690  0.00  0.00    +0.000 C 
ATOM     19  O   UNL     1      -0.137   9.575  19.761  0.00  0.00    +0.000 OA
ATOM     20  N   UNL     1      -0.377  10.669  17.729  0.00  0.00    +0.000 N 
ATOM     21  H   UNL     1      -0.077  10.553  16.764  0.00  0.00    +0.000 HD
BRANCH  20  22
ATOM     22  C   UNL     1      -1.716  11.078  17.911  0.00  0.00    +0.000 A 
ATOM     23  C   UNL     1      -2.147  11.714  19.082  0.00  0.00    +0.000 A 
ATOM     24  C   UNL     1      -3.482  12.111  19.211  0.00  0.00    +0.000 A 
ATOM     25  C   UNL     1      -4.385  11.842  18.185  0.00  0.00    +0.000 A 
ATOM     26  F   UNL     1      -5.666  12.206  18.329  0.00  0.00    +0.000 F 
ATOM     27  C   UNL     1      -3.964  11.208  17.023  0.00  0.00    +0.000 A 
ATOM     28  F   UNL     1      -4.845  10.928  16.052  0.00  0.00    +0.000 F 
ATOM     29  C   UNL     1      -2.630  10.854  16.876  0.00  0.00    +0.000 A 
ATOM     30  F   UNL     1      -2.218  10.238  15.756  0.00  0.00    +0.000 F 
ENDBRANCH  20  22
ENDBRANCH  17  18
ENDBRANCH   3  17
TORSDOF 4
ENDMDL
MODEL 7
REMARK VINA RESULT:      -8.4      3.326      8.742
REMARK  Name = 
REMARK  5 active torsions:
REMARK  status: ('A' for Active; 'I' for Inactive)
REMARK    1  A    between atoms: C_1  and  N_2
REMARK    2  A    between atoms: C_4  and  C_5
REMARK    3  A    between atoms: N_7  and  C_8
REMARK    4  A    between atoms: C_8  and  C_9
REMARK    5  A    between atoms: N_11  and  C_12
REMARK                            x       y       z     vdW  Elec       q    Type
REMARK                         _______ _______ _______ _____ _____    ______ ____
ROOT
ATOM      1  C   UNL     1       0.545  10.074  19.050  0.00  0.00    +0.000 C 
ATOM      2  O   UNL     1       1.583  10.574  18.645  0.00  0.00    +0.000 OA
ATOM      3  N   UNL     1       0.490   9.035  19.947  0.00  0.00    +0.000 N 
ATOM      4  H   UNL     1      -0.412   8.782  20.347  0.00  0.00    +0.000 HD
ENDROOT
BRANCH   1   8
ATOM      5  C   UNL     1      -2.821  10.285  15.615  0.00  0.00    +0.000 C 
ATOM      6  N   UNL     1      -2.438  10.672  16.960  0.00  0.00    +0.000 N 
ATOM      7  N   UNL     1      -1.204  10.255  17.403  0.00  0.00    +0.000 NA
ATOM      8  C   UNL     1      -0.821  10.601  18.600  0.00  0.00    +0.000 A 
ATOM      9  C   UNL     1      -1.624  11.453  19.500  0.00  0.00    +0.000 A 
ATOM     10  C   UNL     1      -1.176  11.925  20.740  0.00  0.00    +0.000 A 
ATOM     11  C   UNL     1      -2.003  12.723  21.535  0.00  0.00    +0.000 A 
ATOM     12  C   UNL     1      -3.281  13.061  21.099  0.00  0.00    +0.000 A 
ATOM     13  C   UNL     1      -3.729  12.609  19.861  0.00  0.00    +0.000 A 
ATOM     14  C   UNL     1      -2.893  11.816  19.060  0.00  0.00    +0.000 A 
ATOM     15  C   UNL     1      -3.349  11.391  17.726  0.00  0.00    +0.000 A 
ATOM     16  O   UNL     1      -4.475  11.698  17.343  0.00  0.00    +0.000 OA
ENDBRANCH   1   8
BRANCH   3  17
ATOM     17  C   UNL     1       1.694   8.455  20.493  0.00  0.00    +0.000 C 
BRANCH  17  18
ATOM     18  C   UNL     1       2.130   7.216  19.702  0.00  0.00    +0.000 C 
ATOM     19  O   UNL     1       2.323   7.257  18.489  0.00  0.00    +0.000 OA
ATOM     20  N   UNL     1       2.262   6.079  20.486  0.00  0.00    +0.000 N 
ATOM     21  H   UNL     1       1.687   6.033  21.323  0.00  0.00    +0.000 HD
BRANCH  20  22
ATOM     22  C   UNL     1       2.691   4.838  19.967  0.00  0.00    +0.000 A 
ATOM     23  C   UNL     1       4.026   4.599  19.618  0.00  0.00    +0.000 A 
ATOM     24  C   UNL     1       4.405   3.349  19.118  0.00  0.00    +0.000 A 
ATOM     25  C   UNL     1       3.444   2.357  18.939  0.00  0.00    +0.000 A 
ATOM     26  F   UNL     1       3.814   1.171  18.437  0.00  0.00    +0.000 F 
ATOM     27  C   UNL     1       2.117   2.590  19.278  0.00  0.00    +0.000 A 
ATOM     28  F   UNL     1       1.194   1.639  19.076  0.00  0.00    +0.000 F 
ATOM     29  C   UNL     1       1.749   3.814  19.816  0.00  0.00    +0.000 A 
ATOM     30  F   UNL     1       0.468   4.046  20.144  0.00  0.00    +0.000 F 
ENDBRANCH  20  22
ENDBRANCH  17  18
ENDBRANCH   3  17
TORSDOF 4
ENDMDL
MODEL 8
REMARK VINA RESULT:      -8.3      1.778      2.955
REMARK  Name = 
REMARK  5 active torsions:
REMARK  status: ('A' for Active; 'I' for Inactive)
REMARK    1  A    between atoms: C_1  and  N_2
REMARK    2  A    between atoms: C_4  and  C_5
REMARK    3  A    between atoms: N_7  and  C_8
REMARK    4  A    between atoms: C_8  and  C_9
REMARK    5  A    between atoms: N_11  and  C_12
REMARK                            x       y       z     vdW  Elec       q    Type
REMARK                         _______ _______ _______ _____ _____    ______ ____
ROOT
ATOM      1  C   UNL     1       2.102   7.799  19.474  0.00  0.00    +0.000 C 
ATOM      2  O   UNL     1       1.908   7.807  20.680  0.00  0.00    +0.000 OA
ATOM      3  N   UNL     1       1.848   8.866  18.647  0.00  0.00    +0.000 N 
ATOM      4  H   UNL     1       2.181   8.828  17.684  0.00  0.00    +0.000 HD
ENDROOT
BRANCH   1   8
ATOM      5  C   UNL     1       5.074   6.053  16.113  0.00  0.00    +0.000 C 
ATOM      6  N   UNL     1       4.137   5.747  17.179  0.00  0.00    +0.000 N 
ATOM      7  N   UNL     1       3.551   6.813  17.822  0.00  0.00    +0.000 NA
ATOM      8  C   UNL     1       2.690   6.573  18.771  0.00  0.00    +0.000 A 
ATOM      9  C   UNL     1       2.275   5.214  19.173  0.00  0.00    +0.000 A 
ATOM     10  C   UNL     1       1.270   4.945  20.110  0.00  0.00    +0.000 A 
ATOM     11  C   UNL     1       0.942   3.627  20.438  0.00  0.00    +0.000 A 
ATOM     12  C   UNL     1       1.610   2.566  19.833  0.00  0.00    +0.000 A 
ATOM     13  C   UNL     1       2.601   2.823  18.890  0.00  0.00    +0.000 A 
ATOM     14  C   UNL     1       2.921   4.147  18.554  0.00  0.00    +0.000 A 
ATOM     15  C   UNL     1       3.926   4.413  17.512  0.00  0.00    +0.000 A 
ATOM     16  O   UNL     1       4.508   3.473  16.975  0.00  0.00    +0.000 OA
ENDBRANCH   1   8
BRANCH   3  17
ATOM     17  C   UNL     1       1.328  10.108  19.167  0.00  0.00    +0.000 C 
BRANCH  17  18
ATOM     18  C   UNL     1      -0.204  10.144  19.110  0.00  0.00    +0.000 C 
ATOM     19  O   UNL     1      -0.896   9.467  19.868  0.00  0.00    +0.000 OA
ATOM     20  N   UNL     1      -0.700  10.988  18.127  0.00  0.00    +0.000 N 
ATOM     21  H   UNL     1      -0.107  11.140  17.315  0.00  0.00    +0.000 HD
BRANCH  20  22
ATOM     22  C   UNL     1      -2.082  11.200  17.927  0.00  0.00    +0.000 A 
ATOM     23  C   UNL     1      -2.882  11.838  18.882  0.00  0.00    +0.000 A 
ATOM     24  C   UNL     1      -4.245  12.035  18.634  0.00  0.00    +0.000 A 
ATOM     25  C   UNL     1      -4.805  11.565  17.448  0.00  0.00    +0.000 A 
ATOM     26  F   UNL     1      -6.116  11.738  17.231  0.00  0.00    +0.000 F 
ATOM     27  C   UNL     1      -4.018  10.926  16.500  0.00  0.00    +0.000 A 
ATOM     28  F   UNL     1      -4.571  10.452  15.374  0.00  0.00    +0.000 F 
ATOM     29  C   UNL     1      -2.657  10.771  16.726  0.00  0.00    +0.000 A 
ATOM     30  F   UNL     1      -1.891  10.152  15.813  0.00  0.00    +0.000 F 
ENDBRANCH  20  22
ENDBRANCH  17  18
ENDBRANCH   3  17
TORSDOF 4
ENDMDL
MODEL 9
REMARK VINA RESULT:      -8.3      3.779      8.815
REMARK  Name = 
REMARK  5 active torsions:
REMARK  status: ('A' for Active; 'I' for Inactive)
REMARK    1  A    between atoms: C_1  and  N_2
REMARK    2  A    between atoms: C_4  and  C_5
REMARK    3  A    between atoms: N_7  and  C_8
REMARK    4  A    between atoms: C_8  and  C_9
REMARK    5  A    between atoms: N_11  and  C_12
REMARK                            x       y       z     vdW  Elec       q    Type
REMARK                         _______ _______ _______ _____ _____    ______ ____
ROOT
ATOM      1  C   UNL     1       0.174  10.388  18.668  0.00  0.00    +0.000 C 
ATOM      2  O   UNL     1       0.572  10.768  19.758  0.00  0.00    +0.000 OA
ATOM      3  N   UNL     1       0.920   9.629  17.799  0.00  0.00    +0.000 N 
ATOM      4  H   UNL     1       0.460   9.227  16.983  0.00  0.00    +0.000 HD
ENDROOT
BRANCH   1   8
ATOM      5  C   UNL     1      -3.118  10.042  15.173  0.00  0.00    +0.000 C 
ATOM      6  N   UNL     1      -2.818  10.515  16.512  0.00  0.00    +0.000 N 
ATOM      7  N   UNL     1      -1.549  10.282  16.987  0.00  0.00    +0.000 NA
ATOM      8  C   UNL     1      -1.241  10.711  18.179  0.00  0.00    +0.000 A 
ATOM      9  C   UNL     1      -2.170  11.472  19.039  0.00  0.00    +0.000 A 
ATOM     10  C   UNL     1      -1.815  12.036  20.271  0.00  0.00    +0.000 A 
ATOM     11  C   UNL     1      -2.759  12.737  21.027  0.00  0.00    +0.000 A 
ATOM     12  C   UNL     1      -4.062  12.885  20.559  0.00  0.00    +0.000 A 
ATOM     13  C   UNL     1      -4.419  12.341  19.329  0.00  0.00    +0.000 A 
ATOM     14  C   UNL     1      -3.467  11.647  18.567  0.00  0.00    +0.000 A 
ATOM     15  C   UNL     1      -3.834  11.125  17.240  0.00  0.00    +0.000 A 
ATOM     16  O   UNL     1      -4.982  11.266  16.828  0.00  0.00    +0.000 OA
ENDBRANCH   1   8
BRANCH   3  17
ATOM     17  C   UNL     1       2.260   9.210  18.134  0.00  0.00    +0.000 C 
BRANCH  17  18
ATOM     18  C   UNL     1       2.280   7.785  18.698  0.00  0.00    +0.000 C 
ATOM     19  O   UNL     1       1.973   7.546  19.864  0.00  0.00    +0.000 OA
ATOM     20  N   UNL     1       2.686   6.831  17.776  0.00  0.00    +0.000 N 
ATOM     21  H   UNL     1       3.309   7.148  17.037  0.00  0.00    +0.000 HD
BRANCH  20  22
ATOM     22  C   UNL     1       2.739   5.452  18.075  0.00  0.00    +0.000 A 
ATOM     23  C   UNL     1       1.674   4.589  17.793  0.00  0.00    +0.000 A 
ATOM     24  C   UNL     1       1.777   3.227  18.098  0.00  0.00    +0.000 A 
ATOM     25  C   UNL     1       2.931   2.743  18.711  0.00  0.00    +0.000 A 
ATOM     26  F   UNL     1       3.010   1.442  19.019  0.00  0.00    +0.000 F 
ATOM     27  C   UNL     1       3.989   3.596  18.997  0.00  0.00    +0.000 A 
ATOM     28  F   UNL     1       5.085   3.126  19.612  0.00  0.00    +0.000 F 
ATOM     29  C   UNL     1       3.904   4.937  18.654  0.00  0.00    +0.000 A 
ATOM     30  F   UNL     1       4.924   5.767  18.930  0.00  0.00    +0.000 F 
ENDBRANCH  20  22
ENDBRANCH  17  18
ENDBRANCH   3  17
TORSDOF 4
ENDMDL
