MODEL 1
REMARK VINA RESULT:      -9.6      0.000      0.000
REMARK  Name = 
REMARK  5 active torsions:
REMARK  status: ('A' for Active; 'I' for Inactive)
REMARK    1  A    between atoms: C_1  and  S_2
REMARK    2  A    between atoms: S_2  and  N_5
REMARK    3  A    between atoms: N_5  and  C_6
REMARK    4  A    between atoms: C_10  and  C_11
REMARK    5  A    between atoms: C_16  and  C_17
REMARK                            x       y       z     vdW  Elec       q    Type
REMARK                         _______ _______ _______ _____ _____    ______ ____
ROOT
ATOM      1  C   UNL     1       2.231   7.254  18.664  0.00  0.00    +0.000 C 
ATOM      2  O   UNL     1       2.250   8.070  17.751  0.00  0.00    +0.000 OA
ATOM      3  N   UNL     1       1.852   7.447  19.973  0.00  0.00    +0.000 N 
ATOM      4  C   UNL     1       1.407   8.675  20.372  0.00  0.00    +0.000 A 
ATOM      5  N   UNL     1       1.110   9.687  19.611  0.00  0.00    +0.000 NA
ATOM      6  C   UNL     1       0.457  10.636  20.352  0.00  0.00    +0.000 A 
ATOM      7  C   UNL     1       0.491  10.444  21.720  0.00  0.00    +0.000 A 
ATOM      8  S   UNL     1       1.150   8.880  22.045  0.00  0.00    +0.000 S 
ATOM      9  H   UNL     1       1.943   6.728  20.674  0.00  0.00    +0.000 HD
ENDROOT
BRANCH   6  10
ATOM     10  C   UNL     1      -0.437  11.539  19.633  0.00  0.00    +0.000 A 
ATOM     11  C   UNL     1      -0.995  12.729  20.041  0.00  0.00    +0.000 A 
ATOM     12  N   UNL     1      -1.972  13.035  19.125  0.00  0.00    +0.000 N 
ATOM     13  C   UNL     1      -2.272  11.904  18.397  0.00  0.00    +0.000 A 
ATOM     14  C   UNL     1      -3.423  11.512  17.708  0.00  0.00    +0.000 A 
ATOM     15  C   UNL     1      -3.371  10.294  17.019  0.00  0.00    +0.000 A 
ATOM     16  C   UNL     1      -2.180   9.575  16.920  0.00  0.00    +0.000 A 
ATOM     17  C   UNL     1      -1.051   9.974  17.621  0.00  0.00    +0.000 A 
ATOM     18  C   UNL     1      -1.143  11.093  18.472  0.00  0.00    +0.000 A 
ATOM     19  H   UNL     1      -2.498  13.898  19.090  0.00  0.00    +0.000 HD
ENDBRANCH   6  10
BRANCH   1  24
ATOM     20  C   UNL     1       4.701   4.487  18.358  0.00  0.00    +0.000 A 
ATOM     21  C   UNL     1       3.925   3.450  17.843  0.00  0.00    +0.000 A 
ATOM     22  C   UNL     1       2.566   3.647  17.582  0.00  0.00    +0.000 A 
ATOM     23  C   UNL     1       1.976   4.875  17.853  0.00  0.00    +0.000 A 
ATOM     24  C   UNL     1       2.762   5.920  18.365  0.00  0.00    +0.000 A 
ATOM     25  C   UNL     1       4.128   5.720  18.601  0.00  0.00    +0.000 A 
BRANCH  20  26
ATOM     26  N   UNL     1       6.078   4.314  18.636  0.00  0.00    +0.000 N 
ATOM     27  H   UNL     1       6.362   3.410  19.002  0.00  0.00    +0.000 HD
BRANCH  26  29
ATOM     28  C   UNL     1       7.537   6.511  18.084  0.00  0.00    +0.000 C 
ATOM     29  S   UNL     1       7.196   4.863  17.496  0.00  0.00    +0.000 S 
ATOM     30  O   UNL     1       6.582   4.933  16.189  0.00  0.00    +0.000 OA
ATOM     31  O   UNL     1       8.386   4.066  17.722  0.00  0.00    +0.000 OA
ENDBRANCH  26  29
ENDBRANCH  20  26
ENDBRANCH   1  24
TORSDOF 4
ENDMDL
MODEL 2
REMARK VINA RESULT:      -9.3      2.050      2.587
REMARK  Name = 
REMARK  5 active torsions:
REMARK  status: ('A' for Active; 'I' for Inactive)
REMARK    1  A    between atoms: C_1  and  S_2
REMARK    2  A    between atoms: S_2  and  N_5
REMARK    3  A    between atoms: N_5  and  C_6
REMARK    4  A    between atoms: C_10  and  C_11
REMARK    5  A    between atoms: C_16  and  C_17
REMARK                            x       y       z     vdW  Elec       q    Type
REMARK                         _______ _______ _______ _____ _____    ______ ____
ROOT
ATOM      1  C   UNL     1       2.380   8.135  18.274  0.00  0.00    +0.000 C 
ATOM      2  O   UNL     1       2.251   9.099  17.530  0.00  0.00    +0.000 OA
ATOM      3  N   UNL     1       1.946   7.994  19.572  0.00  0.00    +0.000 N 
ATOM      4  C   UNL     1       1.254   9.011  20.166  0.00  0.00    +0.000 A 
ATOM      5  N   UNL     1       0.772  10.073  19.589  0.00  0.00    +0.000 NA
ATOM      6  C   UNL     1      -0.073  10.716  20.454  0.00  0.00    +0.000 A 
ATOM      7  C   UNL     1      -0.026  10.275  21.764  0.00  0.00    +0.000 A 
ATOM      8  S   UNL     1       0.929   8.837  21.830  0.00  0.00    +0.000 S 
ATOM      9  H   UNL     1       2.168   7.186  20.132  0.00  0.00    +0.000 HD
ENDROOT
BRANCH   6  10
ATOM     10  C   UNL     1      -1.117  11.548  19.866  0.00  0.00    +0.000 A 
ATOM     11  C   UNL     1      -1.882  12.535  20.444  0.00  0.00    +0.000 A 
ATOM     12  N   UNL     1      -2.901  12.806  19.561  0.00  0.00    +0.000 N 
ATOM     13  C   UNL     1      -2.991  11.774  18.652  0.00  0.00    +0.000 A 
ATOM     14  C   UNL     1      -4.052  11.299  17.878  0.00  0.00    +0.000 A 
ATOM     15  C   UNL     1      -3.780  10.240  17.004  0.00  0.00    +0.000 A 
ATOM     16  C   UNL     1      -2.477   9.773  16.823  0.00  0.00    +0.000 A 
ATOM     17  C   UNL     1      -1.439  10.248  17.611  0.00  0.00    +0.000 A 
ATOM     18  C   UNL     1      -1.732  11.178  18.628  0.00  0.00    +0.000 A 
ATOM     19  H   UNL     1      -3.575  13.554  19.651  0.00  0.00    +0.000 HD
ENDBRANCH   6  10
BRANCH   1  24
ATOM     20  C   UNL     1       3.339   4.622  17.506  0.00  0.00    +0.000 A 
ATOM     21  C   UNL     1       4.566   4.781  16.864  0.00  0.00    +0.000 A 
ATOM     22  C   UNL     1       5.105   6.057  16.675  0.00  0.00    +0.000 A 
ATOM     23  C   UNL     1       4.408   7.178  17.112  0.00  0.00    +0.000 A 
ATOM     24  C   UNL     1       3.176   7.014  17.764  0.00  0.00    +0.000 A 
ATOM     25  C   UNL     1       2.656   5.730  17.969  0.00  0.00    +0.000 A 
BRANCH  20  26
ATOM     26  N   UNL     1       2.768   3.342  17.705  0.00  0.00    +0.000 N 
ATOM     27  H   UNL     1       2.671   2.750  16.885  0.00  0.00    +0.000 HD
BRANCH  26  29
ATOM     28  C   UNL     1       1.791   2.250  19.965  0.00  0.00    +0.000 C 
ATOM     29  S   UNL     1       3.295   2.432  19.027  0.00  0.00    +0.000 S 
ATOM     30  O   UNL     1       4.258   3.185  19.798  0.00  0.00    +0.000 OA
ATOM     31  O   UNL     1       3.626   1.131  18.479  0.00  0.00    +0.000 OA
ENDBRANCH  26  29
ENDBRANCH  20  26
ENDBRANCH   1  24
TORSDOF 4
ENDMDL
MODEL 3
REMARK VINA RESULT:      -9.3      1.313      1.419
REMARK  Name = 
REMARK  5 active torsions:
REMARK  status: ('A' for Active; 'I' for Inactive)
REMARK    1  A    between atoms: C_1  and  S_2
REMARK    2  A    between atoms: S_2  and  N_5
REMARK    3  A    between atoms: N_5  and  C_6
REMARK    4  A    between atoms: C_10  and  C_11
REMARK    5  A    between atoms: C_16  and  C_17
REMARK                            x       y       z     vdW  Elec       q    Type
REMARK                         _______ _______ _______ _____ _____    ______ ____
ROOT
ATOM      1  C   UNL     1       2.374   6.956  19.634  0.00  0.00    +0.000 C 
ATOM      2  O   UNL     1       2.695   7.575  18.627  0.00  0.00    +0.000 OA
ATOM      3  N   UNL     1       1.652   7.403  20.717  0.00  0.00    +0.000 N 
ATOM      4  C   UNL     1       1.181   8.685  20.730  0.00  0.00    +0.000 A 
ATOM      5  N   UNL     1       1.166   9.526  19.738  0.00  0.00    +0.000 NA
ATOM      6  C   UNL     1       0.384  10.601  20.065  0.00  0.00    +0.000 A 
ATOM      7  C   UNL     1       0.021  10.685  21.397  0.00  0.00    +0.000 A 
ATOM      8  S   UNL     1       0.474   9.217  22.187  0.00  0.00    +0.000 S 
ATOM      9  H   UNL     1       1.503   6.838  21.538  0.00  0.00    +0.000 HD
ENDROOT
BRANCH   6  10
ATOM     10  C   UNL     1      -0.220  11.343  18.962  0.00  0.00    +0.000 A 
ATOM     11  C   UNL     1      -0.124  12.678  18.647  0.00  0.00    +0.000 A 
ATOM     12  N   UNL     1      -1.093  12.927  17.705  0.00  0.00    +0.000 N 
ATOM     13  C   UNL     1      -2.001  11.890  17.714  0.00  0.00    +0.000 A 
ATOM     14  C   UNL     1      -3.347  11.821  17.344  0.00  0.00    +0.000 A 
ATOM     15  C   UNL     1      -3.971  10.571  17.436  0.00  0.00    +0.000 A 
ATOM     16  C   UNL     1      -3.241   9.426  17.757  0.00  0.00    +0.000 A 
ATOM     17  C   UNL     1      -1.909   9.517  18.133  0.00  0.00    +0.000 A 
ATOM     18  C   UNL     1      -1.318  10.792  18.230  0.00  0.00    +0.000 A 
ATOM     19  H   UNL     1      -1.215  13.793  17.198  0.00  0.00    +0.000 HD
ENDBRANCH   6  10
BRANCH   1  24
ATOM     20  C   UNL     1       4.608   4.028  19.104  0.00  0.00    +0.000 A 
ATOM     21  C   UNL     1       4.003   3.045  19.883  0.00  0.00    +0.000 A 
ATOM     22  C   UNL     1       2.836   3.330  20.599  0.00  0.00    +0.000 A 
ATOM     23  C   UNL     1       2.285   4.604  20.551  0.00  0.00    +0.000 A 
ATOM     24  C   UNL     1       2.894   5.591  19.760  0.00  0.00    +0.000 A 
ATOM     25  C   UNL     1       4.049   5.289  19.028  0.00  0.00    +0.000 A 
BRANCH  20  26
ATOM     26  N   UNL     1       5.793   3.768  18.373  0.00  0.00    +0.000 N 
ATOM     27  H   UNL     1       5.680   3.453  17.414  0.00  0.00    +0.000 HD
BRANCH  26  29
ATOM     28  C   UNL     1       6.469   6.203  17.440  0.00  0.00    +0.000 C 
ATOM     29  S   UNL     1       7.057   4.881  18.481  0.00  0.00    +0.000 S 
ATOM     30  O   UNL     1       8.264   4.322  17.917  0.00  0.00    +0.000 OA
ATOM     31  O   UNL     1       7.021   5.358  19.850  0.00  0.00    +0.000 OA
ENDBRANCH  26  29
ENDBRANCH  20  26
ENDBRANCH   1  24
TORSDOF 4
ENDMDL
MODEL 4
REMARK VINA RESULT:      -9.1      2.727      8.908
REMARK  Name = 
REMARK  5 active torsions:
REMARK  status: ('A' for Active; 'I' for Inactive)
REMARK    1  A    between atoms: C_1  and  S_2
REMARK    2  A    between atoms: S_2  and  N_5
REMARK    3  A    between atoms: N_5  and  C_6
REMARK    4  A    between atoms: C_10  and  C_11
REMARK    5  A    between atoms: C_16  and  C_17
REMARK                            x       y       z     vdW  Elec       q    Type
REMARK                         _______ _______ _______ _____ _____    ______ ____
ROOT
ATOM      1  C   UNL     1       1.800   8.412  19.151  0.00  0.00    +0.000 C 
ATOM      2  O   UNL     1       2.482   8.497  18.137  0.00  0.00    +0.000 OA
ATOM      3  N   UNL     1       1.680   7.345  20.012  0.00  0.00    +0.000 N 
ATOM      4  C   UNL     1       2.403   6.209  19.783  0.00  0.00    +0.000 A 
ATOM      5  N   UNL     1       3.367   6.053  18.925  0.00  0.00    +0.000 NA
ATOM      6  C   UNL     1       4.010   4.870  19.174  0.00  0.00    +0.000 A 
ATOM      7  C   UNL     1       3.367   4.022  20.056  0.00  0.00    +0.000 A 
ATOM      8  S   UNL     1       2.046   4.871  20.777  0.00  0.00    +0.000 S 
ATOM      9  H   UNL     1       1.030   7.343  20.783  0.00  0.00    +0.000 HD
ENDROOT
BRANCH   6  10
ATOM     10  C   UNL     1       5.402   4.767  18.745  0.00  0.00    +0.000 A 
ATOM     11  C   UNL     1       6.541   5.255  19.341  0.00  0.00    +0.000 A 
ATOM     12  N   UNL     1       7.546   5.146  18.409  0.00  0.00    +0.000 N 
ATOM     13  C   UNL     1       6.983   4.958  17.165  0.00  0.00    +0.000 A 
ATOM     14  C   UNL     1       7.446   5.235  15.877  0.00  0.00    +0.000 A 
ATOM     15  C   UNL     1       6.621   4.864  14.808  0.00  0.00    +0.000 A 
ATOM     16  C   UNL     1       5.453   4.132  15.023  0.00  0.00    +0.000 A 
ATOM     17  C   UNL     1       5.003   3.878  16.311  0.00  0.00    +0.000 A 
ATOM     18  C   UNL     1       5.724   4.411  17.397  0.00  0.00    +0.000 A 
ATOM     19  H   UNL     1       8.526   5.328  18.575  0.00  0.00    +0.000 HD
ENDBRANCH   6  10
BRANCH   1  24
ATOM     20  C   UNL     1      -0.665  11.140  18.582  0.00  0.00    +0.000 A 
ATOM     21  C   UNL     1      -0.779  11.709  19.849  0.00  0.00    +0.000 A 
ATOM     22  C   UNL     1      -0.037  11.203  20.920  0.00  0.00    +0.000 A 
ATOM     23  C   UNL     1       0.806  10.115  20.729  0.00  0.00    +0.000 A 
ATOM     24  C   UNL     1       0.923   9.548  19.450  0.00  0.00    +0.000 A 
ATOM     25  C   UNL     1       0.193  10.078  18.379  0.00  0.00    +0.000 A 
BRANCH  20  26
ATOM     26  N   UNL     1      -1.409  11.631  17.481  0.00  0.00    +0.000 N 
ATOM     27  H   UNL     1      -0.887  11.864  16.642  0.00  0.00    +0.000 HD
BRANCH  26  29
ATOM     28  C   UNL     1      -4.049  11.789  17.997  0.00  0.00    +0.000 C 
ATOM     29  S   UNL     1      -2.848  10.844  17.078  0.00  0.00    +0.000 S 
ATOM     30  O   UNL     1      -2.826   9.484  17.567  0.00  0.00    +0.000 OA
ATOM     31  O   UNL     1      -3.052  11.131  15.672  0.00  0.00    +0.000 OA
ENDBRANCH  26  29
ENDBRANCH  20  26
ENDBRANCH   1  24
TORSDOF 4
ENDMDL
MODEL 5
REMARK VINA RESULT:      -9.1      3.128      9.009
REMARK  Name = 
REMARK  5 active torsions:
REMARK  status: ('A' for Active; 'I' for Inactive)
REMARK    1  A    between atoms: C_1  and  S_2
REMARK    2  A    between atoms: S_2  and  N_5
REMARK    3  A    between atoms: N_5  and  C_6
REMARK    4  A    between atoms: C_10  and  C_11
REMARK    5  A    between atoms: C_16  and  C_17
REMARK                            x       y       z     vdW  Elec       q    Type
REMARK                         _______ _______ _______ _____ _____    ______ ____
ROOT
ATOM      1  C   UNL     1       1.666   8.854  18.550  0.00  0.00    +0.000 C 
ATOM      2  O   UNL     1       2.156   9.010  17.438  0.00  0.00    +0.000 OA
ATOM      3  N   UNL     1       1.846   7.805  19.422  0.00  0.00    +0.000 N 
ATOM      4  C   UNL     1       2.681   6.780  19.081  0.00  0.00    +0.000 A 
ATOM      5  N   UNL     1       3.506   6.742  18.076  0.00  0.00    +0.000 NA
ATOM      6  C   UNL     1       4.349   5.672  18.220  0.00  0.00    +0.000 A 
ATOM      7  C   UNL     1       3.988   4.764  19.198  0.00  0.00    +0.000 A 
ATOM      8  S   UNL     1       2.691   5.431  20.123  0.00  0.00    +0.000 S 
ATOM      9  H   UNL     1       1.337   7.729  20.289  0.00  0.00    +0.000 HD
ENDROOT
BRANCH   6  10
ATOM     10  C   UNL     1       5.652   5.760  17.569  0.00  0.00    +0.000 A 
ATOM     11  C   UNL     1       6.584   6.771  17.607  0.00  0.00    +0.000 A 
ATOM     12  N   UNL     1       7.494   6.501  16.612  0.00  0.00    +0.000 N 
ATOM     13  C   UNL     1       6.947   5.579  15.746  0.00  0.00    +0.000 A 
ATOM     14  C   UNL     1       7.189   5.302  14.398  0.00  0.00    +0.000 A 
ATOM     15  C   UNL     1       6.476   4.243  13.826  0.00  0.00    +0.000 A 
ATOM     16  C   UNL     1       5.660   3.421  14.605  0.00  0.00    +0.000 A 
ATOM     17  C   UNL     1       5.423   3.719  15.939  0.00  0.00    +0.000 A 
ATOM     18  C   UNL     1       5.983   4.893  16.480  0.00  0.00    +0.000 A 
ATOM     19  H   UNL     1       8.355   7.003  16.449  0.00  0.00    +0.000 HD
ENDBRANCH   6  10
BRANCH   1  24
ATOM     20  C   UNL     1      -1.080  11.355  18.325  0.00  0.00    +0.000 A 
ATOM     21  C   UNL     1      -1.203  11.784  19.645  0.00  0.00    +0.000 A 
ATOM     22  C   UNL     1      -0.374  11.255  20.640  0.00  0.00    +0.000 A 
ATOM     23  C   UNL     1       0.566  10.283  20.318  0.00  0.00    +0.000 A 
ATOM     24  C   UNL     1       0.692   9.859  18.985  0.00  0.00    +0.000 A 
ATOM     25  C   UNL     1      -0.127  10.412  17.993  0.00  0.00    +0.000 A 
BRANCH  20  26
ATOM     26  N   UNL     1      -1.909  11.871  17.300  0.00  0.00    +0.000 N 
ATOM     27  H   UNL     1      -1.447  12.204  16.459  0.00  0.00    +0.000 HD
BRANCH  26  29
ATOM     28  C   UNL     1      -3.024  10.635  15.181  0.00  0.00    +0.000 C 
ATOM     29  S   UNL     1      -3.308  11.013  16.900  0.00  0.00    +0.000 S 
ATOM     30  O   UNL     1      -4.468  11.867  17.023  0.00  0.00    +0.000 OA
ATOM     31  O   UNL     1      -3.211   9.771  17.640  0.00  0.00    +0.000 OA
ENDBRANCH  26  29
ENDBRANCH  20  26
ENDBRANCH   1  24
TORSDOF 4
ENDMDL
MODEL 6
REMARK VINA RESULT:      -9.1      2.746      8.917
REMARK  Name = 
REMARK  5 active torsions:
REMARK  status: ('A' for Active; 'I' for Inactive)
REMARK    1  A    between atoms: C_1  and  S_2
REMARK    2  A    between atoms: S_2  and  N_5
REMARK    3  A    between atoms: N_5  and  C_6
REMARK    4  A    between atoms: C_10  and  C_11
REMARK    5  A    between atoms: C_16  and  C_17
REMARK                            x       y       z     vdW  Elec       q    Type
REMARK                         _______ _______ _______ _____ _____    ______ ____
ROOT
ATOM      1  C   UNL     1       2.059   9.030  18.371  0.00  0.00    +0.000 C 
ATOM      2  O   UNL     1       2.752   8.852  17.377  0.00  0.00    +0.000 OA
ATOM      3  N   UNL     1       1.799   8.152  19.398  0.00  0.00    +0.000 N 
ATOM      4  C   UNL     1       2.370   6.911  19.386  0.00  0.00    +0.000 A 
ATOM      5  N   UNL     1       3.310   6.488  18.592  0.00  0.00    +0.000 NA
ATOM      6  C   UNL     1       3.794   5.294  19.057  0.00  0.00    +0.000 A 
ATOM      7  C   UNL     1       3.042   4.700  20.054  0.00  0.00    +0.000 A 
ATOM      8  S   UNL     1       1.839   5.821  20.583  0.00  0.00    +0.000 S 
ATOM      9  H   UNL     1       1.151   8.365  20.140  0.00  0.00    +0.000 HD
ENDROOT
BRANCH   6  10
ATOM     10  C   UNL     1       5.162   4.944  18.689  0.00  0.00    +0.000 A 
ATOM     11  C   UNL     1       6.346   5.251  19.321  0.00  0.00    +0.000 A 
ATOM     12  N   UNL     1       7.351   4.944  18.434  0.00  0.00    +0.000 N 
ATOM     13  C   UNL     1       6.810   4.815  17.173  0.00  0.00    +0.000 A 
ATOM     14  C   UNL     1       7.361   4.969  15.899  0.00  0.00    +0.000 A 
ATOM     15  C   UNL     1       6.525   4.709  14.806  0.00  0.00    +0.000 A 
ATOM     16  C   UNL     1       5.242   4.193  14.990  0.00  0.00    +0.000 A 
ATOM     17  C   UNL     1       4.708   4.059  16.264  0.00  0.00    +0.000 A 
ATOM     18  C   UNL     1       5.469   4.497  17.366  0.00  0.00    +0.000 A 
ATOM     19  H   UNL     1       8.341   4.963  18.637  0.00  0.00    +0.000 HD
ENDBRANCH   6  10
BRANCH   1  24
ATOM     20  C   UNL     1      -0.810  11.382  18.650  0.00  0.00    +0.000 A 
ATOM     21  C   UNL     1      -0.184  12.625  18.598  0.00  0.00    +0.000 A 
ATOM     22  C   UNL     1       1.206  12.712  18.465  0.00  0.00    +0.000 A 
ATOM     23  C   UNL     1       1.971  11.554  18.402  0.00  0.00    +0.000 A 
ATOM     24  C   UNL     1       1.336  10.303  18.448  0.00  0.00    +0.000 A 
ATOM     25  C   UNL     1      -0.058  10.228  18.558  0.00  0.00    +0.000 A 
BRANCH  20  26
ATOM     26  N   UNL     1      -2.215  11.267  18.790  0.00  0.00    +0.000 N 
ATOM     27  H   UNL     1      -2.698  12.046  19.225  0.00  0.00    +0.000 HD
BRANCH  26  29
ATOM     28  C   UNL     1      -4.622  11.602  17.628  0.00  0.00    +0.000 C 
ATOM     29  S   UNL     1      -3.101  10.686  17.475  0.00  0.00    +0.000 S 
ATOM     30  O   UNL     1      -3.367   9.274  17.638  0.00  0.00    +0.000 OA
ATOM     31  O   UNL     1      -2.408  11.187  16.305  0.00  0.00    +0.000 OA
ENDBRANCH  26  29
ENDBRANCH  20  26
ENDBRANCH   1  24
TORSDOF 4
ENDMDL
MODEL 7
REMARK VINA RESULT:      -9.1      1.206      1.287
REMARK  Name = 
REMARK  5 active torsions:
REMARK  status: ('A' for Active; 'I' for Inactive)
REMARK    1  A    between atoms: C_1  and  S_2
REMARK    2  A    between atoms: S_2  and  N_5
REMARK    3  A    between atoms: N_5  and  C_6
REMARK    4  A    between atoms: C_10  and  C_11
REMARK    5  A    between atoms: C_16  and  C_17
REMARK                            x       y       z     vdW  Elec       q    Type
REMARK                         _______ _______ _______ _____ _____    ______ ____
ROOT
ATOM      1  C   UNL     1       2.242   7.708  19.219  0.00  0.00    +0.000 C 
ATOM      2  O   UNL     1       2.259   8.540  18.321  0.00  0.00    +0.000 OA
ATOM      3  N   UNL     1       1.725   7.832  20.488  0.00  0.00    +0.000 N 
ATOM      4  C   UNL     1       1.118   8.998  20.858  0.00  0.00    +0.000 A 
ATOM      5  N   UNL     1       0.787   9.990  20.084  0.00  0.00    +0.000 NA
ATOM      6  C   UNL     1      -0.029  10.850  20.770  0.00  0.00    +0.000 A 
ATOM      7  C   UNL     1      -0.101  10.634  22.134  0.00  0.00    +0.000 A 
ATOM      8  S   UNL     1       0.687   9.141  22.501  0.00  0.00    +0.000 S 
ATOM      9  H   UNL     1       1.827   7.112  21.187  0.00  0.00    +0.000 HD
ENDROOT
BRANCH   6  10
ATOM     10  C   UNL     1      -0.943  11.669  19.981  0.00  0.00    +0.000 A 
ATOM     11  C   UNL     1      -1.701  12.753  20.362  0.00  0.00    +0.000 A 
ATOM     12  N   UNL     1      -2.593  12.982  19.342  0.00  0.00    +0.000 N 
ATOM     13  C   UNL     1      -2.649  11.865  18.538  0.00  0.00    +0.000 A 
ATOM     14  C   UNL     1      -3.646  11.368  17.694  0.00  0.00    +0.000 A 
ATOM     15  C   UNL     1      -3.348  10.207  16.969  0.00  0.00    +0.000 A 
ATOM     16  C   UNL     1      -2.067   9.654  16.993  0.00  0.00    +0.000 A 
ATOM     17  C   UNL     1      -1.095  10.154  17.847  0.00  0.00    +0.000 A 
ATOM     18  C   UNL     1      -1.438  11.203  18.723  0.00  0.00    +0.000 A 
ATOM     19  H   UNL     1      -3.222  13.771  19.276  0.00  0.00    +0.000 HD
ENDBRANCH   6  10
BRANCH   1  24
ATOM     20  C   UNL     1       4.422   5.237  17.489  0.00  0.00    +0.000 A 
ATOM     21  C   UNL     1       4.314   4.117  18.311  0.00  0.00    +0.000 A 
ATOM     22  C   UNL     1       3.512   4.154  19.456  0.00  0.00    +0.000 A 
ATOM     23  C   UNL     1       2.832   5.319  19.790  0.00  0.00    +0.000 A 
ATOM     24  C   UNL     1       2.937   6.444  18.956  0.00  0.00    +0.000 A 
ATOM     25  C   UNL     1       3.724   6.388  17.800  0.00  0.00    +0.000 A 
BRANCH  20  26
ATOM     26  N   UNL     1       5.231   5.227  16.327  0.00  0.00    +0.000 N 
ATOM     27  H   UNL     1       4.803   5.560  15.468  0.00  0.00    +0.000 HD
BRANCH  26  29
ATOM     28  C   UNL     1       7.490   4.720  17.704  0.00  0.00    +0.000 C 
ATOM     29  S   UNL     1       6.815   5.798  16.455  0.00  0.00    +0.000 S 
ATOM     30  O   UNL     1       6.817   7.160  16.938  0.00  0.00    +0.000 OA
ATOM     31  O   UNL     1       7.442   5.449  15.195  0.00  0.00    +0.000 OA
ENDBRANCH  26  29
ENDBRANCH  20  26
ENDBRANCH   1  24
TORSDOF 4
ENDMDL
MODEL 8
REMARK VINA RESULT:      -9.1      1.549      1.737
REMARK  Name = 
REMARK  5 active torsions:
REMARK  status: ('A' for Active; 'I' for Inactive)
REMARK    1  A    between atoms: C_1  and  S_2
REMARK    2  A    between atoms: S_2  and  N_5
REMARK    3  A    between atoms: N_5  and  C_6
REMARK    4  A    between atoms: C_10  and  C_11
REMARK    5  A    between atoms: C_16  and  C_17
REMARK                            x       y       z     vdW  Elec       q    Type
REMARK                         _______ _______ _______ _____ _____    ______ ____
ROOT
ATOM      1  C   UNL     1       2.542   7.897  18.290  0.00  0.00    +0.000 C 
ATOM      2  O   UNL     1       2.507   8.873  17.550  0.00  0.00    +0.000 OA
ATOM      3  N   UNL     1       2.057   7.781  19.573  0.00  0.00    +0.000 N 
ATOM      4  C   UNL     1       1.424   8.843  20.153  0.00  0.00    +0.000 A 
ATOM      5  N   UNL     1       1.040   9.941  19.571  0.00  0.00    +0.000 NA
ATOM      6  C   UNL     1       0.217  10.639  20.415  0.00  0.00    +0.000 A 
ATOM      7  C   UNL     1       0.191  10.188  21.721  0.00  0.00    +0.000 A 
ATOM      8  S   UNL     1       1.035   8.684  21.805  0.00  0.00    +0.000 S 
ATOM      9  H   UNL     1       2.202   6.956  20.133  0.00  0.00    +0.000 HD
ENDROOT
BRANCH   6  10
ATOM     10  C   UNL     1      -0.744  11.550  19.801  0.00  0.00    +0.000 A 
ATOM     11  C   UNL     1      -1.316  12.694  20.308  0.00  0.00    +0.000 A 
ATOM     12  N   UNL     1      -2.354  13.017  19.466  0.00  0.00    +0.000 N 
ATOM     13  C   UNL     1      -2.658  11.920  18.690  0.00  0.00    +0.000 A 
ATOM     14  C   UNL     1      -3.833  11.527  18.044  0.00  0.00    +0.000 A 
ATOM     15  C   UNL     1      -3.781  10.354  17.282  0.00  0.00    +0.000 A 
ATOM     16  C   UNL     1      -2.574   9.684  17.076  0.00  0.00    +0.000 A 
ATOM     17  C   UNL     1      -1.421  10.082  17.736  0.00  0.00    +0.000 A 
ATOM     18  C   UNL     1      -1.500  11.147  18.655  0.00  0.00    +0.000 A 
ATOM     19  H   UNL     1      -2.908  13.861  19.511  0.00  0.00    +0.000 HD
ENDBRANCH   6  10
BRANCH   1  24
ATOM     20  C   UNL     1       4.990   5.903  16.321  0.00  0.00    +0.000 A 
ATOM     21  C   UNL     1       4.731   4.604  16.751  0.00  0.00    +0.000 A 
ATOM     22  C   UNL     1       3.735   4.358  17.702  0.00  0.00    +0.000 A 
ATOM     23  C   UNL     1       3.010   5.416  18.237  0.00  0.00    +0.000 A 
ATOM     24  C   UNL     1       3.268   6.723  17.796  0.00  0.00    +0.000 A 
ATOM     25  C   UNL     1       4.251   6.955  16.827  0.00  0.00    +0.000 A 
BRANCH  20  26
ATOM     26  N   UNL     1       5.996   6.179  15.363  0.00  0.00    +0.000 N 
ATOM     27  H   UNL     1       6.439   7.091  15.415  0.00  0.00    +0.000 HD
BRANCH  26  29
ATOM     28  C   UNL     1       6.185   3.786  14.141  0.00  0.00    +0.000 C 
ATOM     29  S   UNL     1       7.145   4.983  15.048  0.00  0.00    +0.000 S 
ATOM     30  O   UNL     1       7.606   4.396  16.286  0.00  0.00    +0.000 OA
ATOM     31  O   UNL     1       8.074   5.592  14.116  0.00  0.00    +0.000 OA
ENDBRANCH  26  29
ENDBRANCH  20  26
ENDBRANCH   1  24
TORSDOF 4
ENDMDL
MODEL 9
REMARK VINA RESULT:      -9.0      1.191      2.501
REMARK  Name = 
REMARK  5 active torsions:
REMARK  status: ('A' for Active; 'I' for Inactive)
REMARK    1  A    between atoms: C_1  and  S_2
REMARK    2  A    between atoms: S_2  and  N_5
REMARK    3  A    between atoms: N_5  and  C_6
REMARK    4  A    between atoms: C_10  and  C_11
REMARK    5  A    between atoms: C_16  and  C_17
REMARK                            x       y       z     vdW  Elec       q    Type
REMARK                         _______ _______ _______ _____ _____    ______ ____
ROOT
ATOM      1  C   UNL     1       2.351   7.237  18.629  0.00  0.00    +0.000 C 
ATOM      2  O   UNL     1       2.504   8.087  17.760  0.00  0.00    +0.000 OA
ATOM      3  N   UNL     1       1.848   7.397  19.900  0.00  0.00    +0.000 N 
ATOM      4  C   UNL     1       1.422   8.630  20.306  0.00  0.00    +0.000 A 
ATOM      5  N   UNL     1       1.254   9.685  19.565  0.00  0.00    +0.000 NA
ATOM      6  C   UNL     1       0.574  10.637  20.278  0.00  0.00    +0.000 A 
ATOM      7  C   UNL     1       0.457  10.389  21.633  0.00  0.00    +0.000 A 
ATOM      8  S   UNL     1       1.003   8.782  21.952  0.00  0.00    +0.000 S 
ATOM      9  H   UNL     1       1.832   6.647  20.574  0.00  0.00    +0.000 HD
ENDROOT
BRANCH   6  10
ATOM     10  C   UNL     1      -0.197  11.613  19.514  0.00  0.00    +0.000 A 
ATOM     11  C   UNL     1      -0.791  11.489  18.279  0.00  0.00    +0.000 A 
ATOM     12  N   UNL     1      -1.137  12.759  17.884  0.00  0.00    +0.000 N 
ATOM     13  C   UNL     1      -0.449  13.670  18.655  0.00  0.00    +0.000 A 
ATOM     14  C   UNL     1      -0.059  14.991  18.420  0.00  0.00    +0.000 A 
ATOM     15  C   UNL     1       0.599  15.657  19.461  0.00  0.00    +0.000 A 
ATOM     16  C   UNL     1       0.737  15.068  20.717  0.00  0.00    +0.000 A 
ATOM     17  C   UNL     1       0.355  13.751  20.928  0.00  0.00    +0.000 A 
ATOM     18  C   UNL     1      -0.133  13.005  19.837  0.00  0.00    +0.000 A 
ATOM     19  H   UNL     1      -1.681  12.994  17.065  0.00  0.00    +0.000 HD
ENDBRANCH   6  10
BRANCH   1  24
ATOM     20  C   UNL     1       4.744   4.404  18.323  0.00  0.00    +0.000 A 
ATOM     21  C   UNL     1       3.944   3.392  17.797  0.00  0.00    +0.000 A 
ATOM     22  C   UNL     1       2.592   3.628  17.528  0.00  0.00    +0.000 A 
ATOM     23  C   UNL     1       2.035   4.872  17.802  0.00  0.00    +0.000 A 
ATOM     24  C   UNL     1       2.847   5.891  18.326  0.00  0.00    +0.000 A 
ATOM     25  C   UNL     1       4.204   5.651  18.570  0.00  0.00    +0.000 A 
BRANCH  20  26
ATOM     26  N   UNL     1       6.114   4.190  18.610  0.00  0.00    +0.000 N 
ATOM     27  H   UNL     1       6.385   3.249  18.879  0.00  0.00    +0.000 HD
BRANCH  26  29
ATOM     28  C   UNL     1       7.589   6.428  18.333  0.00  0.00    +0.000 C 
ATOM     29  S   UNL     1       7.260   4.854  17.563  0.00  0.00    +0.000 S 
ATOM     30  O   UNL     1       6.678   5.067  16.257  0.00  0.00    +0.000 OA
ATOM     31  O   UNL     1       8.443   4.033  17.730  0.00  0.00    +0.000 OA
ENDBRANCH  26  29
ENDBRANCH  20  26
ENDBRANCH   1  24
TORSDOF 4
ENDMDL
