MODEL 1
REMARK VINA RESULT:      -9.8      0.000      0.000
REMARK  Name = 
REMARK  9 active torsions:
REMARK  status: ('A' for Active; 'I' for Inactive)
REMARK    1  A    between atoms: C_1  and  C_2
REMARK    2  A    between atoms: C_5  and  C_6
REMARK    3  A    between atoms: C_7  and  C_8
REMARK    4  A    between atoms: C_8  and  N_9
REMARK    5  A    between atoms: N_9  and  C_10
REMARK    6  A    between atoms: C_10  and  C_11
REMARK    7  A    between atoms: C_10  and  C_21
REMARK    8  A    between atoms: C_15  and  S_16
REMARK    9  A    between atoms: S_16  and  C_17
REMARK                            x       y       z     vdW  Elec       q    Type
REMARK                         _______ _______ _______ _____ _____    ______ ____
ROOT
ATOM      1  C   UNL     1       3.429   5.804  18.586  0.00  0.00    +0.000 C 
ENDROOT
BRANCH   1   2
ATOM      2  C   UNL     1       2.617   4.647  19.170  0.00  0.00    +0.000 A 
ATOM      3  C   UNL     1       2.970   4.034  20.391  0.00  0.00    +0.000 A 
ATOM      4  C   UNL     1       2.169   3.041  20.940  0.00  0.00    +0.000 A 
ATOM      5  F   UNL     1       2.502   2.505  22.121  0.00  0.00    +0.000 F 
ATOM      6  C   UNL     1       1.021   2.607  20.291  0.00  0.00    +0.000 A 
ATOM      7  C   UNL     1       0.684   3.164  19.057  0.00  0.00    +0.000 A 
ATOM      8  C   UNL     1       1.482   4.168  18.506  0.00  0.00    +0.000 A 
ATOM      9  F   UNL     1       1.131   4.691  17.321  0.00  0.00    +0.000 F 
ENDBRANCH   1   2
BRANCH   1  10
ATOM     10  C   UNL     1       2.676   7.124  18.714  0.00  0.00    +0.000 A 
ATOM     11  C   UNL     1       2.467   7.968  17.606  0.00  0.00    +0.000 A 
ATOM     12  C   UNL     1       1.725   9.148  17.726  0.00  0.00    +0.000 A 
ATOM     13  C   UNL     1       1.158   9.497  18.948  0.00  0.00    +0.000 A 
ATOM     14  C   UNL     1       1.335   8.653  20.043  0.00  0.00    +0.000 A 
ATOM     15  C   UNL     1       2.116   7.494  19.948  0.00  0.00    +0.000 A 
BRANCH  14  16
ATOM     16  S   UNL     1       0.475   8.999  21.561  0.00  0.00    +0.000 S 
ATOM     17  C   UNL     1      -0.371  10.507  21.165  0.00  0.00    +0.000 C 
ATOM     18  O   UNL     1      -0.513   7.947  21.747  0.00  0.00    +0.000 OA
ATOM     19  O   UNL     1       1.464   9.281  22.581  0.00  0.00    +0.000 OA
ENDBRANCH  14  16
ENDBRANCH   1  10
BRANCH   1  20
ATOM     20  N   UNL     1       3.819   5.476  17.202  0.00  0.00    +0.000 NA
ATOM     21  H   UNL     1       2.980   5.160  16.715  0.00  0.00    +0.000 HD
BRANCH  20  22
ATOM     22  C   UNL     1       4.815   4.420  17.084  0.00  0.00    +0.000 C 
BRANCH  22  29
ATOM     23  C   UNL     1       5.755   3.809  14.030  0.00  0.00    +0.000 C 
ATOM     24  C   UNL     1       6.370   4.740  15.004  0.00  0.00    +0.000 A 
ATOM     25  N   UNL     1       7.458   5.441  14.665  0.00  0.00    +0.000 NA
ATOM     26  O   UNL     1       7.801   6.166  15.787  0.00  0.00    +0.000 OA
ATOM     27  C   UNL     1       6.922   5.905  16.788  0.00  0.00    +0.000 A 
ATOM     28  C   UNL     1       7.187   6.591  18.067  0.00  0.00    +0.000 C 
ATOM     29  C   UNL     1       5.968   5.009  16.346  0.00  0.00    +0.000 A 
ENDBRANCH  22  29
ENDBRANCH  20  22
ENDBRANCH   1  20
TORSDOF 6
ENDMDL
MODEL 2
REMARK VINA RESULT:      -9.8      0.979      1.763
REMARK  Name = 
REMARK  9 active torsions:
REMARK  status: ('A' for Active; 'I' for Inactive)
REMARK    1  A    between atoms: C_1  and  C_2
REMARK    2  A    between atoms: C_5  and  C_6
REMARK    3  A    between atoms: C_7  and  C_8
REMARK    4  A    between atoms: C_8  and  N_9
REMARK    5  A    between atoms: N_9  and  C_10
REMARK    6  A    between atoms: C_10  and  C_11
REMARK    7  A    between atoms: C_10  and  C_21
REMARK    8  A    between atoms: C_15  and  S_16
REMARK    9  A    between atoms: S_16  and  C_17
REMARK                            x       y       z     vdW  Elec       q    Type
REMARK                         _______ _______ _______ _____ _____    ______ ____
ROOT
ATOM      1  C   UNL     1       3.460   6.077  18.798  0.00  0.00    +0.000 C 
ENDROOT
BRANCH   1   2
ATOM      2  C   UNL     1       2.678   4.840  19.241  0.00  0.00    +0.000 A 
ATOM      3  C   UNL     1       2.978   4.160  20.440  0.00  0.00    +0.000 A 
ATOM      4  C   UNL     1       2.200   3.089  20.860  0.00  0.00    +0.000 A 
ATOM      5  F   UNL     1       2.479   2.490  22.024  0.00  0.00    +0.000 F 
ATOM      6  C   UNL     1       1.129   2.643  20.099  0.00  0.00    +0.000 A 
ATOM      7  C   UNL     1       0.848   3.267  18.884  0.00  0.00    +0.000 A 
ATOM      8  C   UNL     1       1.623   4.349  18.463  0.00  0.00    +0.000 A 
ATOM      9  F   UNL     1       1.327   4.935  17.292  0.00  0.00    +0.000 F 
ENDBRANCH   1   2
BRANCH   1  10
ATOM     10  C   UNL     1       2.598   7.333  18.885  0.00  0.00    +0.000 A 
ATOM     11  C   UNL     1       2.292   8.101  17.746  0.00  0.00    +0.000 A 
ATOM     12  C   UNL     1       1.453   9.218  17.830  0.00  0.00    +0.000 A 
ATOM     13  C   UNL     1       0.886   9.575  19.050  0.00  0.00    +0.000 A 
ATOM     14  C   UNL     1       1.160   8.803  20.178  0.00  0.00    +0.000 A 
ATOM     15  C   UNL     1       2.036   7.712  20.115  0.00  0.00    +0.000 A 
BRANCH  14  16
ATOM     16  S   UNL     1       0.308   9.146  21.700  0.00  0.00    +0.000 S 
ATOM     17  C   UNL     1      -0.499  10.682  21.329  0.00  0.00    +0.000 C 
ATOM     18  O   UNL     1      -0.708   8.118  21.869  0.00  0.00    +0.000 OA
ATOM     19  O   UNL     1       1.302   9.386  22.725  0.00  0.00    +0.000 OA
ENDBRANCH  14  16
ENDBRANCH   1  10
BRANCH   1  20
ATOM     20  N   UNL     1       4.029   5.841  17.458  0.00  0.00    +0.000 NA
ATOM     21  H   UNL     1       4.264   4.850  17.396  0.00  0.00    +0.000 HD
BRANCH  20  22
ATOM     22  C   UNL     1       5.241   6.595  17.170  0.00  0.00    +0.000 C 
BRANCH  22  29
ATOM     23  C   UNL     1       7.288   5.646  19.514  0.00  0.00    +0.000 C 
ATOM     24  C   UNL     1       7.234   5.183  18.109  0.00  0.00    +0.000 A 
ATOM     25  N   UNL     1       8.113   4.274  17.669  0.00  0.00    +0.000 NA
ATOM     26  O   UNL     1       7.828   4.094  16.332  0.00  0.00    +0.000 OA
ATOM     27  C   UNL     1       6.783   4.884  15.975  0.00  0.00    +0.000 A 
ATOM     28  C   UNL     1       6.387   4.818  14.556  0.00  0.00    +0.000 C 
ATOM     29  C   UNL     1       6.345   5.598  17.074  0.00  0.00    +0.000 A 
ENDBRANCH  22  29
ENDBRANCH  20  22
ENDBRANCH   1  20
TORSDOF 6
ENDMDL
MODEL 3
REMARK VINA RESULT:      -9.3      1.131      1.289
REMARK  Name = 
REMARK  9 active torsions:
REMARK  status: ('A' for Active; 'I' for Inactive)
REMARK    1  A    between atoms: C_1  and  C_2
REMARK    2  A    between atoms: C_5  and  C_6
REMARK    3  A    between atoms: C_7  and  C_8
REMARK    4  A    between atoms: C_8  and  N_9
REMARK    5  A    between atoms: N_9  and  C_10
REMARK    6  A    between atoms: C_10  and  C_11
REMARK    7  A    between atoms: C_10  and  C_21
REMARK    8  A    between atoms: C_15  and  S_16
REMARK    9  A    between atoms: S_16  and  C_17
REMARK                            x       y       z     vdW  Elec       q    Type
REMARK                         _______ _______ _______ _____ _____    ______ ____
ROOT
ATOM      1  C   UNL     1       3.402   6.244  18.804  0.00  0.00    +0.000 C 
ENDROOT
BRANCH   1   2
ATOM      2  C   UNL     1       2.647   5.011  19.299  0.00  0.00    +0.000 A 
ATOM      3  C   UNL     1       2.939   4.411  20.542  0.00  0.00    +0.000 A 
ATOM      4  C   UNL     1       2.182   3.342  21.006  0.00  0.00    +0.000 A 
ATOM      5  F   UNL     1       2.451   2.819  22.209  0.00  0.00    +0.000 F 
ATOM      6  C   UNL     1       1.145   2.819  20.248  0.00  0.00    +0.000 A 
ATOM      7  C   UNL     1       0.875   3.363  18.992  0.00  0.00    +0.000 A 
ATOM      8  C   UNL     1       1.627   4.443  18.527  0.00  0.00    +0.000 A 
ATOM      9  F   UNL     1       1.343   4.951  17.318  0.00  0.00    +0.000 F 
ENDBRANCH   1   2
BRANCH   1  10
ATOM     10  C   UNL     1       2.518   7.487  18.851  0.00  0.00    +0.000 A 
ATOM     11  C   UNL     1       2.269   8.263  17.704  0.00  0.00    +0.000 A 
ATOM     12  C   UNL     1       1.410   9.367  17.750  0.00  0.00    +0.000 A 
ATOM     13  C   UNL     1       0.765   9.702  18.937  0.00  0.00    +0.000 A 
ATOM     14  C   UNL     1       0.984   8.922  20.071  0.00  0.00    +0.000 A 
ATOM     15  C   UNL     1       1.878   7.844  20.049  0.00  0.00    +0.000 A 
BRANCH  14  16
ATOM     16  S   UNL     1       0.037   9.236  21.543  0.00  0.00    +0.000 S 
ATOM     17  C   UNL     1       1.303   9.303  22.784  0.00  0.00    +0.000 C 
ATOM     18  O   UNL     1      -0.549  10.561  21.407  0.00  0.00    +0.000 OA
ATOM     19  O   UNL     1      -0.793   8.077  21.797  0.00  0.00    +0.000 OA
ENDBRANCH  14  16
ENDBRANCH   1  10
BRANCH   1  20
ATOM     20  N   UNL     1       3.964   5.969  17.467  0.00  0.00    +0.000 NA
ATOM     21  H   UNL     1       4.210   4.979  17.438  0.00  0.00    +0.000 HD
BRANCH  20  22
ATOM     22  C   UNL     1       5.164   6.727  17.144  0.00  0.00    +0.000 C 
BRANCH  22  29
ATOM     23  C   UNL     1       5.855   4.781  14.629  0.00  0.00    +0.000 C 
ATOM     24  C   UNL     1       6.571   4.891  15.922  0.00  0.00    +0.000 A 
ATOM     25  N   UNL     1       7.634   4.115  16.166  0.00  0.00    +0.000 NA
ATOM     26  O   UNL     1       8.036   4.424  17.448  0.00  0.00    +0.000 OA
ATOM     27  C   UNL     1       7.224   5.380  17.966  0.00  0.00    +0.000 A 
ATOM     28  C   UNL     1       7.518   5.788  19.352  0.00  0.00    +0.000 C 
ATOM     29  C   UNL     1       6.271   5.736  17.030  0.00  0.00    +0.000 A 
ENDBRANCH  22  29
ENDBRANCH  20  22
ENDBRANCH   1  20
TORSDOF 6
ENDMDL
MODEL 4
REMARK VINA RESULT:      -9.1      1.025      1.173
REMARK  Name = 
REMARK  9 active torsions:
REMARK  status: ('A' for Active; 'I' for Inactive)
REMARK    1  A    between atoms: C_1  and  C_2
REMARK    2  A    between atoms: C_5  and  C_6
REMARK    3  A    between atoms: C_7  and  C_8
REMARK    4  A    between atoms: C_8  and  N_9
REMARK    5  A    between atoms: N_9  and  C_10
REMARK    6  A    between atoms: C_10  and  C_11
REMARK    7  A    between atoms: C_10  and  C_21
REMARK    8  A    between atoms: C_15  and  S_16
REMARK    9  A    between atoms: S_16  and  C_17
REMARK                            x       y       z     vdW  Elec       q    Type
REMARK                         _______ _______ _______ _____ _____    ______ ____
ROOT
ATOM      1  C   UNL     1       3.321   6.058  19.227  0.00  0.00    +0.000 C 
ENDROOT
BRANCH   1   2
ATOM      2  C   UNL     1       2.416   4.858  19.507  0.00  0.00    +0.000 A 
ATOM      3  C   UNL     1       2.295   4.304  20.799  0.00  0.00    +0.000 A 
ATOM      4  C   UNL     1       1.404   3.267  21.042  0.00  0.00    +0.000 A 
ATOM      5  F   UNL     1       1.276   2.788  22.286  0.00  0.00    +0.000 F 
ATOM      6  C   UNL     1       0.633   2.731  20.020  0.00  0.00    +0.000 A 
ATOM      7  C   UNL     1       0.776   3.230  18.725  0.00  0.00    +0.000 A 
ATOM      8  C   UNL     1       1.666   4.277  18.478  0.00  0.00    +0.000 A 
ATOM      9  F   UNL     1       1.779   4.742  17.224  0.00  0.00    +0.000 F 
ENDBRANCH   1   2
BRANCH   1  10
ATOM     10  C   UNL     1       2.508   7.341  19.092  0.00  0.00    +0.000 A 
ATOM     11  C   UNL     1       2.207   7.899  17.835  0.00  0.00    +0.000 A 
ATOM     12  C   UNL     1       1.411   9.045  17.723  0.00  0.00    +0.000 A 
ATOM     13  C   UNL     1       0.881   9.642  18.864  0.00  0.00    +0.000 A 
ATOM     14  C   UNL     1       1.150   9.080  20.111  0.00  0.00    +0.000 A 
ATOM     15  C   UNL     1       1.984   7.962  20.238  0.00  0.00    +0.000 A 
BRANCH  14  16
ATOM     16  S   UNL     1       0.341   9.730  21.555  0.00  0.00    +0.000 S 
ATOM     17  C   UNL     1      -0.691   8.370  22.038  0.00  0.00    +0.000 C 
ATOM     18  O   UNL     1       1.363   9.922  22.573  0.00  0.00    +0.000 OA
ATOM     19  O   UNL     1      -0.509  10.825  21.136  0.00  0.00    +0.000 OA
ENDBRANCH  14  16
ENDBRANCH   1  10
BRANCH   1  20
ATOM     20  N   UNL     1       4.167   5.767  18.054  0.00  0.00    +0.000 NA
ATOM     21  H   UNL     1       3.664   5.097  17.472  0.00  0.00    +0.000 HD
BRANCH  20  22
ATOM     22  C   UNL     1       5.464   5.184  18.369  0.00  0.00    +0.000 C 
BRANCH  22  29
ATOM     23  C   UNL     1       5.766   3.568  15.561  0.00  0.00    +0.000 C 
ATOM     24  C   UNL     1       6.481   4.792  15.990  0.00  0.00    +0.000 A 
ATOM     25  N   UNL     1       7.391   5.354  15.184  0.00  0.00    +0.000 NA
ATOM     26  O   UNL     1       7.896   6.430  15.882  0.00  0.00    +0.000 OA
ATOM     27  C   UNL     1       7.290   6.516  17.094  0.00  0.00    +0.000 A 
ATOM     28  C   UNL     1       7.758   7.609  17.967  0.00  0.00    +0.000 C 
ATOM     29  C   UNL     1       6.359   5.503  17.220  0.00  0.00    +0.000 A 
ENDBRANCH  22  29
ENDBRANCH  20  22
ENDBRANCH   1  20
TORSDOF 6
ENDMDL
MODEL 5
REMARK VINA RESULT:      -9.1      0.832      1.553
REMARK  Name = 
REMARK  9 active torsions:
REMARK  status: ('A' for Active; 'I' for Inactive)
REMARK    1  A    between atoms: C_1  and  C_2
REMARK    2  A    between atoms: C_5  and  C_6
REMARK    3  A    between atoms: C_7  and  C_8
REMARK    4  A    between atoms: C_8  and  N_9
REMARK    5  A    between atoms: N_9  and  C_10
REMARK    6  A    between atoms: C_10  and  C_11
REMARK    7  A    between atoms: C_10  and  C_21
REMARK    8  A    between atoms: C_15  and  S_16
REMARK    9  A    between atoms: S_16  and  C_17
REMARK                            x       y       z     vdW  Elec       q    Type
REMARK                         _______ _______ _______ _____ _____    ______ ____
ROOT
ATOM      1  C   UNL     1       3.259   5.803  18.805  0.00  0.00    +0.000 C 
ENDROOT
BRANCH   1   2
ATOM      2  C   UNL     1       2.376   4.679  19.349  0.00  0.00    +0.000 A 
ATOM      3  C   UNL     1       1.574   3.887  18.500  0.00  0.00    +0.000 A 
ATOM      4  C   UNL     1       0.846   2.820  19.010  0.00  0.00    +0.000 A 
ATOM      5  F   UNL     1       0.127   2.056  18.177  0.00  0.00    +0.000 F 
ATOM      6  C   UNL     1       0.864   2.524  20.366  0.00  0.00    +0.000 A 
ATOM      7  C   UNL     1       1.609   3.327  21.229  0.00  0.00    +0.000 A 
ATOM      8  C   UNL     1       2.349   4.396  20.719  0.00  0.00    +0.000 A 
ATOM      9  F   UNL     1       3.062   5.149  21.571  0.00  0.00    +0.000 F 
ENDBRANCH   1   2
BRANCH   1  10
ATOM     10  C   UNL     1       2.545   7.149  18.879  0.00  0.00    +0.000 A 
ATOM     11  C   UNL     1       2.377   7.962  17.742  0.00  0.00    +0.000 A 
ATOM     12  C   UNL     1       1.669   9.167  17.813  0.00  0.00    +0.000 A 
ATOM     13  C   UNL     1       1.097   9.572  19.015  0.00  0.00    +0.000 A 
ATOM     14  C   UNL     1       1.233   8.759  20.139  0.00  0.00    +0.000 A 
ATOM     15  C   UNL     1       1.979   7.575  20.092  0.00  0.00    +0.000 A 
BRANCH  14  16
ATOM     16  S   UNL     1       0.363   9.179  21.632  0.00  0.00    +0.000 S 
ATOM     17  C   UNL     1      -0.409  10.712  21.186  0.00  0.00    +0.000 C 
ATOM     18  O   UNL     1      -0.673   8.176  21.826  0.00  0.00    +0.000 OA
ATOM     19  O   UNL     1       1.346   9.444  22.663  0.00  0.00    +0.000 OA
ENDBRANCH  14  16
ENDBRANCH   1  10
BRANCH   1  20
ATOM     20  N   UNL     1       3.716   5.449  17.447  0.00  0.00    +0.000 NA
ATOM     21  H   UNL     1       2.914   5.074  16.942  0.00  0.00    +0.000 HD
BRANCH  20  22
ATOM     22  C   UNL     1       4.769   4.444  17.403  0.00  0.00    +0.000 C 
BRANCH  22  29
ATOM     23  C   UNL     1       5.454   4.134  14.237  0.00  0.00    +0.000 C 
ATOM     24  C   UNL     1       6.191   4.916  15.258  0.00  0.00    +0.000 A 
ATOM     25  N   UNL     1       7.293   5.593  14.915  0.00  0.00    +0.000 NA
ATOM     26  O   UNL     1       7.757   6.168  16.080  0.00  0.00    +0.000 OA
ATOM     27  C   UNL     1       6.936   5.841  17.111  0.00  0.00    +0.000 A 
ATOM     28  C   UNL     1       7.330   6.363  18.432  0.00  0.00    +0.000 C 
ATOM     29  C   UNL     1       5.901   5.052  16.647  0.00  0.00    +0.000 A 
ENDBRANCH  22  29
ENDBRANCH  20  22
ENDBRANCH   1  20
TORSDOF 6
ENDMDL
MODEL 6
REMARK VINA RESULT:      -9.0      1.277      2.364
REMARK  Name = 
REMARK  9 active torsions:
REMARK  status: ('A' for Active; 'I' for Inactive)
REMARK    1  A    between atoms: C_1  and  C_2
REMARK    2  A    between atoms: C_5  and  C_6
REMARK    3  A    between atoms: C_7  and  C_8
REMARK    4  A    between atoms: C_8  and  N_9
REMARK    5  A    between atoms: N_9  and  C_10
REMARK    6  A    between atoms: C_10  and  C_11
REMARK    7  A    between atoms: C_10  and  C_21
REMARK    8  A    between atoms: C_15  and  S_16
REMARK    9  A    between atoms: S_16  and  C_17
REMARK                            x       y       z     vdW  Elec       q    Type
REMARK                         _______ _______ _______ _____ _____    ______ ____
ROOT
ATOM      1  C   UNL     1       3.260   5.946  19.169  0.00  0.00    +0.000 C 
ENDROOT
BRANCH   1   2
ATOM      2  C   UNL     1       2.377   4.766  19.577  0.00  0.00    +0.000 A 
ATOM      3  C   UNL     1       1.678   3.997  18.623  0.00  0.00    +0.000 A 
ATOM      4  C   UNL     1       0.950   2.880  19.013  0.00  0.00    +0.000 A 
ATOM      5  F   UNL     1       0.331   2.141  18.083  0.00  0.00    +0.000 F 
ATOM      6  C   UNL     1       0.867   2.510  20.348  0.00  0.00    +0.000 A 
ATOM      7  C   UNL     1       1.508   3.289  21.312  0.00  0.00    +0.000 A 
ATOM      8  C   UNL     1       2.248   4.407  20.923  0.00  0.00    +0.000 A 
ATOM      9  F   UNL     1       2.859   5.134  21.871  0.00  0.00    +0.000 F 
ENDBRANCH   1   2
BRANCH   1  10
ATOM     10  C   UNL     1       2.466   7.249  19.154  0.00  0.00    +0.000 A 
ATOM     11  C   UNL     1       2.230   7.959  17.962  0.00  0.00    +0.000 A 
ATOM     12  C   UNL     1       1.451   9.121  17.955  0.00  0.00    +0.000 A 
ATOM     13  C   UNL     1       0.874   9.584  19.134  0.00  0.00    +0.000 A 
ATOM     14  C   UNL     1       1.079   8.871  20.314  0.00  0.00    +0.000 A 
ATOM     15  C   UNL     1       1.895   7.734  20.342  0.00  0.00    +0.000 A 
BRANCH  14  16
ATOM     16  S   UNL     1       0.210   9.354  21.788  0.00  0.00    +0.000 S 
ATOM     17  C   UNL     1      -0.589  10.850  21.268  0.00  0.00    +0.000 C 
ATOM     18  O   UNL     1      -0.810   8.346  22.039  0.00  0.00    +0.000 OA
ATOM     19  O   UNL     1       1.193   9.686  22.798  0.00  0.00    +0.000 OA
ENDBRANCH  14  16
ENDBRANCH   1  10
BRANCH   1  20
ATOM     20  N   UNL     1       3.920   5.641  17.885  0.00  0.00    +0.000 NA
ATOM     21  H   UNL     1       4.247   4.676  17.932  0.00  0.00    +0.000 HD
BRANCH  20  22
ATOM     22  C   UNL     1       5.072   6.478  17.579  0.00  0.00    +0.000 C 
BRANCH  22  29
ATOM     23  C   UNL     1       7.497   5.627  19.574  0.00  0.00    +0.000 C 
ATOM     24  C   UNL     1       7.261   5.178  18.183  0.00  0.00    +0.000 A 
ATOM     25  N   UNL     1       8.115   4.328  17.599  0.00  0.00    +0.000 NA
ATOM     26  O   UNL     1       7.644   4.146  16.317  0.00  0.00    +0.000 OA
ATOM     27  C   UNL     1       6.515   4.877  16.134  0.00  0.00    +0.000 A 
ATOM     28  C   UNL     1       5.916   4.804  14.789  0.00  0.00    +0.000 C 
ATOM     29  C   UNL     1       6.205   5.550  17.301  0.00  0.00    +0.000 A 
ENDBRANCH  22  29
ENDBRANCH  20  22
ENDBRANCH   1  20
TORSDOF 6
ENDMDL
MODEL 7
REMARK VINA RESULT:      -8.9      1.323      1.901
REMARK  Name = 
REMARK  9 active torsions:
REMARK  status: ('A' for Active; 'I' for Inactive)
REMARK    1  A    between atoms: C_1  and  C_2
REMARK    2  A    between atoms: C_5  and  C_6
REMARK    3  A    between atoms: C_7  and  C_8
REMARK    4  A    between atoms: C_8  and  N_9
REMARK    5  A    between atoms: N_9  and  C_10
REMARK    6  A    between atoms: C_10  and  C_11
REMARK    7  A    between atoms: C_10  and  C_21
REMARK    8  A    between atoms: C_15  and  S_16
REMARK    9  A    between atoms: S_16  and  C_17
REMARK                            x       y       z     vdW  Elec       q    Type
REMARK                         _______ _______ _______ _____ _____    ______ ____
ROOT
ATOM      1  C   UNL     1       3.156   6.473  18.758  0.00  0.00    +0.000 C 
ENDROOT
BRANCH   1   2
ATOM      2  C   UNL     1       2.496   5.213  19.318  0.00  0.00    +0.000 A 
ATOM      3  C   UNL     1       2.792   4.732  20.611  0.00  0.00    +0.000 A 
ATOM      4  C   UNL     1       2.117   3.633  21.128  0.00  0.00    +0.000 A 
ATOM      5  F   UNL     1       2.385   3.223  22.375  0.00  0.00    +0.000 F 
ATOM      6  C   UNL     1       1.161   2.963  20.378  0.00  0.00    +0.000 A 
ATOM      7  C   UNL     1       0.893   3.391  19.077  0.00  0.00    +0.000 A 
ATOM      8  C   UNL     1       1.562   4.500  18.558  0.00  0.00    +0.000 A 
ATOM      9  F   UNL     1       1.280   4.893  17.306  0.00  0.00    +0.000 F 
ENDBRANCH   1   2
BRANCH   1  10
ATOM     10  C   UNL     1       2.267   7.696  18.959  0.00  0.00    +0.000 A 
ATOM     11  C   UNL     1       1.828   8.479  17.875  0.00  0.00    +0.000 A 
ATOM     12  C   UNL     1       0.965   9.564  18.069  0.00  0.00    +0.000 A 
ATOM     13  C   UNL     1       0.506   9.873  19.346  0.00  0.00    +0.000 A 
ATOM     14  C   UNL     1       0.912   9.085  20.422  0.00  0.00    +0.000 A 
ATOM     15  C   UNL     1       1.813   8.027  20.247  0.00  0.00    +0.000 A 
BRANCH  14  16
ATOM     16  S   UNL     1       0.200   9.363  22.027  0.00  0.00    +0.000 S 
ATOM     17  C   UNL     1      -0.617  10.921  21.799  0.00  0.00    +0.000 C 
ATOM     18  O   UNL     1      -0.810   8.336  22.236  0.00  0.00    +0.000 OA
ATOM     19  O   UNL     1       1.283   9.546  22.971  0.00  0.00    +0.000 OA
ENDBRANCH  14  16
ENDBRANCH   1  10
BRANCH   1  20
ATOM     20  N   UNL     1       3.533   6.241  17.350  0.00  0.00    +0.000 NA
ATOM     21  H   UNL     1       3.653   5.235  17.228  0.00  0.00    +0.000 HD
BRANCH  20  22
ATOM     22  C   UNL     1       4.776   6.881  16.940  0.00  0.00    +0.000 C 
BRANCH  22  29
ATOM     23  C   UNL     1       7.789   7.682  17.872  0.00  0.00    +0.000 C 
ATOM     24  C   UNL     1       7.194   6.329  17.772  0.00  0.00    +0.000 A 
ATOM     25  N   UNL     1       7.929   5.251  18.070  0.00  0.00    +0.000 NA
ATOM     26  O   UNL     1       7.113   4.165  17.837  0.00  0.00    +0.000 OA
ATOM     27  C   UNL     1       5.897   4.588  17.407  0.00  0.00    +0.000 A 
ATOM     28  C   UNL     1       4.926   3.526  17.086  0.00  0.00    +0.000 C 
ATOM     29  C   UNL     1       5.878   5.969  17.359  0.00  0.00    +0.000 A 
ENDBRANCH  22  29
ENDBRANCH  20  22
ENDBRANCH   1  20
TORSDOF 6
ENDMDL
MODEL 8
REMARK VINA RESULT:      -8.9      2.074      2.811
REMARK  Name = 
REMARK  9 active torsions:
REMARK  status: ('A' for Active; 'I' for Inactive)
REMARK    1  A    between atoms: C_1  and  C_2
REMARK    2  A    between atoms: C_5  and  C_6
REMARK    3  A    between atoms: C_7  and  C_8
REMARK    4  A    between atoms: C_8  and  N_9
REMARK    5  A    between atoms: N_9  and  C_10
REMARK    6  A    between atoms: C_10  and  C_11
REMARK    7  A    between atoms: C_10  and  C_21
REMARK    8  A    between atoms: C_15  and  S_16
REMARK    9  A    between atoms: S_16  and  C_17
REMARK                            x       y       z     vdW  Elec       q    Type
REMARK                         _______ _______ _______ _____ _____    ______ ____
ROOT
ATOM      1  C   UNL     1       3.855   5.989  18.610  0.00  0.00    +0.000 C 
ENDROOT
BRANCH   1   2
ATOM      2  C   UNL     1       3.498   4.502  18.617  0.00  0.00    +0.000 A 
ATOM      3  C   UNL     1       4.340   3.539  19.212  0.00  0.00    +0.000 A 
ATOM      4  C   UNL     1       3.953   2.207  19.278  0.00  0.00    +0.000 A 
ATOM      5  F   UNL     1       4.750   1.319  19.887  0.00  0.00    +0.000 F 
ATOM      6  C   UNL     1       2.746   1.785  18.737  0.00  0.00    +0.000 A 
ATOM      7  C   UNL     1       1.924   2.713  18.098  0.00  0.00    +0.000 A 
ATOM      8  C   UNL     1       2.306   4.054  18.037  0.00  0.00    +0.000 A 
ATOM      9  F   UNL     1       1.493   4.927  17.422  0.00  0.00    +0.000 F 
ENDBRANCH   1   2
BRANCH   1  10
ATOM     10  C   UNL     1       2.763   6.821  19.274  0.00  0.00    +0.000 A 
ATOM     11  C   UNL     1       2.193   6.449  20.505  0.00  0.00    +0.000 A 
ATOM     12  C   UNL     1       1.233   7.253  21.131  0.00  0.00    +0.000 A 
ATOM     13  C   UNL     1       0.842   8.455  20.550  0.00  0.00    +0.000 A 
ATOM     14  C   UNL     1       1.422   8.846  19.344  0.00  0.00    +0.000 A 
ATOM     15  C   UNL     1       2.348   8.028  18.685  0.00  0.00    +0.000 A 
BRANCH  14  16
ATOM     16  S   UNL     1       1.058  10.455  18.681  0.00  0.00    +0.000 S 
ATOM     17  C   UNL     1       0.941  11.439  20.153  0.00  0.00    +0.000 C 
ATOM     18  O   UNL     1       2.226  10.887  17.926  0.00  0.00    +0.000 OA
ATOM     19  O   UNL     1      -0.250  10.398  18.062  0.00  0.00    +0.000 OA
ENDBRANCH  14  16
ENDBRANCH   1  10
BRANCH   1  20
ATOM     20  N   UNL     1       4.163   6.409  17.230  0.00  0.00    +0.000 NA
ATOM     21  H   UNL     1       4.110   5.580  16.638  0.00  0.00    +0.000 HD
BRANCH  20  22
ATOM     22  C   UNL     1       5.489   6.988  17.051  0.00  0.00    +0.000 C 
BRANCH  22  29
ATOM     23  C   UNL     1       7.705   5.925  19.183  0.00  0.00    +0.000 C 
ATOM     24  C   UNL     1       7.395   5.379  17.841  0.00  0.00    +0.000 A 
ATOM     25  N   UNL     1       8.080   4.330  17.370  0.00  0.00    +0.000 NA
ATOM     26  O   UNL     1       7.589   4.100  16.103  0.00  0.00    +0.000 OA
ATOM     27  C   UNL     1       6.615   5.002  15.817  0.00  0.00    +0.000 A 
ATOM     28  C   UNL     1       6.019   4.897  14.473  0.00  0.00    +0.000 C 
ATOM     29  C   UNL     1       6.430   5.843  16.899  0.00  0.00    +0.000 A 
ENDBRANCH  22  29
ENDBRANCH  20  22
ENDBRANCH   1  20
TORSDOF 6
ENDMDL
MODEL 9
REMARK VINA RESULT:      -8.8      1.270      1.760
REMARK  Name = 
REMARK  9 active torsions:
REMARK  status: ('A' for Active; 'I' for Inactive)
REMARK    1  A    between atoms: C_1  and  C_2
REMARK    2  A    between atoms: C_5  and  C_6
REMARK    3  A    between atoms: C_7  and  C_8
REMARK    4  A    between atoms: C_8  and  N_9
REMARK    5  A    between atoms: N_9  and  C_10
REMARK    6  A    between atoms: C_10  and  C_11
REMARK    7  A    between atoms: C_10  and  C_21
REMARK    8  A    between atoms: C_15  and  S_16
REMARK    9  A    between atoms: S_16  and  C_17
REMARK                            x       y       z     vdW  Elec       q    Type
REMARK                         _______ _______ _______ _____ _____    ______ ____
ROOT
ATOM      1  C   UNL     1       3.243   6.314  19.279  0.00  0.00    +0.000 C 
ENDROOT
BRANCH   1   2
ATOM      2  C   UNL     1       2.436   5.020  19.164  0.00  0.00    +0.000 A 
ATOM      3  C   UNL     1       2.565   4.160  18.054  0.00  0.00    +0.000 A 
ATOM      4  C   UNL     1       1.882   2.950  18.013  0.00  0.00    +0.000 A 
ATOM      5  F   UNL     1       2.057   2.131  16.969  0.00  0.00    +0.000 F 
ATOM      6  C   UNL     1       1.035   2.573  19.046  0.00  0.00    +0.000 A 
ATOM      7  C   UNL     1       0.853   3.434  20.128  0.00  0.00    +0.000 A 
ATOM      8  C   UNL     1       1.544   4.646  20.176  0.00  0.00    +0.000 A 
ATOM      9  F   UNL     1       1.354   5.453  21.231  0.00  0.00    +0.000 F 
ENDBRANCH   1   2
BRANCH   1  10
ATOM     10  C   UNL     1       2.329   7.535  19.282  0.00  0.00    +0.000 A 
ATOM     11  C   UNL     1       1.939   8.172  18.089  0.00  0.00    +0.000 A 
ATOM     12  C   UNL     1       1.054   9.256  18.103  0.00  0.00    +0.000 A 
ATOM     13  C   UNL     1       0.523   9.709  19.307  0.00  0.00    +0.000 A 
ATOM     14  C   UNL     1       0.881   9.067  20.491  0.00  0.00    +0.000 A 
ATOM     15  C   UNL     1       1.803   8.012  20.494  0.00  0.00    +0.000 A 
BRANCH  14  16
ATOM     16  S   UNL     1       0.080   9.525  22.010  0.00  0.00    +0.000 S 
ATOM     17  C   UNL     1      -0.781  11.002  21.538  0.00  0.00    +0.000 C 
ATOM     18  O   UNL     1      -0.901   8.493  22.311  0.00  0.00    +0.000 OA
ATOM     19  O   UNL     1       1.107   9.878  22.969  0.00  0.00    +0.000 OA
ENDBRANCH  14  16
ENDBRANCH   1  10
BRANCH   1  20
ATOM     20  N   UNL     1       4.268   6.344  18.218  0.00  0.00    +0.000 NA
ATOM     21  H   UNL     1       3.862   5.912  17.388  0.00  0.00    +0.000 HD
BRANCH  20  22
ATOM     22  C   UNL     1       5.491   5.619  18.534  0.00  0.00    +0.000 C 
BRANCH  22  29
ATOM     23  C   UNL     1       5.720   3.689  15.924  0.00  0.00    +0.000 C 
ATOM     24  C   UNL     1       6.479   4.928  16.212  0.00  0.00    +0.000 A 
ATOM     25  N   UNL     1       7.402   5.363  15.346  0.00  0.00    +0.000 NA
ATOM     26  O   UNL     1       7.948   6.493  15.917  0.00  0.00    +0.000 OA
ATOM     27  C   UNL     1       7.354   6.735  17.114  0.00  0.00    +0.000 A 
ATOM     28  C   UNL     1       7.865   7.902  17.857  0.00  0.00    +0.000 C 
ATOM     29  C   UNL     1       6.389   5.775  17.355  0.00  0.00    +0.000 A 
ENDBRANCH  22  29
ENDBRANCH  20  22
ENDBRANCH   1  20
TORSDOF 6
ENDMDL
