MODEL 1
REMARK VINA RESULT:      -8.6      0.000      0.000
REMARK  Name = 
REMARK  6 active torsions:
REMARK  status: ('A' for Active; 'I' for Inactive)
REMARK    1  A    between atoms: C_1  and  C_2
REMARK    2  A    between atoms: C_5  and  C_6
REMARK    3  A    between atoms: C_9  and  C_10
REMARK    4  A    between atoms: C_10  and  C_11
REMARK    5  A    between atoms: C_11  and  C_12
REMARK    6  A    between atoms: C_18  and  C_19
REMARK                            x       y       z     vdW  Elec       q    Type
REMARK                         _______ _______ _______ _____ _____    ______ ____
ROOT
ATOM      1  C   UNL     1       6.228   6.802  17.638  0.00  0.00    +0.000 C 
ATOM      2  O   UNL     1       5.220   7.462  17.892  0.00  0.00    +0.000 OA
ATOM      3  N   UNL     1       6.159   5.582  17.005  0.00  0.00    +0.000 N 
ATOM      4  C   UNL     1       7.257   4.712  16.632  0.00  0.00    +0.000 C 
ATOM      5  C   UNL     1       6.755   4.029  15.375  0.00  0.00    +0.000 C 
ATOM      6  C   UNL     1       5.258   3.865  15.624  0.00  0.00    +0.000 C 
ATOM      7  C   UNL     1       4.878   5.039  16.544  0.00  0.00    +0.000 C 
ENDROOT
BRANCH   7   8
ATOM      8  C   UNL     1       4.030   4.567  17.703  0.00  0.00    +0.000 A 
ATOM      9  N   UNL     1       4.425   3.718  18.633  0.00  0.00    +0.000 NA
ATOM     10  C   UNL     1       3.390   3.474  19.524  0.00  0.00    +0.000 A 
ATOM     11  C   UNL     1       3.445   2.616  20.642  0.00  0.00    +0.000 A 
ATOM     12  C   UNL     1       2.320   2.466  21.462  0.00  0.00    +0.000 A 
ATOM     13  C   UNL     1       1.146   3.157  21.180  0.00  0.00    +0.000 A 
ATOM     14  C   UNL     1       1.064   4.007  20.074  0.00  0.00    +0.000 A 
ATOM     15  C   UNL     1       2.198   4.148  19.257  0.00  0.00    +0.000 A 
ATOM     16  S   UNL     1       2.397   5.096  17.836  0.00  0.00    +0.000 S 
ENDBRANCH   7   8
BRANCH   1  17
ATOM     17  C   UNL     1       7.612   7.356  17.916  0.00  0.00    +0.000 C 
BRANCH  17  18
ATOM     18  C   UNL     1       7.828   8.689  17.208  0.00  0.00    +0.000 C 
BRANCH  18  22
ATOM     19  C   UNL     1       9.623  11.203  18.995  0.00  0.00    +0.000 A 
ATOM     20  N   UNL     1       9.646  10.218  19.911  0.00  0.00    +0.000 NA
ATOM     21  O   UNL     1       8.958   9.175  19.298  0.00  0.00    +0.000 OA
ATOM     22  C   UNL     1       8.583   9.628  18.070  0.00  0.00    +0.000 A 
ATOM     23  N   UNL     1       8.955  10.864  17.835  0.00  0.00    +0.000 NA
BRANCH  19  28
ATOM     24  C   UNL     1      12.001  16.412  19.811  0.00  0.00    +0.000 C 
ATOM     25  C   UNL     1      11.399  15.058  19.585  0.00  0.00    +0.000 A 
ATOM     26  C   UNL     1      12.176  13.899  19.675  0.00  0.00    +0.000 A 
ATOM     27  C   UNL     1      11.601  12.640  19.481  0.00  0.00    +0.000 A 
ATOM     28  C   UNL     1      10.234  12.513  19.191  0.00  0.00    +0.000 A 
ATOM     29  C   UNL     1       9.460  13.678  19.094  0.00  0.00    +0.000 A 
ATOM     30  C   UNL     1      10.036  14.937  19.292  0.00  0.00    +0.000 A 
ENDBRANCH  19  28
ENDBRANCH  18  22
ENDBRANCH  17  18
ENDBRANCH   1  17
TORSDOF 5
ENDMDL
MODEL 2
REMARK VINA RESULT:      -8.6      2.724      3.814
REMARK  Name = 
REMARK  6 active torsions:
REMARK  status: ('A' for Active; 'I' for Inactive)
REMARK    1  A    between atoms: C_1  and  C_2
REMARK    2  A    between atoms: C_5  and  C_6
REMARK    3  A    between atoms: C_9  and  C_10
REMARK    4  A    between atoms: C_10  and  C_11
REMARK    5  A    between atoms: C_11  and  C_12
REMARK    6  A    between atoms: C_18  and  C_19
REMARK                            x       y       z     vdW  Elec       q    Type
REMARK                         _______ _______ _______ _____ _____    ______ ____
ROOT
ATOM      1  C   UNL     1       5.417   5.360  17.118  0.00  0.00    +0.000 C 
ATOM      2  O   UNL     1       4.951   6.162  16.308  0.00  0.00    +0.000 OA
ATOM      3  N   UNL     1       4.612   4.592  17.927  0.00  0.00    +0.000 N 
ATOM      4  C   UNL     1       5.022   3.604  18.905  0.00  0.00    +0.000 C 
ATOM      5  C   UNL     1       3.895   2.589  18.877  0.00  0.00    +0.000 C 
ATOM      6  C   UNL     1       2.651   3.436  18.625  0.00  0.00    +0.000 C 
ATOM      7  C   UNL     1       3.152   4.646  17.815  0.00  0.00    +0.000 C 
ENDROOT
BRANCH   7   8
ATOM      8  C   UNL     1       2.603   5.938  18.375  0.00  0.00    +0.000 A 
ATOM      9  N   UNL     1       2.381   7.033  17.672  0.00  0.00    +0.000 NA
ATOM     10  C   UNL     1       1.912   8.042  18.500  0.00  0.00    +0.000 A 
ATOM     11  C   UNL     1       1.572   9.351  18.101  0.00  0.00    +0.000 A 
ATOM     12  C   UNL     1       1.107  10.272  19.047  0.00  0.00    +0.000 A 
ATOM     13  C   UNL     1       0.977   9.904  20.383  0.00  0.00    +0.000 A 
ATOM     14  C   UNL     1       1.314   8.614  20.805  0.00  0.00    +0.000 A 
ATOM     15  C   UNL     1       1.782   7.700  19.847  0.00  0.00    +0.000 A 
ATOM     16  S   UNL     1       2.284   6.069  20.061  0.00  0.00    +0.000 S 
ENDBRANCH   7   8
BRANCH   1  17
ATOM     17  C   UNL     1       6.909   5.103  17.187  0.00  0.00    +0.000 C 
BRANCH  17  18
ATOM     18  C   UNL     1       7.514   5.691  18.458  0.00  0.00    +0.000 C 
BRANCH  18  22
ATOM     19  C   UNL     1       8.557   9.101  18.324  0.00  0.00    +0.000 A 
ATOM     20  N   UNL     1       7.852   9.038  17.180  0.00  0.00    +0.000 NA
ATOM     21  O   UNL     1       7.397   7.724  17.140  0.00  0.00    +0.000 OA
ATOM     22  C   UNL     1       7.870   7.116  18.263  0.00  0.00    +0.000 A 
ATOM     23  N   UNL     1       8.593   7.908  19.019  0.00  0.00    +0.000 NA
BRANCH  19  28
ATOM     24  C   UNL     1      11.194  13.904  20.177  0.00  0.00    +0.000 C 
ATOM     25  C   UNL     1      10.524  12.648  19.708  0.00  0.00    +0.000 A 
ATOM     26  C   UNL     1      10.089  11.679  20.617  0.00  0.00    +0.000 A 
ATOM     27  C   UNL     1       9.450  10.519  20.169  0.00  0.00    +0.000 A 
ATOM     28  C   UNL     1       9.231  10.304  18.800  0.00  0.00    +0.000 A 
ATOM     29  C   UNL     1       9.674  11.275  17.891  0.00  0.00    +0.000 A 
ATOM     30  C   UNL     1      10.312  12.436  18.340  0.00  0.00    +0.000 A 
ENDBRANCH  19  28
ENDBRANCH  18  22
ENDBRANCH  17  18
ENDBRANCH   1  17
TORSDOF 5
ENDMDL
MODEL 3
REMARK VINA RESULT:      -8.5      5.558      8.311
REMARK  Name = 
REMARK  6 active torsions:
REMARK  status: ('A' for Active; 'I' for Inactive)
REMARK    1  A    between atoms: C_1  and  C_2
REMARK    2  A    between atoms: C_5  and  C_6
REMARK    3  A    between atoms: C_9  and  C_10
REMARK    4  A    between atoms: C_10  and  C_11
REMARK    5  A    between atoms: C_11  and  C_12
REMARK    6  A    between atoms: C_18  and  C_19
REMARK                            x       y       z     vdW  Elec       q    Type
REMARK                         _______ _______ _______ _____ _____    ______ ____
ROOT
ATOM      1  C   UNL     1       4.335   6.794  17.609  0.00  0.00    +0.000 C 
ATOM      2  O   UNL     1       4.400   7.519  16.616  0.00  0.00    +0.000 OA
ATOM      3  N   UNL     1       5.406   6.042  18.034  0.00  0.00    +0.000 N 
ATOM      4  C   UNL     1       5.474   5.166  19.188  0.00  0.00    +0.000 C 
ATOM      5  C   UNL     1       6.924   5.264  19.621  0.00  0.00    +0.000 C 
ATOM      6  C   UNL     1       7.686   5.413  18.307  0.00  0.00    +0.000 C 
ATOM      7  C   UNL     1       6.703   6.119  17.356  0.00  0.00    +0.000 C 
ENDROOT
BRANCH   7   8
ATOM      8  C   UNL     1       6.663   5.433  16.010  0.00  0.00    +0.000 A 
ATOM      9  N   UNL     1       7.461   5.711  14.996  0.00  0.00    +0.000 NA
ATOM     10  C   UNL     1       7.131   4.923  13.902  0.00  0.00    +0.000 A 
ATOM     11  C   UNL     1       7.764   4.947  12.642  0.00  0.00    +0.000 A 
ATOM     12  C   UNL     1       7.327   4.090  11.625  0.00  0.00    +0.000 A 
ATOM     13  C   UNL     1       6.271   3.212  11.849  0.00  0.00    +0.000 A 
ATOM     14  C   UNL     1       5.623   3.174  13.087  0.00  0.00    +0.000 A 
ATOM     15  C   UNL     1       6.068   4.040  14.099  0.00  0.00    +0.000 A 
ATOM     16  S   UNL     1       5.468   4.234  15.699  0.00  0.00    +0.000 S 
ENDBRANCH   7   8
BRANCH   1  17
ATOM     17  C   UNL     1       3.094   6.779  18.481  0.00  0.00    +0.000 C 
BRANCH  17  18
ATOM     18  C   UNL     1       2.172   7.948  18.153  0.00  0.00    +0.000 C 
BRANCH  18  22
ATOM     19  C   UNL     1       0.715   9.668  20.919  0.00  0.00    +0.000 A 
ATOM     20  N   UNL     1       1.082   8.529  21.532  0.00  0.00    +0.000 NA
ATOM     21  O   UNL     1       1.670   7.778  20.520  0.00  0.00    +0.000 OA
ATOM     22  C   UNL     1       1.601   8.533  19.388  0.00  0.00    +0.000 A 
ATOM     23  N   UNL     1       1.019   9.695  19.572  0.00  0.00    +0.000 NA
BRANCH  19  28
ATOM     24  C   UNL     1      -1.902  14.049  23.642  0.00  0.00    +0.000 C 
ATOM     25  C   UNL     1      -1.230  12.921  22.919  0.00  0.00    +0.000 A 
ATOM     26  C   UNL     1      -0.320  13.167  21.885  0.00  0.00    +0.000 A 
ATOM     27  C   UNL     1       0.314  12.109  21.229  0.00  0.00    +0.000 A 
ATOM     28  C   UNL     1       0.051  10.779  21.592  0.00  0.00    +0.000 A 
ATOM     29  C   UNL     1      -0.866  10.537  22.624  0.00  0.00    +0.000 A 
ATOM     30  C   UNL     1      -1.499  11.597  23.282  0.00  0.00    +0.000 A 
ENDBRANCH  19  28
ENDBRANCH  18  22
ENDBRANCH  17  18
ENDBRANCH   1  17
TORSDOF 5
ENDMDL
MODEL 4
REMARK VINA RESULT:      -8.4      0.905      1.262
REMARK  Name = 
REMARK  6 active torsions:
REMARK  status: ('A' for Active; 'I' for Inactive)
REMARK    1  A    between atoms: C_1  and  C_2
REMARK    2  A    between atoms: C_5  and  C_6
REMARK    3  A    between atoms: C_9  and  C_10
REMARK    4  A    between atoms: C_10  and  C_11
REMARK    5  A    between atoms: C_11  and  C_12
REMARK    6  A    between atoms: C_18  and  C_19
REMARK                            x       y       z     vdW  Elec       q    Type
REMARK                         _______ _______ _______ _____ _____    ______ ____
ROOT
ATOM      1  C   UNL     1       6.249   6.774  17.724  0.00  0.00    +0.000 C 
ATOM      2  O   UNL     1       5.219   7.374  18.034  0.00  0.00    +0.000 OA
ATOM      3  N   UNL     1       6.220   5.597  17.012  0.00  0.00    +0.000 N 
ATOM      4  C   UNL     1       7.347   4.800  16.568  0.00  0.00    +0.000 C 
ATOM      5  C   UNL     1       6.854   4.182  15.275  0.00  0.00    +0.000 C 
ATOM      6  C   UNL     1       5.370   3.940  15.530  0.00  0.00    +0.000 C 
ATOM      7  C   UNL     1       4.956   5.033  16.531  0.00  0.00    +0.000 C 
ENDROOT
BRANCH   7   8
ATOM      8  C   UNL     1       4.144   4.451  17.666  0.00  0.00    +0.000 A 
ATOM      9  N   UNL     1       2.833   4.538  17.780  0.00  0.00    +0.000 NA
ATOM     10  C   UNL     1       2.416   3.929  18.955  0.00  0.00    +0.000 A 
ATOM     11  C   UNL     1       1.085   3.832  19.411  0.00  0.00    +0.000 A 
ATOM     12  C   UNL     1       0.807   3.184  20.620  0.00  0.00    +0.000 A 
ATOM     13  C   UNL     1       1.837   2.633  21.377  0.00  0.00    +0.000 A 
ATOM     14  C   UNL     1       3.165   2.722  20.949  0.00  0.00    +0.000 A 
ATOM     15  C   UNL     1       3.432   3.377  19.736  0.00  0.00    +0.000 A 
ATOM     16  S   UNL     1       4.945   3.657  18.967  0.00  0.00    +0.000 S 
ENDBRANCH   7   8
BRANCH   1  17
ATOM     17  C   UNL     1       7.613   7.365  18.022  0.00  0.00    +0.000 C 
BRANCH  17  18
ATOM     18  C   UNL     1       7.814   8.690  17.294  0.00  0.00    +0.000 C 
BRANCH  18  22
ATOM     19  C   UNL     1       9.502  11.280  19.077  0.00  0.00    +0.000 A 
ATOM     20  N   UNL     1       9.650  10.271  19.954  0.00  0.00    +0.000 NA
ATOM     21  O   UNL     1       9.014   9.197  19.340  0.00  0.00    +0.000 OA
ATOM     22  C   UNL     1       8.539   9.658  18.150  0.00  0.00    +0.000 A 
ATOM     23  N   UNL     1       8.801  10.927  17.941  0.00  0.00    +0.000 NA
BRANCH  19  28
ATOM     24  C   UNL     1      11.511  16.645  19.880  0.00  0.00    +0.000 C 
ATOM     25  C   UNL     1      11.006  15.247  19.683  0.00  0.00    +0.000 A 
ATOM     26  C   UNL     1      10.747  14.413  20.776  0.00  0.00    +0.000 A 
ATOM     27  C   UNL     1      10.260  13.117  20.582  0.00  0.00    +0.000 A 
ATOM     28  C   UNL     1      10.020  12.627  19.289  0.00  0.00    +0.000 A 
ATOM     29  C   UNL     1      10.287  13.464  18.196  0.00  0.00    +0.000 A 
ATOM     30  C   UNL     1      10.773  14.761  18.391  0.00  0.00    +0.000 A 
ENDBRANCH  19  28
ENDBRANCH  18  22
ENDBRANCH  17  18
ENDBRANCH   1  17
TORSDOF 5
ENDMDL
MODEL 5
REMARK VINA RESULT:      -8.4      6.092      9.535
REMARK  Name = 
REMARK  6 active torsions:
REMARK  status: ('A' for Active; 'I' for Inactive)
REMARK    1  A    between atoms: C_1  and  C_2
REMARK    2  A    between atoms: C_5  and  C_6
REMARK    3  A    between atoms: C_9  and  C_10
REMARK    4  A    between atoms: C_10  and  C_11
REMARK    5  A    between atoms: C_11  and  C_12
REMARK    6  A    between atoms: C_18  and  C_19
REMARK                            x       y       z     vdW  Elec       q    Type
REMARK                         _______ _______ _______ _____ _____    ______ ____
ROOT
ATOM      1  C   UNL     1       3.455   6.810  17.876  0.00  0.00    +0.000 C 
ATOM      2  O   UNL     1       4.469   7.480  17.677  0.00  0.00    +0.000 OA
ATOM      3  N   UNL     1       3.503   5.443  18.024  0.00  0.00    +0.000 N 
ATOM      4  C   UNL     1       2.399   4.538  18.278  0.00  0.00    +0.000 C 
ATOM      5  C   UNL     1       3.031   3.433  19.102  0.00  0.00    +0.000 C 
ATOM      6  C   UNL     1       4.440   3.314  18.531  0.00  0.00    +0.000 C 
ATOM      7  C   UNL     1       4.780   4.725  18.016  0.00  0.00    +0.000 C 
ENDROOT
BRANCH   7   8
ATOM      8  C   UNL     1       5.372   4.667  16.626  0.00  0.00    +0.000 A 
ATOM      9  N   UNL     1       4.863   3.988  15.615  0.00  0.00    +0.000 NA
ATOM     10  C   UNL     1       5.673   4.122  14.497  0.00  0.00    +0.000 A 
ATOM     11  C   UNL     1       5.448   3.533  13.236  0.00  0.00    +0.000 A 
ATOM     12  C   UNL     1       6.352   3.756  12.190  0.00  0.00    +0.000 A 
ATOM     13  C   UNL     1       7.473   4.556  12.387  0.00  0.00    +0.000 A 
ATOM     14  C   UNL     1       7.722   5.145  13.630  0.00  0.00    +0.000 A 
ATOM     15  C   UNL     1       6.810   4.912  14.672  0.00  0.00    +0.000 A 
ATOM     16  S   UNL     1       6.854   5.478  16.296  0.00  0.00    +0.000 S 
ENDBRANCH   7   8
BRANCH   1  17
ATOM     17  C   UNL     1       2.108   7.477  18.076  0.00  0.00    +0.000 C 
BRANCH  17  18
ATOM     18  C   UNL     1       2.196   8.983  17.849  0.00  0.00    +0.000 C 
BRANCH  18  22
ATOM     19  C   UNL     1      -0.946  10.522  18.551  0.00  0.00    +0.000 A 
ATOM     20  N   UNL     1      -0.315  10.760  19.715  0.00  0.00    +0.000 NA
ATOM     21  O   UNL     1       0.940  10.188  19.538  0.00  0.00    +0.000 OA
ATOM     22  C   UNL     1       0.950   9.656  18.285  0.00  0.00    +0.000 A 
ATOM     23  N   UNL     1      -0.180   9.823  17.639  0.00  0.00    +0.000 NA
BRANCH  19  28
ATOM     24  C   UNL     1      -6.344  12.266  17.421  0.00  0.00    +0.000 C 
ATOM     25  C   UNL     1      -4.950  11.795  17.709  0.00  0.00    +0.000 A 
ATOM     26  C   UNL     1      -4.239  11.032  16.777  0.00  0.00    +0.000 A 
ATOM     27  C   UNL     1      -2.934  10.613  17.049  0.00  0.00    +0.000 A 
ATOM     28  C   UNL     1      -2.311  10.948  18.261  0.00  0.00    +0.000 A 
ATOM     29  C   UNL     1      -3.030  11.706  19.196  0.00  0.00    +0.000 A 
ATOM     30  C   UNL     1      -4.336  12.127  18.922  0.00  0.00    +0.000 A 
ENDBRANCH  19  28
ENDBRANCH  18  22
ENDBRANCH  17  18
ENDBRANCH   1  17
TORSDOF 5
ENDMDL
MODEL 6
REMARK VINA RESULT:      -8.4      6.076      8.572
REMARK  Name = 
REMARK  6 active torsions:
REMARK  status: ('A' for Active; 'I' for Inactive)
REMARK    1  A    between atoms: C_1  and  C_2
REMARK    2  A    between atoms: C_5  and  C_6
REMARK    3  A    between atoms: C_9  and  C_10
REMARK    4  A    between atoms: C_10  and  C_11
REMARK    5  A    between atoms: C_11  and  C_12
REMARK    6  A    between atoms: C_18  and  C_19
REMARK                            x       y       z     vdW  Elec       q    Type
REMARK                         _______ _______ _______ _____ _____    ______ ____
ROOT
ATOM      1  C   UNL     1       3.539   6.804  17.975  0.00  0.00    +0.000 C 
ATOM      2  O   UNL     1       4.545   7.479  17.753  0.00  0.00    +0.000 OA
ATOM      3  N   UNL     1       3.597   5.438  18.125  0.00  0.00    +0.000 N 
ATOM      4  C   UNL     1       2.503   4.529  18.405  0.00  0.00    +0.000 C 
ATOM      5  C   UNL     1       3.157   3.428  19.217  0.00  0.00    +0.000 C 
ATOM      6  C   UNL     1       4.554   3.314  18.615  0.00  0.00    +0.000 C 
ATOM      7  C   UNL     1       4.877   4.725  18.091  0.00  0.00    +0.000 C 
ENDROOT
BRANCH   7   8
ATOM      8  C   UNL     1       5.438   4.667  16.688  0.00  0.00    +0.000 A 
ATOM      9  N   UNL     1       4.915   3.978  15.692  0.00  0.00    +0.000 NA
ATOM     10  C   UNL     1       5.699   4.114  14.556  0.00  0.00    +0.000 A 
ATOM     11  C   UNL     1       5.453   3.517  13.302  0.00  0.00    +0.000 A 
ATOM     12  C   UNL     1       6.331   3.745  12.236  0.00  0.00    +0.000 A 
ATOM     13  C   UNL     1       7.447   4.559  12.404  0.00  0.00    +0.000 A 
ATOM     14  C   UNL     1       7.717   5.156  13.639  0.00  0.00    +0.000 A 
ATOM     15  C   UNL     1       6.830   4.918  14.702  0.00  0.00    +0.000 A 
ATOM     16  S   UNL     1       6.903   5.493  16.322  0.00  0.00    +0.000 S 
ENDBRANCH   7   8
BRANCH   1  17
ATOM     17  C   UNL     1       2.194   7.466  18.202  0.00  0.00    +0.000 C 
BRANCH  17  18
ATOM     18  C   UNL     1       2.120   8.823  17.512  0.00  0.00    +0.000 C 
BRANCH  18  22
ATOM     19  C   UNL     1       0.456  10.998  19.800  0.00  0.00    +0.000 A 
ATOM     20  N   UNL     1       1.329  11.867  19.260  0.00  0.00    +0.000 NA
ATOM     21  O   UNL     1       2.037  11.102  18.339  0.00  0.00    +0.000 OA
ATOM     22  C   UNL     1       1.527   9.841  18.411  0.00  0.00    +0.000 A 
ATOM     23  N   UNL     1       0.564   9.718  19.293  0.00  0.00    +0.000 NA
BRANCH  19  28
ATOM     24  C   UNL     1      -3.443  12.388  23.841  0.00  0.00    +0.000 C 
ATOM     25  C   UNL     1      -2.417  12.034  22.806  0.00  0.00    +0.000 A 
ATOM     26  C   UNL     1      -1.339  11.199  23.115  0.00  0.00    +0.000 A 
ATOM     27  C   UNL     1      -0.398  10.861  22.138  0.00  0.00    +0.000 A 
ATOM     28  C   UNL     1      -0.516  11.352  20.829  0.00  0.00    +0.000 A 
ATOM     29  C   UNL     1      -1.595  12.195  20.525  0.00  0.00    +0.000 A 
ATOM     30  C   UNL     1      -2.537  12.530  21.503  0.00  0.00    +0.000 A 
ENDBRANCH  19  28
ENDBRANCH  18  22
ENDBRANCH  17  18
ENDBRANCH   1  17
TORSDOF 5
ENDMDL
MODEL 7
REMARK VINA RESULT:      -8.4      0.736      1.269
REMARK  Name = 
REMARK  6 active torsions:
REMARK  status: ('A' for Active; 'I' for Inactive)
REMARK    1  A    between atoms: C_1  and  C_2
REMARK    2  A    between atoms: C_5  and  C_6
REMARK    3  A    between atoms: C_9  and  C_10
REMARK    4  A    between atoms: C_10  and  C_11
REMARK    5  A    between atoms: C_11  and  C_12
REMARK    6  A    between atoms: C_18  and  C_19
REMARK                            x       y       z     vdW  Elec       q    Type
REMARK                         _______ _______ _______ _____ _____    ______ ____
ROOT
ATOM      1  C   UNL     1       6.368   6.551  17.228  0.00  0.00    +0.000 C 
ATOM      2  O   UNL     1       5.475   7.289  17.646  0.00  0.00    +0.000 OA
ATOM      3  N   UNL     1       6.092   5.367  16.584  0.00  0.00    +0.000 N 
ATOM      4  C   UNL     1       7.037   4.417  16.029  0.00  0.00    +0.000 C 
ATOM      5  C   UNL     1       6.293   3.830  14.846  0.00  0.00    +0.000 C 
ATOM      6  C   UNL     1       4.841   3.791  15.312  0.00  0.00    +0.000 C 
ATOM      7  C   UNL     1       4.712   4.958  16.307  0.00  0.00    +0.000 C 
ENDROOT
BRANCH   7   8
ATOM      8  C   UNL     1       4.003   4.521  17.569  0.00  0.00    +0.000 A 
ATOM      9  N   UNL     1       4.463   3.627  18.423  0.00  0.00    +0.000 NA
ATOM     10  C   UNL     1       3.548   3.434  19.448  0.00  0.00    +0.000 A 
ATOM     11  C   UNL     1       3.697   2.551  20.537  0.00  0.00    +0.000 A 
ATOM     12  C   UNL     1       2.691   2.460  21.506  0.00  0.00    +0.000 A 
ATOM     13  C   UNL     1       1.541   3.237  21.401  0.00  0.00    +0.000 A 
ATOM     14  C   UNL     1       1.366   4.115  20.328  0.00  0.00    +0.000 A 
ATOM     15  C   UNL     1       2.382   4.196  19.361  0.00  0.00    +0.000 A 
ATOM     16  S   UNL     1       2.447   5.159  17.937  0.00  0.00    +0.000 S 
ENDBRANCH   7   8
BRANCH   1  17
ATOM     17  C   UNL     1       7.823   6.968  17.309  0.00  0.00    +0.000 C 
BRANCH  17  18
ATOM     18  C   UNL     1       8.141   7.616  18.653  0.00  0.00    +0.000 C 
BRANCH  18  22
ATOM     19  C   UNL     1       9.177  11.028  18.524  0.00  0.00    +0.000 A 
ATOM     20  N   UNL     1       8.219  11.050  17.580  0.00  0.00    +0.000 NA
ATOM     21  O   UNL     1       7.746   9.742  17.553  0.00  0.00    +0.000 OA
ATOM     22  C   UNL     1       8.463   9.052  18.483  0.00  0.00    +0.000 A 
ATOM     23  N   UNL     1       9.358   9.787  19.100  0.00  0.00    +0.000 NA
BRANCH  19  28
ATOM     24  C   UNL     1      12.333  15.642  20.011  0.00  0.00    +0.000 C 
ATOM     25  C   UNL     1      11.506  14.447  19.644  0.00  0.00    +0.000 A 
ATOM     26  C   UNL     1      10.111  14.476  19.744  0.00  0.00    +0.000 A 
ATOM     27  C   UNL     1       9.348  13.362  19.383  0.00  0.00    +0.000 A 
ATOM     28  C   UNL     1       9.965  12.193  18.912  0.00  0.00    +0.000 A 
ATOM     29  C   UNL     1      11.364  12.165  18.820  0.00  0.00    +0.000 A 
ATOM     30  C   UNL     1      12.126  13.281  19.180  0.00  0.00    +0.000 A 
ENDBRANCH  19  28
ENDBRANCH  18  22
ENDBRANCH  17  18
ENDBRANCH   1  17
TORSDOF 5
ENDMDL
MODEL 8
REMARK VINA RESULT:      -8.3      6.959     10.076
REMARK  Name = 
REMARK  6 active torsions:
REMARK  status: ('A' for Active; 'I' for Inactive)
REMARK    1  A    between atoms: C_1  and  C_2
REMARK    2  A    between atoms: C_5  and  C_6
REMARK    3  A    between atoms: C_9  and  C_10
REMARK    4  A    between atoms: C_10  and  C_11
REMARK    5  A    between atoms: C_11  and  C_12
REMARK    6  A    between atoms: C_18  and  C_19
REMARK                            x       y       z     vdW  Elec       q    Type
REMARK                         _______ _______ _______ _____ _____    ______ ____
ROOT
ATOM      1  C   UNL     1       0.394  10.806  21.027  0.00  0.00    +0.000 C 
ATOM      2  O   UNL     1      -0.470  11.017  21.878  0.00  0.00    +0.000 OA
ATOM      3  N   UNL     1       0.545  11.617  19.926  0.00  0.00    +0.000 N 
ATOM      4  C   UNL     1       1.523  11.498  18.862  0.00  0.00    +0.000 C 
ATOM      5  C   UNL     1       1.767  12.934  18.443  0.00  0.00    +0.000 C 
ATOM      6  C   UNL     1       0.405  13.599  18.614  0.00  0.00    +0.000 C 
ATOM      7  C   UNL     1      -0.280  12.815  19.748  0.00  0.00    +0.000 C 
ENDROOT
BRANCH   7   8
ATOM      8  C   UNL     1      -1.701  12.456  19.378  0.00  0.00    +0.000 A 
ATOM      9  N   UNL     1      -2.768  12.752  20.097  0.00  0.00    +0.000 NA
ATOM     10  C   UNL     1      -3.907  12.244  19.490  0.00  0.00    +0.000 A 
ATOM     11  C   UNL     1      -5.226  12.362  19.973  0.00  0.00    +0.000 A 
ATOM     12  C   UNL     1      -6.286  11.800  19.252  0.00  0.00    +0.000 A 
ATOM     13  C   UNL     1      -6.047  11.125  18.059  0.00  0.00    +0.000 A 
ATOM     14  C   UNL     1      -4.748  10.989  17.563  0.00  0.00    +0.000 A 
ATOM     15  C   UNL     1      -3.691  11.554  18.296  0.00  0.00    +0.000 A 
ATOM     16  S   UNL     1      -2.006  11.538  17.954  0.00  0.00    +0.000 S 
ENDBRANCH   7   8
BRANCH   1  17
ATOM     17  C   UNL     1       1.411   9.696  21.208  0.00  0.00    +0.000 C 
BRANCH  17  18
ATOM     18  C   UNL     1       0.737   8.328  21.249  0.00  0.00    +0.000 C 
BRANCH  18  22
ATOM     19  C   UNL     1       2.721   6.218  19.165  0.00  0.00    +0.000 A 
ATOM     20  N   UNL     1       2.256   5.302  20.033  0.00  0.00    +0.000 NA
ATOM     21  O   UNL     1       1.458   6.039  20.902  0.00  0.00    +0.000 OA
ATOM     22  C   UNL     1       1.517   7.332  20.479  0.00  0.00    +0.000 A 
ATOM     23  N   UNL     1       2.281   7.501  19.426  0.00  0.00    +0.000 NA
BRANCH  19  28
ATOM     24  C   UNL     1       6.205   4.948  14.726  0.00  0.00    +0.000 C 
ATOM     25  C   UNL     1       5.317   5.289  15.884  0.00  0.00    +0.000 A 
ATOM     26  C   UNL     1       5.060   6.620  16.230  0.00  0.00    +0.000 A 
ATOM     27  C   UNL     1       4.216   6.927  17.301  0.00  0.00    +0.000 A 
ATOM     28  C   UNL     1       3.610   5.907  18.050  0.00  0.00    +0.000 A 
ATOM     29  C   UNL     1       3.875   4.575  17.705  0.00  0.00    +0.000 A 
ATOM     30  C   UNL     1       4.718   4.269  16.632  0.00  0.00    +0.000 A 
ENDBRANCH  19  28
ENDBRANCH  18  22
ENDBRANCH  17  18
ENDBRANCH   1  17
TORSDOF 5
ENDMDL
MODEL 9
REMARK VINA RESULT:      -8.3      1.367      1.663
REMARK  Name = 
REMARK  6 active torsions:
REMARK  status: ('A' for Active; 'I' for Inactive)
REMARK    1  A    between atoms: C_1  and  C_2
REMARK    2  A    between atoms: C_5  and  C_6
REMARK    3  A    between atoms: C_9  and  C_10
REMARK    4  A    between atoms: C_10  and  C_11
REMARK    5  A    between atoms: C_11  and  C_12
REMARK    6  A    between atoms: C_18  and  C_19
REMARK                            x       y       z     vdW  Elec       q    Type
REMARK                         _______ _______ _______ _____ _____    ______ ____
ROOT
ATOM      1  C   UNL     1       6.392   7.088  17.062  0.00  0.00    +0.000 C 
ATOM      2  O   UNL     1       5.417   7.708  17.487  0.00  0.00    +0.000 OA
ATOM      3  N   UNL     1       6.259   5.897  16.386  0.00  0.00    +0.000 N 
ATOM      4  C   UNL     1       7.311   5.076  15.820  0.00  0.00    +0.000 C 
ATOM      5  C   UNL     1       6.651   4.438  14.613  0.00  0.00    +0.000 C 
ATOM      6  C   UNL     1       5.208   4.222  15.059  0.00  0.00    +0.000 C 
ATOM      7  C   UNL     1       4.938   5.342  16.081  0.00  0.00    +0.000 C 
ENDROOT
BRANCH   7   8
ATOM      8  C   UNL     1       4.270   4.794  17.323  0.00  0.00    +0.000 A 
ATOM      9  N   UNL     1       3.077   5.151  17.760  0.00  0.00    +0.000 NA
ATOM     10  C   UNL     1       2.785   4.484  18.941  0.00  0.00    +0.000 A 
ATOM     11  C   UNL     1       1.603   4.617  19.697  0.00  0.00    +0.000 A 
ATOM     12  C   UNL     1       1.439   3.877  20.874  0.00  0.00    +0.000 A 
ATOM     13  C   UNL     1       2.437   3.008  21.304  0.00  0.00    +0.000 A 
ATOM     14  C   UNL     1       3.621   2.864  20.576  0.00  0.00    +0.000 A 
ATOM     15  C   UNL     1       3.776   3.613  19.398  0.00  0.00    +0.000 A 
ATOM     16  S   UNL     1       5.108   3.662  18.312  0.00  0.00    +0.000 S 
ENDBRANCH   7   8
BRANCH   1  17
ATOM     17  C   UNL     1       7.790   7.665  17.172  0.00  0.00    +0.000 C 
BRANCH  17  18
ATOM     18  C   UNL     1       8.198   7.856  18.629  0.00  0.00    +0.000 C 
BRANCH  18  22
ATOM     19  C   UNL     1       9.450  11.193  18.795  0.00  0.00    +0.000 A 
ATOM     20  N   UNL     1       9.425  10.898  20.107  0.00  0.00    +0.000 NA
ATOM     21  O   UNL     1       8.941   9.595  20.148  0.00  0.00    +0.000 OA
ATOM     22  C   UNL     1       8.718   9.224  18.857  0.00  0.00    +0.000 A 
ATOM     23  N   UNL     1       9.004  10.165  17.988  0.00  0.00    +0.000 NA
BRANCH  19  28
ATOM     24  C   UNL     1      11.225  16.289  16.712  0.00  0.00    +0.000 C 
ATOM     25  C   UNL     1      10.763  14.962  17.233  0.00  0.00    +0.000 A 
ATOM     26  C   UNL     1      11.355  13.771  16.801  0.00  0.00    +0.000 A 
ATOM     27  C   UNL     1      10.928  12.540  17.306  0.00  0.00    +0.000 A 
ATOM     28  C   UNL     1       9.897  12.473  18.256  0.00  0.00    +0.000 A 
ATOM     29  C   UNL     1       9.301  13.668  18.681  0.00  0.00    +0.000 A 
ATOM     30  C   UNL     1       9.731  14.900  18.176  0.00  0.00    +0.000 A 
ENDBRANCH  19  28
ENDBRANCH  18  22
ENDBRANCH  17  18
ENDBRANCH   1  17
TORSDOF 5
ENDMDL
