MODEL 1
REMARK VINA RESULT:      -9.0      0.000      0.000
REMARK  Name = 
REMARK  8 active torsions:
REMARK  status: ('A' for Active; 'I' for Inactive)
REMARK    1  A    between atoms: C_1  and  C_2
REMARK    2  A    between atoms: C_7  and  C_8
REMARK    3  A    between atoms: N_10  and  C_11
REMARK    4  A    between atoms: C_11  and  C_12
REMARK    5  A    between atoms: C_11  and  C_23
REMARK    6  A    between atoms: C_23  and  C_24
REMARK    7  A    between atoms: C_23  and  C_25
REMARK    8  A    between atoms: C_26  and  C_27
REMARK                            x       y       z     vdW  Elec       q    Type
REMARK                         _______ _______ _______ _____ _____    ______ ____
ROOT
ATOM      1  C   UNL     1       4.717   5.412  18.847  0.00  0.00    +0.000 C 
ATOM      2  O   UNL     1       5.250   5.335  19.954  0.00  0.00    +0.000 OA
ATOM      3  N   UNL     1       3.366   5.673  18.717  0.00  0.00    +0.000 N 
ATOM      4  H   UNL     1       2.972   5.948  17.823  0.00  0.00    +0.000 HD
ENDROOT
BRANCH   1  11
ATOM      5  C   UNL     1       6.480   3.351  12.017  0.00  0.00    +0.000 C 
ATOM      6  C   UNL     1       6.477   3.934  13.381  0.00  0.00    +0.000 A 
ATOM      7  C   UNL     1       7.301   4.972  13.869  0.00  0.00    +0.000 A 
ATOM      8  C   UNL     1       6.892   5.171  15.171  0.00  0.00    +0.000 A 
ATOM      9  N   UNL     1       7.331   6.054  16.115  0.00  0.00    +0.000 NA
ATOM     10  C   UNL     1       6.665   6.042  17.231  0.00  0.00    +0.000 A 
ATOM     11  C   UNL     1       5.506   5.167  17.598  0.00  0.00    +0.000 A 
ATOM     12  C   UNL     1       5.172   4.259  16.642  0.00  0.00    +0.000 A 
ATOM     13  C   UNL     1       4.083   3.217  16.728  0.00  0.00    +0.000 C 
ATOM     14  N   UNL     1       5.868   4.265  15.415  0.00  0.00    +0.000 N 
ATOM     15  N   UNL     1       5.638   3.485  14.316  0.00  0.00    +0.000 NA
ENDBRANCH   1  11
BRANCH   3  16
ATOM     16  C   UNL     1       2.511   5.891  19.907  0.00  0.00    +0.000 C 
BRANCH  16  17
ATOM     17  C   UNL     1       1.863   7.251  19.782  0.00  0.00    +0.000 A 
ATOM     18  C   UNL     1       2.161   8.294  18.887  0.00  0.00    +0.000 A 
ATOM     19  C   UNL     1       1.468   9.526  18.982  0.00  0.00    +0.000 A 
ATOM     20  C   UNL     1       0.645   9.764  20.075  0.00  0.00    +0.000 A 
ATOM     21  C   UNL     1       0.621   8.800  21.075  0.00  0.00    +0.000 A 
ATOM     22  C   UNL     1       0.967   7.503  20.816  0.00  0.00    +0.000 A 
ATOM     23  O   UNL     1       1.104   9.201  22.317  0.00  0.00    +0.000 OA
ATOM     24  C   UNL     1       0.092   9.719  23.148  0.00  0.00    +0.000 C 
ATOM     25  C   UNL     1      -0.511  11.012  22.612  0.00  0.00    +0.000 C 
ATOM     26  C   UNL     1      -1.094  10.856  21.208  0.00  0.00    +0.000 C 
ATOM     27  O   UNL     1      -0.058  10.929  20.199  0.00  0.00    +0.000 OA
ENDBRANCH  16  17
BRANCH  16  28
ATOM     28  C   UNL     1       1.651   4.660  20.240  0.00  0.00    +0.000 C 
ATOM     29  C   UNL     1       1.368   3.896  18.931  0.00  0.00    +0.000 C 
ATOM     30  C   UNL     1       2.382   3.705  21.194  0.00  0.00    +0.000 C 
ENDBRANCH  16  28
ENDBRANCH   3  16
TORSDOF 4
ENDMDL
MODEL 2
REMARK VINA RESULT:      -7.6      1.162      1.996
REMARK  Name = 
REMARK  8 active torsions:
REMARK  status: ('A' for Active; 'I' for Inactive)
REMARK    1  A    between atoms: C_1  and  C_2
REMARK    2  A    between atoms: C_7  and  C_8
REMARK    3  A    between atoms: N_10  and  C_11
REMARK    4  A    between atoms: C_11  and  C_12
REMARK    5  A    between atoms: C_11  and  C_23
REMARK    6  A    between atoms: C_23  and  C_24
REMARK    7  A    between atoms: C_23  and  C_25
REMARK    8  A    between atoms: C_26  and  C_27
REMARK                            x       y       z     vdW  Elec       q    Type
REMARK                         _______ _______ _______ _____ _____    ______ ____
ROOT
ATOM      1  C   UNL     1       4.203   4.892  19.371  0.00  0.00    +0.000 C 
ATOM      2  O   UNL     1       4.628   4.389  20.412  0.00  0.00    +0.000 OA
ATOM      3  N   UNL     1       2.924   5.410  19.293  0.00  0.00    +0.000 N 
ATOM      4  H   UNL     1       2.651   6.009  18.521  0.00  0.00    +0.000 HD
ENDROOT
BRANCH   1  11
ATOM      5  C   UNL     1       6.492   3.661  12.497  0.00  0.00    +0.000 C 
ATOM      6  C   UNL     1       6.331   4.158  13.885  0.00  0.00    +0.000 A 
ATOM      7  C   UNL     1       6.871   5.340  14.437  0.00  0.00    +0.000 A 
ATOM      8  C   UNL     1       6.411   5.369  15.738  0.00  0.00    +0.000 A 
ATOM      9  N   UNL     1       6.610   6.285  16.730  0.00  0.00    +0.000 NA
ATOM     10  C   UNL     1       5.956   6.056  17.829  0.00  0.00    +0.000 A 
ATOM     11  C   UNL     1       5.042   4.908  18.130  0.00  0.00    +0.000 A 
ATOM     12  C   UNL     1       4.951   3.995  17.127  0.00  0.00    +0.000 A 
ATOM     13  C   UNL     1       4.149   2.716  17.141  0.00  0.00    +0.000 C 
ATOM     14  N   UNL     1       5.637   4.231  15.918  0.00  0.00    +0.000 N 
ATOM     15  N   UNL     1       5.618   3.473  14.780  0.00  0.00    +0.000 NA
ENDBRANCH   1  11
BRANCH   3  16
ATOM     16  C   UNL     1       2.021   5.398  20.467  0.00  0.00    +0.000 C 
BRANCH  16  17
ATOM     17  C   UNL     1       1.506   6.802  20.683  0.00  0.00    +0.000 A 
ATOM     18  C   UNL     1       0.371   7.228  21.397  0.00  0.00    +0.000 A 
ATOM     19  C   UNL     1       0.027   8.601  21.423  0.00  0.00    +0.000 A 
ATOM     20  C   UNL     1       0.694   9.489  20.588  0.00  0.00    +0.000 A 
ATOM     21  C   UNL     1       1.611   8.952  19.693  0.00  0.00    +0.000 A 
ATOM     22  C   UNL     1       2.199   7.739  19.924  0.00  0.00    +0.000 A 
ATOM     23  O   UNL     1       1.304   9.102  18.344  0.00  0.00    +0.000 OA
ATOM     24  C   UNL     1       1.846  10.281  17.796  0.00  0.00    +0.000 C 
ATOM     25  C   UNL     1       1.247  11.545  18.398  0.00  0.00    +0.000 C 
ATOM     26  C   UNL     1       1.416  11.616  19.915  0.00  0.00    +0.000 C 
ATOM     27  O   UNL     1       0.410  10.825  20.593  0.00  0.00    +0.000 OA
ENDBRANCH  16  17
BRANCH  16  28
ATOM     28  C   UNL     1       1.036   4.217  20.432  0.00  0.00    +0.000 C 
ATOM     29  C   UNL     1       1.007   3.649  18.999  0.00  0.00    +0.000 C 
ATOM     30  C   UNL     1       1.477   3.089  21.376  0.00  0.00    +0.000 C 
ENDBRANCH  16  28
ENDBRANCH   3  16
TORSDOF 4
ENDMDL
MODEL 3
REMARK VINA RESULT:      -7.5      3.892      7.244
REMARK  Name = 
REMARK  8 active torsions:
REMARK  status: ('A' for Active; 'I' for Inactive)
REMARK    1  A    between atoms: C_1  and  C_2
REMARK    2  A    between atoms: C_7  and  C_8
REMARK    3  A    between atoms: N_10  and  C_11
REMARK    4  A    between atoms: C_11  and  C_12
REMARK    5  A    between atoms: C_11  and  C_23
REMARK    6  A    between atoms: C_23  and  C_24
REMARK    7  A    between atoms: C_23  and  C_25
REMARK    8  A    between atoms: C_26  and  C_27
REMARK                            x       y       z     vdW  Elec       q    Type
REMARK                         _______ _______ _______ _____ _____    ______ ____
ROOT
ATOM      1  C   UNL     1       0.107  10.902  19.262  0.00  0.00    +0.000 C 
ATOM      2  O   UNL     1      -0.986  10.898  18.696  0.00  0.00    +0.000 OA
ATOM      3  N   UNL     1       0.504  11.964  20.053  0.00  0.00    +0.000 N 
ATOM      4  H   UNL     1       1.293  11.877  20.684  0.00  0.00    +0.000 HD
ENDROOT
BRANCH   1  11
ATOM      5  C   UNL     1       3.330   4.319  19.806  0.00  0.00    +0.000 C 
ATOM      6  C   UNL     1       2.941   5.695  19.410  0.00  0.00    +0.000 A 
ATOM      7  C   UNL     1       3.246   6.354  18.200  0.00  0.00    +0.000 A 
ATOM      8  C   UNL     1       2.638   7.589  18.302  0.00  0.00    +0.000 A 
ATOM      9  N   UNL     1       2.592   8.632  17.423  0.00  0.00    +0.000 NA
ATOM     10  C   UNL     1       1.851   9.632  17.795  0.00  0.00    +0.000 A 
ATOM     11  C   UNL     1       1.074   9.775  19.068  0.00  0.00    +0.000 A 
ATOM     12  C   UNL     1       1.228   8.733  19.930  0.00  0.00    +0.000 A 
ATOM     13  C   UNL     1       0.613   8.601  21.303  0.00  0.00    +0.000 C 
ATOM     14  N   UNL     1       2.012   7.628  19.541  0.00  0.00    +0.000 N 
ATOM     15  N   UNL     1       2.229   6.469  20.231  0.00  0.00    +0.000 NA
ENDBRANCH   1  11
BRANCH   3  16
ATOM     16  C   UNL     1      -0.383  13.132  20.265  0.00  0.00    +0.000 C 
BRANCH  16  17
ATOM     17  C   UNL     1      -1.306  12.823  21.421  0.00  0.00    +0.000 A 
ATOM     18  C   UNL     1      -1.157  11.865  22.440  0.00  0.00    +0.000 A 
ATOM     19  C   UNL     1      -2.182  11.693  23.403  0.00  0.00    +0.000 A 
ATOM     20  C   UNL     1      -3.404  12.328  23.221  0.00  0.00    +0.000 A 
ATOM     21  C   UNL     1      -3.585  13.032  22.037  0.00  0.00    +0.000 A 
ATOM     22  C   UNL     1      -2.516  13.501  21.322  0.00  0.00    +0.000 A 
ATOM     23  O   UNL     1      -4.572  12.547  21.186  0.00  0.00    +0.000 OA
ATOM     24  C   UNL     1      -5.829  13.136  21.428  0.00  0.00    +0.000 C 
ATOM     25  C   UNL     1      -6.394  12.786  22.798  0.00  0.00    +0.000 C 
ATOM     26  C   UNL     1      -5.463  13.186  23.942  0.00  0.00    +0.000 C 
ATOM     27  O   UNL     1      -4.414  12.207  24.132  0.00  0.00    +0.000 OA
ENDBRANCH  16  17
BRANCH  16  28
ATOM     28  C   UNL     1       0.389  14.462  20.234  0.00  0.00    +0.000 C 
ATOM     29  C   UNL     1       1.159  14.609  21.561  0.00  0.00    +0.000 C 
ATOM     30  C   UNL     1       1.413  14.491  19.090  0.00  0.00    +0.000 C 
ENDBRANCH  16  28
ENDBRANCH   3  16
TORSDOF 4
ENDMDL
MODEL 4
REMARK VINA RESULT:      -7.4      2.894      8.378
REMARK  Name = 
REMARK  8 active torsions:
REMARK  status: ('A' for Active; 'I' for Inactive)
REMARK    1  A    between atoms: C_1  and  C_2
REMARK    2  A    between atoms: C_7  and  C_8
REMARK    3  A    between atoms: N_10  and  C_11
REMARK    4  A    between atoms: C_11  and  C_12
REMARK    5  A    between atoms: C_11  and  C_23
REMARK    6  A    between atoms: C_23  and  C_24
REMARK    7  A    between atoms: C_23  and  C_25
REMARK    8  A    between atoms: C_26  and  C_27
REMARK                            x       y       z     vdW  Elec       q    Type
REMARK                         _______ _______ _______ _____ _____    ______ ____
ROOT
ATOM      1  C   UNL     1       1.816   7.258  19.329  0.00  0.00    +0.000 C 
ATOM      2  O   UNL     1       2.132   7.288  18.140  0.00  0.00    +0.000 OA
ATOM      3  N   UNL     1       1.740   6.065  20.023  0.00  0.00    +0.000 N 
ATOM      4  H   UNL     1       1.694   6.053  21.036  0.00  0.00    +0.000 HD
ENDROOT
BRANCH   1  11
ATOM      5  C   UNL     1      -1.172  13.798  20.848  0.00  0.00    +0.000 C 
ATOM      6  C   UNL     1      -0.481  12.488  20.921  0.00  0.00    +0.000 A 
ATOM      7  C   UNL     1      -0.210  11.729  22.080  0.00  0.00    +0.000 A 
ATOM      8  C   UNL     1       0.415  10.587  21.622  0.00  0.00    +0.000 A 
ATOM      9  N   UNL     1       0.889   9.501  22.299  0.00  0.00    +0.000 NA
ATOM     10  C   UNL     1       1.352   8.545  21.550  0.00  0.00    +0.000 A 
ATOM     11  C   UNL     1       1.443   8.514  20.055  0.00  0.00    +0.000 A 
ATOM     12  C   UNL     1       1.026   9.659  19.451  0.00  0.00    +0.000 A 
ATOM     13  C   UNL     1       1.033   9.950  17.970  0.00  0.00    +0.000 C 
ATOM     14  N   UNL     1       0.502  10.702  20.241  0.00  0.00    +0.000 N 
ATOM     15  N   UNL     1      -0.025  11.891  19.819  0.00  0.00    +0.000 NA
ENDBRANCH   1  11
BRANCH   3  16
ATOM     16  C   UNL     1       2.058   4.776  19.365  0.00  0.00    +0.000 C 
BRANCH  16  17
ATOM     17  C   UNL     1       3.530   4.769  19.023  0.00  0.00    +0.000 A 
ATOM     18  C   UNL     1       4.616   5.242  19.781  0.00  0.00    +0.000 A 
ATOM     19  C   UNL     1       5.926   5.198  19.243  0.00  0.00    +0.000 A 
ATOM     20  C   UNL     1       6.104   4.874  17.904  0.00  0.00    +0.000 A 
ATOM     21  C   UNL     1       4.960   4.699  17.134  0.00  0.00    +0.000 A 
ATOM     22  C   UNL     1       3.763   4.373  17.710  0.00  0.00    +0.000 A 
ATOM     23  O   UNL     1       4.777   5.613  16.102  0.00  0.00    +0.000 OA
ATOM     24  C   UNL     1       5.348   5.178  14.890  0.00  0.00    +0.000 C 
ATOM     25  C   UNL     1       6.866   5.073  14.953  0.00  0.00    +0.000 C 
ATOM     26  C   UNL     1       7.349   4.136  16.059  0.00  0.00    +0.000 C 
ATOM     27  O   UNL     1       7.348   4.800  17.346  0.00  0.00    +0.000 OA
ENDBRANCH  16  17
BRANCH  16  28
ATOM     28  C   UNL     1       1.436   3.577  20.100  0.00  0.00    +0.000 C 
ATOM     29  C   UNL     1       0.959   2.555  19.049  0.00  0.00    +0.000 C 
ATOM     30  C   UNL     1       2.461   2.878  21.005  0.00  0.00    +0.000 C 
ENDBRANCH  16  28
ENDBRANCH   3  16
TORSDOF 4
ENDMDL
MODEL 5
REMARK VINA RESULT:      -7.3      0.874      1.588
REMARK  Name = 
REMARK  8 active torsions:
REMARK  status: ('A' for Active; 'I' for Inactive)
REMARK    1  A    between atoms: C_1  and  C_2
REMARK    2  A    between atoms: C_7  and  C_8
REMARK    3  A    between atoms: N_10  and  C_11
REMARK    4  A    between atoms: C_11  and  C_12
REMARK    5  A    between atoms: C_11  and  C_23
REMARK    6  A    between atoms: C_23  and  C_24
REMARK    7  A    between atoms: C_23  and  C_25
REMARK    8  A    between atoms: C_26  and  C_27
REMARK                            x       y       z     vdW  Elec       q    Type
REMARK                         _______ _______ _______ _____ _____    ______ ____
ROOT
ATOM      1  C   UNL     1       4.167   5.374  18.756  0.00  0.00    +0.000 C 
ATOM      2  O   UNL     1       4.935   5.456  19.715  0.00  0.00    +0.000 OA
ATOM      3  N   UNL     1       2.808   5.579  18.903  0.00  0.00    +0.000 N 
ATOM      4  H   UNL     1       2.212   5.725  18.095  0.00  0.00    +0.000 HD
ENDROOT
BRANCH   1  11
ATOM      5  C   UNL     1       8.161   5.274  12.588  0.00  0.00    +0.000 C 
ATOM      6  C   UNL     1       7.214   4.961  13.686  0.00  0.00    +0.000 A 
ATOM      7  C   UNL     1       6.624   3.711  13.975  0.00  0.00    +0.000 A 
ATOM      8  C   UNL     1       5.855   3.931  15.100  0.00  0.00    +0.000 A 
ATOM      9  N   UNL     1       5.074   3.076  15.823  0.00  0.00    +0.000 NA
ATOM     10  C   UNL     1       4.544   3.588  16.893  0.00  0.00    +0.000 A 
ATOM     11  C   UNL     1       4.674   4.991  17.399  0.00  0.00    +0.000 A 
ATOM     12  C   UNL     1       5.401   5.807  16.590  0.00  0.00    +0.000 A 
ATOM     13  C   UNL     1       5.676   7.276  16.803  0.00  0.00    +0.000 C 
ATOM     14  N   UNL     1       6.002   5.271  15.433  0.00  0.00    +0.000 N 
ATOM     15  N   UNL     1       6.817   5.906  14.538  0.00  0.00    +0.000 NA
ENDBRANCH   1  11
BRANCH   3  16
ATOM     16  C   UNL     1       2.225   5.925  20.220  0.00  0.00    +0.000 C 
BRANCH  16  17
ATOM     17  C   UNL     1       1.599   7.297  20.116  0.00  0.00    +0.000 A 
ATOM     18  C   UNL     1       1.929   8.356  19.251  0.00  0.00    +0.000 A 
ATOM     19  C   UNL     1       1.253   9.595  19.362  0.00  0.00    +0.000 A 
ATOM     20  C   UNL     1       0.412   9.821  20.445  0.00  0.00    +0.000 A 
ATOM     21  C   UNL     1       0.356   8.835  21.422  0.00  0.00    +0.000 A 
ATOM     22  C   UNL     1       0.689   7.538  21.139  0.00  0.00    +0.000 A 
ATOM     23  O   UNL     1       0.822   9.199  22.681  0.00  0.00    +0.000 OA
ATOM     24  C   UNL     1      -0.198   9.713  23.505  0.00  0.00    +0.000 C 
ATOM     25  C   UNL     1      -0.772  11.026  22.989  0.00  0.00    +0.000 C 
ATOM     26  C   UNL     1      -1.331  10.911  21.571  0.00  0.00    +0.000 C 
ATOM     27  O   UNL     1      -0.276  10.992  20.583  0.00  0.00    +0.000 OA
ENDBRANCH  16  17
BRANCH  16  28
ATOM     28  C   UNL     1       1.424   4.761  20.827  0.00  0.00    +0.000 C 
ATOM     29  C   UNL     1       0.864   3.903  19.675  0.00  0.00    +0.000 C 
ATOM     30  C   UNL     1       2.312   3.860  21.697  0.00  0.00    +0.000 C 
ENDBRANCH  16  28
ENDBRANCH   3  16
TORSDOF 4
ENDMDL
MODEL 6
REMARK VINA RESULT:      -7.3      2.803      8.285
REMARK  Name = 
REMARK  8 active torsions:
REMARK  status: ('A' for Active; 'I' for Inactive)
REMARK    1  A    between atoms: C_1  and  C_2
REMARK    2  A    between atoms: C_7  and  C_8
REMARK    3  A    between atoms: N_10  and  C_11
REMARK    4  A    between atoms: C_11  and  C_12
REMARK    5  A    between atoms: C_11  and  C_23
REMARK    6  A    between atoms: C_23  and  C_24
REMARK    7  A    between atoms: C_23  and  C_25
REMARK    8  A    between atoms: C_26  and  C_27
REMARK                            x       y       z     vdW  Elec       q    Type
REMARK                         _______ _______ _______ _____ _____    ______ ____
ROOT
ATOM      1  C   UNL     1       2.197   6.694  19.300  0.00  0.00    +0.000 C 
ATOM      2  O   UNL     1       2.156   6.564  18.076  0.00  0.00    +0.000 OA
ATOM      3  N   UNL     1       2.599   5.657  20.120  0.00  0.00    +0.000 N 
ATOM      4  H   UNL     1       2.839   5.823  21.091  0.00  0.00    +0.000 HD
ENDROOT
BRANCH   1  11
ATOM      5  C   UNL     1      -0.715  13.371  20.269  0.00  0.00    +0.000 C 
ATOM      6  C   UNL     1      -0.110  12.031  20.463  0.00  0.00    +0.000 A 
ATOM      7  C   UNL     1      -0.091  11.266  21.649  0.00  0.00    +0.000 A 
ATOM      8  C   UNL     1       0.556  10.095  21.309  0.00  0.00    +0.000 A 
ATOM      9  N   UNL     1       0.847   8.992  22.058  0.00  0.00    +0.000 NA
ATOM     10  C   UNL     1       1.395   8.012  21.403  0.00  0.00    +0.000 A 
ATOM     11  C   UNL     1       1.757   7.969  19.950  0.00  0.00    +0.000 A 
ATOM     12  C   UNL     1       1.510   9.129  19.283  0.00  0.00    +0.000 A 
ATOM     13  C   UNL     1       1.801   9.412  17.829  0.00  0.00    +0.000 C 
ATOM     14  N   UNL     1       0.898  10.199  19.968  0.00  0.00    +0.000 N 
ATOM     15  N   UNL     1       0.512  11.408  19.461  0.00  0.00    +0.000 NA
ENDBRANCH   1  11
BRANCH   3  16
ATOM     16  C   UNL     1       3.015   4.352  19.555  0.00  0.00    +0.000 C 
BRANCH  16  17
ATOM     17  C   UNL     1       4.367   4.528  18.902  0.00  0.00    +0.000 A 
ATOM     18  C   UNL     1       5.499   5.212  19.382  0.00  0.00    +0.000 A 
ATOM     19  C   UNL     1       6.658   5.313  18.575  0.00  0.00    +0.000 A 
ATOM     20  C   UNL     1       6.604   4.909  17.247  0.00  0.00    +0.000 A 
ATOM     21  C   UNL     1       5.367   4.511  16.754  0.00  0.00    +0.000 A 
ATOM     22  C   UNL     1       4.382   4.064  17.591  0.00  0.00    +0.000 A 
ATOM     23  O   UNL     1       4.832   5.302  15.742  0.00  0.00    +0.000 OA
ATOM     24  C   UNL     1       5.201   4.856  14.458  0.00  0.00    +0.000 C 
ATOM     25  C   UNL     1       6.696   4.976  14.194  0.00  0.00    +0.000 C 
ATOM     26  C   UNL     1       7.540   4.211  15.214  0.00  0.00    +0.000 C 
ATOM     27  O   UNL     1       7.701   4.969  16.437  0.00  0.00    +0.000 OA
ENDBRANCH  16  17
BRANCH  16  28
ATOM     28  C   UNL     1       2.784   3.191  20.537  0.00  0.00    +0.000 C 
ATOM     29  C   UNL     1       1.988   3.726  21.744  0.00  0.00    +0.000 C 
ATOM     30  C   UNL     1       1.961   2.065  19.892  0.00  0.00    +0.000 C 
ENDBRANCH  16  28
ENDBRANCH   3  16
TORSDOF 4
ENDMDL
MODEL 7
REMARK VINA RESULT:      -7.3      4.342      8.901
REMARK  Name = 
REMARK  8 active torsions:
REMARK  status: ('A' for Active; 'I' for Inactive)
REMARK    1  A    between atoms: C_1  and  C_2
REMARK    2  A    between atoms: C_7  and  C_8
REMARK    3  A    between atoms: N_10  and  C_11
REMARK    4  A    between atoms: C_11  and  C_12
REMARK    5  A    between atoms: C_11  and  C_23
REMARK    6  A    between atoms: C_23  and  C_24
REMARK    7  A    between atoms: C_23  and  C_25
REMARK    8  A    between atoms: C_26  and  C_27
REMARK                            x       y       z     vdW  Elec       q    Type
REMARK                         _______ _______ _______ _____ _____    ______ ____
ROOT
ATOM      1  C   UNL     1       0.738  10.718  18.742  0.00  0.00    +0.000 C 
ATOM      2  O   UNL     1      -0.139  10.193  18.056  0.00  0.00    +0.000 OA
ATOM      3  N   UNL     1       1.422  10.003  19.707  0.00  0.00    +0.000 N 
ATOM      4  H   UNL     1       2.277  10.365  20.116  0.00  0.00    +0.000 HD
ENDROOT
BRANCH   1  11
ATOM      5  C   UNL     1       0.571  18.010  19.646  0.00  0.00    +0.000 C 
ATOM      6  C   UNL     1       0.928  16.622  19.261  0.00  0.00    +0.000 A 
ATOM      7  C   UNL     1       2.182  16.156  18.812  0.00  0.00    +0.000 A 
ATOM      8  C   UNL     1       2.011  14.801  18.618  0.00  0.00    +0.000 A 
ATOM      9  N   UNL     1       2.892  13.845  18.201  0.00  0.00    +0.000 NA
ATOM     10  C   UNL     1       2.430  12.631  18.208  0.00  0.00    +0.000 A 
ATOM     11  C   UNL     1       1.056  12.174  18.594  0.00  0.00    +0.000 A 
ATOM     12  C   UNL     1       0.209  13.186  18.925  0.00  0.00    +0.000 A 
ATOM     13  C   UNL     1      -1.243  13.055  19.316  0.00  0.00    +0.000 C 
ATOM     14  N   UNL     1       0.693  14.511  18.942  0.00  0.00    +0.000 N 
ATOM     15  N   UNL     1       0.022  15.644  19.308  0.00  0.00    +0.000 NA
ENDBRANCH   1  11
BRANCH   3  16
ATOM     16  C   UNL     1       1.138   8.568  19.939  0.00  0.00    +0.000 C 
BRANCH  16  17
ATOM     17  C   UNL     1       2.195   7.755  19.225  0.00  0.00    +0.000 A 
ATOM     18  C   UNL     1       2.837   8.019  18.002  0.00  0.00    +0.000 A 
ATOM     19  C   UNL     1       3.760   7.084  17.474  0.00  0.00    +0.000 A 
ATOM     20  C   UNL     1       3.878   5.832  18.063  0.00  0.00    +0.000 A 
ATOM     21  C   UNL     1       3.001   5.530  19.097  0.00  0.00    +0.000 A 
ATOM     22  C   UNL     1       2.403   6.520  19.829  0.00  0.00    +0.000 A 
ATOM     23  O   UNL     1       2.109   4.491  18.854  0.00  0.00    +0.000 OA
ATOM     24  C   UNL     1       2.614   3.241  19.262  0.00  0.00    +0.000 C 
ATOM     25  C   UNL     1       3.834   2.803  18.462  0.00  0.00    +0.000 C 
ATOM     26  C   UNL     1       4.979   3.814  18.528  0.00  0.00    +0.000 C 
ATOM     27  O   UNL     1       4.770   4.906  17.600  0.00  0.00    +0.000 OA
ENDBRANCH  16  17
BRANCH  16  28
ATOM     28  C   UNL     1       0.806   8.269  21.411  0.00  0.00    +0.000 C 
ATOM     29  C   UNL     1       1.600   9.250  22.297  0.00  0.00    +0.000 C 
ATOM     30  C   UNL     1      -0.687   8.475  21.703  0.00  0.00    +0.000 C 
ENDBRANCH  16  28
ENDBRANCH   3  16
TORSDOF 4
ENDMDL
MODEL 8
REMARK VINA RESULT:      -7.2      3.623      6.498
REMARK  Name = 
REMARK  8 active torsions:
REMARK  status: ('A' for Active; 'I' for Inactive)
REMARK    1  A    between atoms: C_1  and  C_2
REMARK    2  A    between atoms: C_7  and  C_8
REMARK    3  A    between atoms: N_10  and  C_11
REMARK    4  A    between atoms: C_11  and  C_12
REMARK    5  A    between atoms: C_11  and  C_23
REMARK    6  A    between atoms: C_23  and  C_24
REMARK    7  A    between atoms: C_23  and  C_25
REMARK    8  A    between atoms: C_26  and  C_27
REMARK                            x       y       z     vdW  Elec       q    Type
REMARK                         _______ _______ _______ _____ _____    ______ ____
ROOT
ATOM      1  C   UNL     1       1.698   9.503  18.297  0.00  0.00    +0.000 C 
ATOM      2  O   UNL     1       2.323  10.218  17.514  0.00  0.00    +0.000 OA
ATOM      3  N   UNL     1       0.532   9.940  18.896  0.00  0.00    +0.000 N 
ATOM      4  H   UNL     1      -0.090   9.289  19.363  0.00  0.00    +0.000 HD
ENDROOT
BRANCH   1  11
ATOM      5  C   UNL     1       2.293   2.935  21.541  0.00  0.00    +0.000 C 
ATOM      6  C   UNL     1       2.460   4.119  20.663  0.00  0.00    +0.000 A 
ATOM      7  C   UNL     1       3.092   4.164  19.401  0.00  0.00    +0.000 A 
ATOM      8  C   UNL     1       2.958   5.472  18.982  0.00  0.00    +0.000 A 
ATOM      9  N   UNL     1       3.371   6.083  17.833  0.00  0.00    +0.000 NA
ATOM     10  C   UNL     1       3.004   7.323  17.707  0.00  0.00    +0.000 A 
ATOM     11  C   UNL     1       2.214   8.148  18.675  0.00  0.00    +0.000 A 
ATOM     12  C   UNL     1       1.903   7.500  19.831  0.00  0.00    +0.000 A 
ATOM     13  C   UNL     1       1.155   8.071  21.011  0.00  0.00    +0.000 C 
ATOM     14  N   UNL     1       2.274   6.148  19.982  0.00  0.00    +0.000 N 
ATOM     15  N   UNL     1       1.997   5.315  21.029  0.00  0.00    +0.000 NA
ENDBRANCH   1  11
BRANCH   3  16
ATOM     16  C   UNL     1      -0.023  11.282  18.601  0.00  0.00    +0.000 C 
BRANCH  16  17
ATOM     17  C   UNL     1      -1.457  11.114  18.155  0.00  0.00    +0.000 A 
ATOM     18  C   UNL     1      -1.972  11.017  16.850  0.00  0.00    +0.000 A 
ATOM     19  C   UNL     1      -3.371  10.928  16.647  0.00  0.00    +0.000 A 
ATOM     20  C   UNL     1      -4.231  11.135  17.718  0.00  0.00    +0.000 A 
ATOM     21  C   UNL     1      -3.661  11.515  18.927  0.00  0.00    +0.000 A 
ATOM     22  C   UNL     1      -2.353  11.235  19.212  0.00  0.00    +0.000 A 
ATOM     23  O   UNL     1      -4.006  12.781  19.390  0.00  0.00    +0.000 OA
ATOM     24  C   UNL     1      -5.140  12.759  20.225  0.00  0.00    +0.000 C 
ATOM     25  C   UNL     1      -6.407  12.334  19.495  0.00  0.00    +0.000 C 
ATOM     26  C   UNL     1      -6.281  10.958  18.843  0.00  0.00    +0.000 C 
ATOM     27  O   UNL     1      -5.586  11.039  17.575  0.00  0.00    +0.000 OA
ENDBRANCH  16  17
BRANCH  16  28
ATOM     28  C   UNL     1       0.326  12.309  19.691  0.00  0.00    +0.000 C 
ATOM     29  C   UNL     1       0.760  11.545  20.959  0.00  0.00    +0.000 C 
ATOM     30  C   UNL     1       1.494  13.210  19.262  0.00  0.00    +0.000 C 
ENDBRANCH  16  28
ENDBRANCH   3  16
TORSDOF 4
ENDMDL
MODEL 9
REMARK VINA RESULT:      -7.2      1.291      2.513
REMARK  Name = 
REMARK  8 active torsions:
REMARK  status: ('A' for Active; 'I' for Inactive)
REMARK    1  A    between atoms: C_1  and  C_2
REMARK    2  A    between atoms: C_7  and  C_8
REMARK    3  A    between atoms: N_10  and  C_11
REMARK    4  A    between atoms: C_11  and  C_12
REMARK    5  A    between atoms: C_11  and  C_23
REMARK    6  A    between atoms: C_23  and  C_24
REMARK    7  A    between atoms: C_23  and  C_25
REMARK    8  A    between atoms: C_26  and  C_27
REMARK                            x       y       z     vdW  Elec       q    Type
REMARK                         _______ _______ _______ _____ _____    ______ ____
ROOT
ATOM      1  C   UNL     1       4.077   5.034  18.977  0.00  0.00    +0.000 C 
ATOM      2  O   UNL     1       4.846   4.853  19.922  0.00  0.00    +0.000 OA
ATOM      3  N   UNL     1       2.737   5.300  19.182  0.00  0.00    +0.000 N 
ATOM      4  H   UNL     1       2.156   5.658  18.431  0.00  0.00    +0.000 HD
ENDROOT
BRANCH   1  11
ATOM      5  C   UNL     1       8.386   5.389  13.034  0.00  0.00    +0.000 C 
ATOM      6  C   UNL     1       7.291   5.108  13.994  0.00  0.00    +0.000 A 
ATOM      7  C   UNL     1       6.305   4.102  13.895  0.00  0.00    +0.000 A 
ATOM      8  C   UNL     1       5.546   4.232  15.040  0.00  0.00    +0.000 A 
ATOM      9  N   UNL     1       4.467   3.518  15.476  0.00  0.00    +0.000 NA
ATOM     10  C   UNL     1       4.032   3.845  16.656  0.00  0.00    +0.000 A 
ATOM     11  C   UNL     1       4.559   4.913  17.564  0.00  0.00    +0.000 A 
ATOM     12  C   UNL     1       5.583   5.635  17.035  0.00  0.00    +0.000 A 
ATOM     13  C   UNL     1       6.295   6.798  17.682  0.00  0.00    +0.000 C 
ATOM     14  N   UNL     1       6.085   5.287  15.764  0.00  0.00    +0.000 N 
ATOM     15  N   UNL     1       7.141   5.843  15.098  0.00  0.00    +0.000 NA
ENDBRANCH   1  11
BRANCH   3  16
ATOM     16  C   UNL     1       2.177   5.399  20.550  0.00  0.00    +0.000 C 
BRANCH  16  17
ATOM     17  C   UNL     1       1.586   6.780  20.722  0.00  0.00    +0.000 A 
ATOM     18  C   UNL     1       0.402   7.159  21.379  0.00  0.00    +0.000 A 
ATOM     19  C   UNL     1      -0.009   8.515  21.368  0.00  0.00    +0.000 A 
ATOM     20  C   UNL     1       0.651   9.422  20.548  0.00  0.00    +0.000 A 
ATOM     21  C   UNL     1       1.631   8.919  19.702  0.00  0.00    +0.000 A 
ATOM     22  C   UNL     1       2.266   7.739  19.978  0.00  0.00    +0.000 A 
ATOM     23  O   UNL     1       1.377   9.034  18.340  0.00  0.00    +0.000 OA
ATOM     24  C   UNL     1       1.884  10.231  17.796  0.00  0.00    +0.000 C 
ATOM     25  C   UNL     1       1.200  11.473  18.352  0.00  0.00    +0.000 C 
ATOM     26  C   UNL     1       1.298  11.572  19.873  0.00  0.00    +0.000 C 
ATOM     27  O   UNL     1       0.303  10.742  20.520  0.00  0.00    +0.000 OA
ENDBRANCH  16  17
BRANCH  16  28
ATOM     28  C   UNL     1       1.352   4.159  20.933  0.00  0.00    +0.000 C 
ATOM     29  C   UNL     1       0.833   3.501  19.639  0.00  0.00    +0.000 C 
ATOM     30  C   UNL     1       2.206   3.123  21.678  0.00  0.00    +0.000 C 
ENDBRANCH  16  28
ENDBRANCH   3  16
TORSDOF 4
ENDMDL
