MODEL 1
REMARK VINA RESULT:      -7.2      0.000      0.000
REMARK  Name = 
REMARK  2 active torsions:
REMARK  status: ('A' for Active; 'I' for Inactive)
REMARK    1  A    between atoms: C_2  and  C_3
REMARK    2  A    between atoms: C_3  and  C_4
REMARK                            x       y       z     vdW  Elec       q    Type
REMARK                         _______ _______ _______ _____ _____    ______ ____
ROOT
ATOM      1  C   UNL     1       0.348  15.311  20.035  0.00  0.00    +0.000 C 
ATOM      2  C   UNL     1      -0.506  14.446  20.976  0.00  0.00    +0.000 C 
ATOM      3  C   UNL     1      -1.744  13.664  20.242  0.00  0.00    +0.000 C 
ATOM      4  C   UNL     1      -1.300  12.627  19.168  0.00  0.00    +0.000 C 
ATOM      5  C   UNL     1      -0.468  13.502  18.198  0.00  0.00    +0.000 C 
ATOM      6  C   UNL     1       0.666  14.212  18.854  0.00  0.00    +0.000 C 
ATOM      7  N   UNL     1      -2.352  12.125  18.244  0.00  0.00    +0.000 N 
ATOM      8  C   UNL     1      -1.857  11.174  17.369  0.00  0.00    +0.000 C 
ATOM      9  N   UNL     1      -2.326  11.259  16.104  0.00  0.00    +0.000 N 
ATOM     10  N   UNL     1      -0.909  10.322  17.627  0.00  0.00    +0.000 NA
ATOM     11  C   UNL     1      -0.480  10.324  18.909  0.00  0.00    +0.000 A 
ATOM     12  N   UNL     1       0.034   9.324  19.580  0.00  0.00    +0.000 NA
ATOM     13  C   UNL     1      -0.135   9.645  20.897  0.00  0.00    +0.000 A 
ATOM     14  C   UNL     1       0.032   8.819  22.023  0.00  0.00    +0.000 A 
ATOM     15  C   UNL     1      -0.295   9.309  23.289  0.00  0.00    +0.000 A 
ATOM     16  C   UNL     1      -0.774  10.602  23.434  0.00  0.00    +0.000 A 
ATOM     17  C   UNL     1      -0.938  11.439  22.326  0.00  0.00    +0.000 A 
ATOM     18  C   UNL     1      -0.603  10.954  21.047  0.00  0.00    +0.000 A 
ATOM     19  N   UNL     1      -0.661  11.435  19.744  0.00  0.00    +0.000 N 
ATOM     20  H   UNL     1      -2.931  12.820  17.795  0.00  0.00    +0.000 HD
ATOM     21  H   UNL     1      -2.055  12.119  15.646  0.00  0.00    +0.000 HD
ATOM     22  H   UNL     1      -1.884  10.508  15.566  0.00  0.00    +0.000 HD
ENDROOT
BRANCH   1  23
ATOM     23  C   UNL     1      -0.390  16.502  19.335  0.00  0.00    +0.000 A 
ATOM     24  C   UNL     1       0.143  17.072  18.146  0.00  0.00    +0.000 A 
ATOM     25  C   UNL     1      -0.486  18.119  17.470  0.00  0.00    +0.000 A 
ATOM     26  C   UNL     1      -1.686  18.620  17.944  0.00  0.00    +0.000 A 
ATOM     27  C   UNL     1      -2.240  18.085  19.104  0.00  0.00    +0.000 A 
ATOM     28  C   UNL     1      -1.589  17.058  19.805  0.00  0.00    +0.000 A 
ENDBRANCH   1  23
BRANCH   1  30
ATOM     29  N   UNL     1       3.062  15.916  20.029  0.00  0.00    +0.000 NA
ATOM     30  C   UNL     1       1.832  15.641  20.031  0.00  0.00    +0.000 C 
ENDBRANCH   1  30
TORSDOF 2
ENDMDL
MODEL 2
REMARK VINA RESULT:      -6.9      1.345      7.125
REMARK  Name = 
REMARK  2 active torsions:
REMARK  status: ('A' for Active; 'I' for Inactive)
REMARK    1  A    between atoms: C_2  and  C_3
REMARK    2  A    between atoms: C_3  and  C_4
REMARK                            x       y       z     vdW  Elec       q    Type
REMARK                         _______ _______ _______ _____ _____    ______ ____
ROOT
ATOM      1  C   UNL     1      -0.608  12.224  19.644  0.00  0.00    +0.000 C 
ATOM      2  C   UNL     1      -0.942  13.704  19.893  0.00  0.00    +0.000 C 
ATOM      3  C   UNL     1       0.152  14.501  20.815  0.00  0.00    +0.000 C 
ATOM      4  C   UNL     1       1.574  14.595  20.184  0.00  0.00    +0.000 C 
ATOM      5  C   UNL     1       1.930  13.104  19.965  0.00  0.00    +0.000 C 
ATOM      6  C   UNL     1       0.944  12.370  19.121  0.00  0.00    +0.000 C 
ATOM      7  N   UNL     1       2.682  15.007  21.086  0.00  0.00    +0.000 N 
ATOM      8  C   UNL     1       3.885  15.106  20.410  0.00  0.00    +0.000 C 
ATOM      9  N   UNL     1       4.964  14.653  21.088  0.00  0.00    +0.000 N 
ATOM     10  N   UNL     1       4.034  15.463  19.169  0.00  0.00    +0.000 NA
ATOM     11  C   UNL     1       2.900  15.876  18.559  0.00  0.00    +0.000 A 
ATOM     12  N   UNL     1       2.790  16.731  17.573  0.00  0.00    +0.000 NA
ATOM     13  C   UNL     1       1.500  17.178  17.623  0.00  0.00    +0.000 A 
ATOM     14  C   UNL     1       0.929  18.267  16.940  0.00  0.00    +0.000 A 
ATOM     15  C   UNL     1      -0.392  18.631  17.208  0.00  0.00    +0.000 A 
ATOM     16  C   UNL     1      -1.136  17.920  18.138  0.00  0.00    +0.000 A 
ATOM     17  C   UNL     1      -0.585  16.830  18.820  0.00  0.00    +0.000 A 
ATOM     18  C   UNL     1       0.744  16.453  18.548  0.00  0.00    +0.000 A 
ATOM     19  N   UNL     1       1.635  15.498  19.026  0.00  0.00    +0.000 N 
ATOM     20  H   UNL     1       2.756  14.518  21.967  0.00  0.00    +0.000 HD
ATOM     21  H   UNL     1       4.915  13.660  21.276  0.00  0.00    +0.000 HD
ATOM     22  H   UNL     1       5.779  14.780  20.481  0.00  0.00    +0.000 HD
ENDROOT
BRANCH   1  23
ATOM     23  C   UNL     1      -0.555  11.307  20.913  0.00  0.00    +0.000 A 
ATOM     24  C   UNL     1       0.244  10.131  20.911  0.00  0.00    +0.000 A 
ATOM     25  C   UNL     1       0.344   9.291  22.022  0.00  0.00    +0.000 A 
ATOM     26  C   UNL     1      -0.331   9.610  23.187  0.00  0.00    +0.000 A 
ATOM     27  C   UNL     1      -1.121  10.756  23.228  0.00  0.00    +0.000 A 
ATOM     28  C   UNL     1      -1.253  11.580  22.099  0.00  0.00    +0.000 A 
ENDBRANCH   1  23
BRANCH   1  30
ATOM     29  N   UNL     1      -1.056  10.565  17.458  0.00  0.00    +0.000 NA
ATOM     30  C   UNL     1      -0.853  11.318  18.449  0.00  0.00    +0.000 C 
ENDBRANCH   1  30
TORSDOF 2
ENDMDL
MODEL 3
REMARK VINA RESULT:      -6.8      6.834     10.115
REMARK  Name = 
REMARK  2 active torsions:
REMARK  status: ('A' for Active; 'I' for Inactive)
REMARK    1  A    between atoms: C_2  and  C_3
REMARK    2  A    between atoms: C_3  and  C_4
REMARK                            x       y       z     vdW  Elec       q    Type
REMARK                         _______ _______ _______ _____ _____    ______ ____
ROOT
ATOM      1  C   UNL     1       5.744   6.257  17.127  0.00  0.00    +0.000 C 
ATOM      2  C   UNL     1       4.455   7.093  17.076  0.00  0.00    +0.000 C 
ATOM      3  C   UNL     1       3.086   6.217  16.871  0.00  0.00    +0.000 C 
ATOM      4  C   UNL     1       2.780   5.227  18.034  0.00  0.00    +0.000 C 
ATOM      5  C   UNL     1       4.063   4.359  18.065  0.00  0.00    +0.000 C 
ATOM      6  C   UNL     1       5.314   5.145  18.259  0.00  0.00    +0.000 C 
ATOM      7  N   UNL     1       1.755   4.182  17.773  0.00  0.00    +0.000 N 
ATOM      8  C   UNL     1       1.528   3.394  18.887  0.00  0.00    +0.000 C 
ATOM      9  N   UNL     1       1.354   2.077  18.633  0.00  0.00    +0.000 N 
ATOM     10  N   UNL     1       1.601   3.786  20.125  0.00  0.00    +0.000 NA
ATOM     11  C   UNL     1       1.805   5.113  20.287  0.00  0.00    +0.000 A 
ATOM     12  N   UNL     1       1.430   5.860  21.295  0.00  0.00    +0.000 NA
ATOM     13  C   UNL     1       1.420   7.139  20.814  0.00  0.00    +0.000 A 
ATOM     14  C   UNL     1       0.877   8.290  21.412  0.00  0.00    +0.000 A 
ATOM     15  C   UNL     1       0.874   9.495  20.707  0.00  0.00    +0.000 A 
ATOM     16  C   UNL     1       1.408   9.556  19.429  0.00  0.00    +0.000 A 
ATOM     17  C   UNL     1       1.959   8.423  18.823  0.00  0.00    +0.000 A 
ATOM     18  C   UNL     1       1.972   7.206  19.532  0.00  0.00    +0.000 A 
ATOM     19  N   UNL     1       2.371   5.899  19.275  0.00  0.00    +0.000 N 
ATOM     20  H   UNL     1       1.855   3.651  16.920  0.00  0.00    +0.000 HD
ATOM     21  H   UNL     1       2.180   1.645  18.241  0.00  0.00    +0.000 HD
ATOM     22  H   UNL     1       1.200   1.613  19.533  0.00  0.00    +0.000 HD
ENDROOT
BRANCH   1  23
ATOM     23  C   UNL     1       6.093   5.449  15.831  0.00  0.00    +0.000 A 
ATOM     24  C   UNL     1       5.101   4.651  15.199  0.00  0.00    +0.000 A 
ATOM     25  C   UNL     1       5.352   3.929  14.030  0.00  0.00    +0.000 A 
ATOM     26  C   UNL     1       6.600   3.999  13.435  0.00  0.00    +0.000 A 
ATOM     27  C   UNL     1       7.596   4.773  14.024  0.00  0.00    +0.000 A 
ATOM     28  C   UNL     1       7.356   5.468  15.219  0.00  0.00    +0.000 A 
ENDBRANCH   1  23
BRANCH   1  30
ATOM     29  N   UNL     1       8.116   6.594  18.541  0.00  0.00    +0.000 NA
ATOM     30  C   UNL     1       7.040   6.441  17.900  0.00  0.00    +0.000 C 
ENDBRANCH   1  30
TORSDOF 2
ENDMDL
MODEL 4
REMARK VINA RESULT:      -6.5      6.602      9.882
REMARK  Name = 
REMARK  2 active torsions:
REMARK  status: ('A' for Active; 'I' for Inactive)
REMARK    1  A    between atoms: C_2  and  C_3
REMARK    2  A    between atoms: C_3  and  C_4
REMARK                            x       y       z     vdW  Elec       q    Type
REMARK                         _______ _______ _______ _____ _____    ______ ____
ROOT
ATOM      1  C   UNL     1       5.608   6.501  17.130  0.00  0.00    +0.000 C 
ATOM      2  C   UNL     1       4.317   7.333  17.064  0.00  0.00    +0.000 C 
ATOM      3  C   UNL     1       2.943   6.446  16.964  0.00  0.00    +0.000 C 
ATOM      4  C   UNL     1       2.675   5.538  18.201  0.00  0.00    +0.000 C 
ATOM      5  C   UNL     1       3.960   4.672  18.250  0.00  0.00    +0.000 C 
ATOM      6  C   UNL     1       5.216   5.469  18.349  0.00  0.00    +0.000 C 
ATOM      7  N   UNL     1       1.643   4.479  18.046  0.00  0.00    +0.000 N 
ATOM      8  C   UNL     1       1.454   3.769  19.218  0.00  0.00    +0.000 C 
ATOM      9  N   UNL     1       1.273   2.438  19.060  0.00  0.00    +0.000 N 
ATOM     10  N   UNL     1       1.567   4.245  20.423  0.00  0.00    +0.000 NA
ATOM     11  C   UNL     1       1.774   5.579  20.487  0.00  0.00    +0.000 A 
ATOM     12  N   UNL     1       1.431   6.394  21.453  0.00  0.00    +0.000 NA
ATOM     13  C   UNL     1       1.404   7.637  20.887  0.00  0.00    +0.000 A 
ATOM     14  C   UNL     1       0.879   8.827  21.422  0.00  0.00    +0.000 A 
ATOM     15  C   UNL     1       0.852   9.981  20.637  0.00  0.00    +0.000 A 
ATOM     16  C   UNL     1       1.344   9.954  19.341  0.00  0.00    +0.000 A 
ATOM     17  C   UNL     1       1.877   8.781  18.796  0.00  0.00    +0.000 A 
ATOM     18  C   UNL     1       1.914   7.616  19.585  0.00  0.00    +0.000 A 
ATOM     19  N   UNL     1       2.306   6.293  19.406  0.00  0.00    +0.000 N 
ATOM     20  H   UNL     1       1.716   3.890  17.228  0.00  0.00    +0.000 HD
ATOM     21  H   UNL     1       2.087   1.979  18.672  0.00  0.00    +0.000 HD
ATOM     22  H   UNL     1       1.149   2.036  19.995  0.00  0.00    +0.000 HD
ENDROOT
BRANCH   1  23
ATOM     23  C   UNL     1       5.915   5.605  15.882  0.00  0.00    +0.000 A 
ATOM     24  C   UNL     1       7.233   5.549  15.352  0.00  0.00    +0.000 A 
ATOM     25  C   UNL     1       7.567   4.750  14.256  0.00  0.00    +0.000 A 
ATOM     26  C   UNL     1       6.598   3.957  13.665  0.00  0.00    +0.000 A 
ATOM     27  C   UNL     1       5.297   3.983  14.160  0.00  0.00    +0.000 A 
ATOM     28  C   UNL     1       4.953   4.815  15.236  0.00  0.00    +0.000 A 
ENDBRANCH   1  23
BRANCH   1  30
ATOM     29  N   UNL     1       8.023   6.931  18.440  0.00  0.00    +0.000 NA
ATOM     30  C   UNL     1       6.928   6.736  17.846  0.00  0.00    +0.000 C 
ENDBRANCH   1  30
TORSDOF 2
ENDMDL
MODEL 5
REMARK VINA RESULT:      -6.5      3.029      5.277
REMARK  Name = 
REMARK  2 active torsions:
REMARK  status: ('A' for Active; 'I' for Inactive)
REMARK    1  A    between atoms: C_2  and  C_3
REMARK    2  A    between atoms: C_3  and  C_4
REMARK                            x       y       z     vdW  Elec       q    Type
REMARK                         _______ _______ _______ _____ _____    ______ ____
ROOT
ATOM      1  C   UNL     1      -3.416  13.651  22.974  0.00  0.00    +0.000 C 
ATOM      2  C   UNL     1      -3.599  13.741  21.450  0.00  0.00    +0.000 C 
ATOM      3  C   UNL     1      -2.269  14.245  20.636  0.00  0.00    +0.000 C 
ATOM      4  C   UNL     1      -1.044  13.292  20.757  0.00  0.00    +0.000 C 
ATOM      5  C   UNL     1      -0.834  13.226  22.290  0.00  0.00    +0.000 C 
ATOM      6  C   UNL     1      -2.036  12.760  23.040  0.00  0.00    +0.000 C 
ATOM      7  N   UNL     1       0.272  13.833  20.328  0.00  0.00    +0.000 N 
ATOM      8  C   UNL     1       1.276  12.886  20.430  0.00  0.00    +0.000 C 
ATOM      9  N   UNL     1       2.462  13.353  20.882  0.00  0.00    +0.000 N 
ATOM     10  N   UNL     1       1.134  11.605  20.259  0.00  0.00    +0.000 NA
ATOM     11  C   UNL     1      -0.091  11.223  19.833  0.00  0.00    +0.000 A 
ATOM     12  N   UNL     1      -0.393  10.172  19.114  0.00  0.00    +0.000 NA
ATOM     13  C   UNL     1      -1.605  10.454  18.549  0.00  0.00    +0.000 A 
ATOM     14  C   UNL     1      -2.267   9.766  17.517  0.00  0.00    +0.000 A 
ATOM     15  C   UNL     1      -3.459  10.279  17.002  0.00  0.00    +0.000 A 
ATOM     16  C   UNL     1      -3.989  11.455  17.511  0.00  0.00    +0.000 A 
ATOM     17  C   UNL     1      -3.347  12.147  18.543  0.00  0.00    +0.000 A 
ATOM     18  C   UNL     1      -2.148  11.632  19.071  0.00  0.00    +0.000 A 
ATOM     19  N   UNL     1      -1.221  12.027  20.029  0.00  0.00    +0.000 N 
ATOM     20  H   UNL     1       0.534  14.736  20.697  0.00  0.00    +0.000 HD
ATOM     21  H   UNL     1       2.407  13.696  21.832  0.00  0.00    +0.000 HD
ATOM     22  H   UNL     1       3.109  12.558  20.912  0.00  0.00    +0.000 HD
ENDROOT
BRANCH   1  23
ATOM     23  C   UNL     1      -3.103  14.997  23.711  0.00  0.00    +0.000 A 
ATOM     24  C   UNL     1      -2.395  14.987  24.943  0.00  0.00    +0.000 A 
ATOM     25  C   UNL     1      -2.070  16.159  25.631  0.00  0.00    +0.000 A 
ATOM     26  C   UNL     1      -2.420  17.387  25.096  0.00  0.00    +0.000 A 
ATOM     27  C   UNL     1      -3.111  17.436  23.889  0.00  0.00    +0.000 A 
ATOM     28  C   UNL     1      -3.472  16.257  23.218  0.00  0.00    +0.000 A 
ENDBRANCH   1  23
BRANCH   1  30
ATOM     29  N   UNL     1      -4.479  11.912  24.867  0.00  0.00    +0.000 NA
ATOM     30  C   UNL     1      -3.997  12.700  24.008  0.00  0.00    +0.000 C 
ENDBRANCH   1  30
TORSDOF 2
ENDMDL
MODEL 6
REMARK VINA RESULT:      -6.4      4.541      7.655
REMARK  Name = 
REMARK  2 active torsions:
REMARK  status: ('A' for Active; 'I' for Inactive)
REMARK    1  A    between atoms: C_2  and  C_3
REMARK    2  A    between atoms: C_3  and  C_4
REMARK                            x       y       z     vdW  Elec       q    Type
REMARK                         _______ _______ _______ _____ _____    ______ ____
ROOT
ATOM      1  C   UNL     1      -2.167  13.604  22.349  0.00  0.00    +0.000 C 
ATOM      2  C   UNL     1      -2.957  14.127  21.139  0.00  0.00    +0.000 C 
ATOM      3  C   UNL     1      -4.268  13.228  20.745  0.00  0.00    +0.000 C 
ATOM      4  C   UNL     1      -5.367  13.181  21.847  0.00  0.00    +0.000 C 
ATOM      5  C   UNL     1      -4.584  12.620  23.061  0.00  0.00    +0.000 C 
ATOM      6  C   UNL     1      -3.392  13.435  23.433  0.00  0.00    +0.000 C 
ATOM      7  N   UNL     1      -6.419  12.140  21.702  0.00  0.00    +0.000 N 
ATOM      8  C   UNL     1      -7.367  12.224  22.707  0.00  0.00    +0.000 C 
ATOM      9  N   UNL     1      -7.800  11.037  23.189  0.00  0.00    +0.000 N 
ATOM     10  N   UNL     1      -7.760  13.316  23.293  0.00  0.00    +0.000 NA
ATOM     11  C   UNL     1      -7.258  14.454  22.765  0.00  0.00    +0.000 A 
ATOM     12  N   UNL     1      -7.808  15.643  22.764  0.00  0.00    +0.000 NA
ATOM     13  C   UNL     1      -7.198  16.323  21.747  0.00  0.00    +0.000 A 
ATOM     14  C   UNL     1      -7.573  17.551  21.174  0.00  0.00    +0.000 A 
ATOM     15  C   UNL     1      -6.877  18.033  20.063  0.00  0.00    +0.000 A 
ATOM     16  C   UNL     1      -5.821  17.306  19.534  0.00  0.00    +0.000 A 
ATOM     17  C   UNL     1      -5.431  16.087  20.097  0.00  0.00    +0.000 A 
ATOM     18  C   UNL     1      -6.124  15.600  21.222  0.00  0.00    +0.000 A 
ATOM     19  N   UNL     1      -6.077  14.457  22.013  0.00  0.00    +0.000 N 
ATOM     20  H   UNL     1      -6.104  11.197  21.527  0.00  0.00    +0.000 HD
ATOM     21  H   UNL     1      -7.065  10.512  23.644  0.00  0.00    +0.000 HD
ATOM     22  H   UNL     1      -8.489  11.239  23.919  0.00  0.00    +0.000 HD
ENDROOT
BRANCH   1  23
ATOM     23  C   UNL     1      -1.525  12.183  22.193  0.00  0.00    +0.000 A 
ATOM     24  C   UNL     1      -1.030  11.760  20.929  0.00  0.00    +0.000 A 
ATOM     25  C   UNL     1      -0.428  10.514  20.739  0.00  0.00    +0.000 A 
ATOM     26  C   UNL     1      -0.275   9.655  21.813  0.00  0.00    +0.000 A 
ATOM     27  C   UNL     1      -0.744  10.037  23.067  0.00  0.00    +0.000 A 
ATOM     28  C   UNL     1      -1.384  11.273  23.250  0.00  0.00    +0.000 A 
ENDBRANCH   1  23
BRANCH   1  30
ATOM     29  N   UNL     1      -0.751  14.922  24.347  0.00  0.00    +0.000 NA
ATOM     30  C   UNL     1      -1.393  14.324  23.441  0.00  0.00    +0.000 C 
ENDBRANCH   1  30
TORSDOF 2
ENDMDL
MODEL 7
REMARK VINA RESULT:      -6.4      1.932      2.820
REMARK  Name = 
REMARK  2 active torsions:
REMARK  status: ('A' for Active; 'I' for Inactive)
REMARK    1  A    between atoms: C_2  and  C_3
REMARK    2  A    between atoms: C_3  and  C_4
REMARK                            x       y       z     vdW  Elec       q    Type
REMARK                         _______ _______ _______ _____ _____    ______ ____
ROOT
ATOM      1  C   UNL     1       0.700  16.471  19.889  0.00  0.00    +0.000 C 
ATOM      2  C   UNL     1      -0.650  15.756  20.061  0.00  0.00    +0.000 C 
ATOM      3  C   UNL     1      -0.848  14.442  19.103  0.00  0.00    +0.000 C 
ATOM      4  C   UNL     1       0.162  13.290  19.379  0.00  0.00    +0.000 C 
ATOM      5  C   UNL     1       1.525  13.998  19.172  0.00  0.00    +0.000 C 
ATOM      6  C   UNL     1       1.719  15.190  20.044  0.00  0.00    +0.000 C 
ATOM      7  N   UNL     1       0.256  12.219  18.352  0.00  0.00    +0.000 N 
ATOM      8  C   UNL     1       1.144  11.225  18.724  0.00  0.00    +0.000 C 
ATOM      9  N   UNL     1       1.914  10.739  17.725  0.00  0.00    +0.000 N 
ATOM     10  N   UNL     1       1.380  10.833  19.941  0.00  0.00    +0.000 NA
ATOM     11  C   UNL     1       0.584  11.390  20.881  0.00  0.00    +0.000 A 
ATOM     12  N   UNL     1       0.221  10.873  22.028  0.00  0.00    +0.000 NA
ATOM     13  C   UNL     1      -0.911  11.549  22.388  0.00  0.00    +0.000 A 
ATOM     14  C   UNL     1      -1.823  11.236  23.411  0.00  0.00    +0.000 A 
ATOM     15  C   UNL     1      -2.985  11.998  23.554  0.00  0.00    +0.000 A 
ATOM     16  C   UNL     1      -3.232  13.059  22.696  0.00  0.00    +0.000 A 
ATOM     17  C   UNL     1      -2.330  13.389  21.679  0.00  0.00    +0.000 A 
ATOM     18  C   UNL     1      -1.154  12.629  21.534  0.00  0.00    +0.000 A 
ATOM     19  N   UNL     1      -0.074  12.607  20.659  0.00  0.00    +0.000 N 
ATOM     20  H   UNL     1       0.368  12.518  17.394  0.00  0.00    +0.000 HD
ATOM     21  H   UNL     1       2.537  11.436  17.340  0.00  0.00    +0.000 HD
ATOM     22  H   UNL     1       2.520  10.020  18.132  0.00  0.00    +0.000 HD
ENDROOT
BRANCH   1  23
ATOM     23  C   UNL     1       0.981  17.083  18.474  0.00  0.00    +0.000 A 
ATOM     24  C   UNL     1      -0.037  17.805  17.794  0.00  0.00    +0.000 A 
ATOM     25  C   UNL     1       0.167  18.390  16.542  0.00  0.00    +0.000 A 
ATOM     26  C   UNL     1       1.408  18.296  15.935  0.00  0.00    +0.000 A 
ATOM     27  C   UNL     1       2.430  17.600  16.573  0.00  0.00    +0.000 A 
ATOM     28  C   UNL     1       2.214  16.979  17.813  0.00  0.00    +0.000 A 
ENDBRANCH   1  23
BRANCH   1  30
ATOM     29  N   UNL     1       2.325  17.822  21.698  0.00  0.00    +0.000 NA
ATOM     30  C   UNL     1       1.588  17.210  20.877  0.00  0.00    +0.000 C 
ENDBRANCH   1  30
TORSDOF 2
ENDMDL
MODEL 8
REMARK VINA RESULT:      -6.4      2.203      6.829
REMARK  Name = 
REMARK  2 active torsions:
REMARK  status: ('A' for Active; 'I' for Inactive)
REMARK    1  A    between atoms: C_2  and  C_3
REMARK    2  A    between atoms: C_3  and  C_4
REMARK                            x       y       z     vdW  Elec       q    Type
REMARK                         _______ _______ _______ _____ _____    ______ ____
ROOT
ATOM      1  C   UNL     1      -0.133  11.172  19.607  0.00  0.00    +0.000 C 
ATOM      2  C   UNL     1       0.236  11.994  20.852  0.00  0.00    +0.000 C 
ATOM      3  C   UNL     1       1.725  12.675  20.798  0.00  0.00    +0.000 C 
ATOM      4  C   UNL     1       1.911  13.719  19.658  0.00  0.00    +0.000 C 
ATOM      5  C   UNL     1       1.575  12.884  18.397  0.00  0.00    +0.000 C 
ATOM      6  C   UNL     1       0.219  12.267  18.432  0.00  0.00    +0.000 C 
ATOM      7  N   UNL     1       3.305  14.130  19.345  0.00  0.00    +0.000 N 
ATOM      8  C   UNL     1       3.348  15.095  18.354  0.00  0.00    +0.000 C 
ATOM      9  N   UNL     1       4.350  14.954  17.458  0.00  0.00    +0.000 N 
ATOM     10  N   UNL     1       2.452  16.014  18.149  0.00  0.00    +0.000 NA
ATOM     11  C   UNL     1       1.471  16.067  19.079  0.00  0.00    +0.000 A 
ATOM     12  N   UNL     1       0.773  17.113  19.443  0.00  0.00    +0.000 NA
ATOM     13  C   UNL     1       0.280  16.806  20.680  0.00  0.00    +0.000 A 
ATOM     14  C   UNL     1      -0.338  17.664  21.608  0.00  0.00    +0.000 A 
ATOM     15  C   UNL     1      -0.681  17.178  22.871  0.00  0.00    +0.000 A 
ATOM     16  C   UNL     1      -0.417  15.858  23.205  0.00  0.00    +0.000 A 
ATOM     17  C   UNL     1       0.190  14.990  22.292  0.00  0.00    +0.000 A 
ATOM     18  C   UNL     1       0.531  15.472  21.013  0.00  0.00    +0.000 A 
ATOM     19  N   UNL     1       1.161  14.963  19.883  0.00  0.00    +0.000 N 
ATOM     20  H   UNL     1       3.978  13.388  19.211  0.00  0.00    +0.000 HD
ATOM     21  H   UNL     1       4.267  14.105  16.913  0.00  0.00    +0.000 HD
ATOM     22  H   UNL     1       4.266  15.723  16.786  0.00  0.00    +0.000 HD
ENDROOT
BRANCH   1  23
ATOM     23  C   UNL     1       0.762   9.919  19.318  0.00  0.00    +0.000 A 
ATOM     24  C   UNL     1       1.078   9.011  20.365  0.00  0.00    +0.000 A 
ATOM     25  C   UNL     1       1.852   7.867  20.158  0.00  0.00    +0.000 A 
ATOM     26  C   UNL     1       2.318   7.575  18.888  0.00  0.00    +0.000 A 
ATOM     27  C   UNL     1       2.026   8.440  17.837  0.00  0.00    +0.000 A 
ATOM     28  C   UNL     1       1.281   9.609  18.052  0.00  0.00    +0.000 A 
ENDBRANCH   1  23
BRANCH   1  30
ATOM     29  N   UNL     1      -2.560  10.754  18.315  0.00  0.00    +0.000 NA
ATOM     30  C   UNL     1      -1.460  10.943  18.901  0.00  0.00    +0.000 C 
ENDBRANCH   1  30
TORSDOF 2
ENDMDL
MODEL 9
REMARK VINA RESULT:      -6.3      3.222      5.414
REMARK  Name = 
REMARK  2 active torsions:
REMARK  status: ('A' for Active; 'I' for Inactive)
REMARK    1  A    between atoms: C_2  and  C_3
REMARK    2  A    between atoms: C_3  and  C_4
REMARK                            x       y       z     vdW  Elec       q    Type
REMARK                         _______ _______ _______ _____ _____    ______ ____
ROOT
ATOM      1  C   UNL     1      -3.700  13.775  22.930  0.00  0.00    +0.000 C 
ATOM      2  C   UNL     1      -3.575  13.681  21.400  0.00  0.00    +0.000 C 
ATOM      3  C   UNL     1      -2.315  14.516  20.770  0.00  0.00    +0.000 C 
ATOM      4  C   UNL     1      -0.916  14.015  21.237  0.00  0.00    +0.000 C 
ATOM      5  C   UNL     1      -1.025  14.141  22.777  0.00  0.00    +0.000 C 
ATOM      6  C   UNL     1      -2.164  13.379  23.362  0.00  0.00    +0.000 C 
ATOM      7  N   UNL     1       0.241  14.910  20.974  0.00  0.00    +0.000 N 
ATOM      8  C   UNL     1       1.435  14.343  21.383  0.00  0.00    +0.000 C 
ATOM      9  N   UNL     1       2.306  15.198  21.966  0.00  0.00    +0.000 N 
ATOM     10  N   UNL     1       1.717  13.074  21.373  0.00  0.00    +0.000 NA
ATOM     11  C   UNL     1       0.779  12.290  20.796  0.00  0.00    +0.000 A 
ATOM     12  N   UNL     1       0.960  11.144  20.190  0.00  0.00    +0.000 NA
ATOM     13  C   UNL     1      -0.134  10.980  19.388  0.00  0.00    +0.000 A 
ATOM     14  C   UNL     1      -0.329  10.038  18.363  0.00  0.00    +0.000 A 
ATOM     15  C   UNL     1      -1.483  10.102  17.580  0.00  0.00    +0.000 A 
ATOM     16  C   UNL     1      -2.432  11.086  17.817  0.00  0.00    +0.000 A 
ATOM     17  C   UNL     1      -2.257  12.025  18.837  0.00  0.00    +0.000 A 
ATOM     18  C   UNL     1      -1.099  11.961  19.635  0.00  0.00    +0.000 A 
ATOM     19  N   UNL     1      -0.553  12.706  20.675  0.00  0.00    +0.000 N 
ATOM     20  H   UNL     1       0.139  15.876  21.252  0.00  0.00    +0.000 HD
ATOM     21  H   UNL     1       1.953  15.580  22.834  0.00  0.00    +0.000 HD
ATOM     22  H   UNL     1       3.137  14.655  22.221  0.00  0.00    +0.000 HD
ENDROOT
BRANCH   1  23
ATOM     23  C   UNL     1      -3.962  15.205  23.513  0.00  0.00    +0.000 A 
ATOM     24  C   UNL     1      -4.822  16.107  22.831  0.00  0.00    +0.000 A 
ATOM     25  C   UNL     1      -5.109  17.385  23.318  0.00  0.00    +0.000 A 
ATOM     26  C   UNL     1      -4.564  17.797  24.522  0.00  0.00    +0.000 A 
ATOM     27  C   UNL     1      -3.719  16.939  25.221  0.00  0.00    +0.000 A 
ATOM     28  C   UNL     1      -3.401  15.670  24.712  0.00  0.00    +0.000 A 
ENDBRANCH   1  23
BRANCH   1  30
ATOM     29  N   UNL     1      -4.574  11.945  24.833  0.00  0.00    +0.000 NA
ATOM     30  C   UNL     1      -4.178  12.775  23.970  0.00  0.00    +0.000 C 
ENDBRANCH   1  30
TORSDOF 2
ENDMDL
