MODEL 1
REMARK VINA RESULT:      -7.7      0.000      0.000
REMARK  Name = 
REMARK  6 active torsions:
REMARK  status: ('A' for Active; 'I' for Inactive)
REMARK    1  A    between atoms: C_1  and  C_2
REMARK    2  A    between atoms: C_2  and  C_3
REMARK    3  A    between atoms: C_7  and  N_8
REMARK    4  A    between atoms: C_13  and  C_14
REMARK    5  A    between atoms: C_14  and  O_15
REMARK    6  A    between atoms: C_17  and  C_18
REMARK                            x       y       z     vdW  Elec       q    Type
REMARK                         _______ _______ _______ _____ _____    ______ ____
ROOT
ATOM      1  N   UNL     1       3.725   5.103  19.271  0.00  0.00    +0.000 N 
ATOM      2  C   UNL     1       5.127   5.568  19.418  0.00  0.00    +0.000 C 
ATOM      3  C   UNL     1       5.714   5.203  18.088  0.00  0.00    +0.000 A 
ATOM      4  C   UNL     1       4.993   4.105  17.611  0.00  0.00    +0.000 A 
ATOM      5  C   UNL     1       5.126   3.613  16.326  0.00  0.00    +0.000 A 
ATOM      6  C   UNL     1       6.017   4.270  15.473  0.00  0.00    +0.000 A 
ATOM      7  C   UNL     1       6.757   5.383  15.950  0.00  0.00    +0.000 A 
ATOM      8  C   UNL     1       6.611   5.878  17.265  0.00  0.00    +0.000 A 
ATOM      9  C   UNL     1       3.792   3.938  18.467  0.00  0.00    +0.000 C 
ATOM     10  O   UNL     1       2.954   3.075  18.294  0.00  0.00    +0.000 OA
ENDROOT
BRANCH   1  15
ATOM     11  C   UNL     1       1.899   8.275  19.466  0.00  0.00    +0.000 A 
ATOM     12  C   UNL     1       2.404   8.874  18.299  0.00  0.00    +0.000 A 
ATOM     13  C   UNL     1       2.995   8.111  17.298  0.00  0.00    +0.000 A 
ATOM     14  C   UNL     1       3.188   6.748  17.499  0.00  0.00    +0.000 A 
ATOM     15  C   UNL     1       2.898   6.180  18.749  0.00  0.00    +0.000 A 
ATOM     16  C   UNL     1       2.132   6.906  19.660  0.00  0.00    +0.000 A 
BRANCH  11  18
ATOM     17  C   UNL     1       1.182   8.498  21.898  0.00  0.00    +0.000 C 
ATOM     18  C   UNL     1       1.178   9.091  20.515  0.00  0.00    +0.000 C 
ATOM     19  C   UNL     1       0.760  10.395  20.120  0.00  0.00    +0.000 C 
ATOM     20  N   UNL     1      -0.187   9.587  20.126  0.00  0.00    +0.000 NA
ENDBRANCH  11  18
ENDBRANCH   1  15
BRANCH   8  21
ATOM     21  C   UNL     1       7.312   7.158  17.647  0.00  0.00    +0.000 C 
ATOM     22  F   UNL     1       8.051   7.074  18.786  0.00  0.00    +0.000 F 
ATOM     23  F   UNL     1       8.172   7.585  16.682  0.00  0.00    +0.000 F 
ATOM     24  F   UNL     1       6.441   8.186  17.853  0.00  0.00    +0.000 F 
ENDBRANCH   8  21
BRANCH   6  25
ATOM     25  C   UNL     1       6.123   3.861  14.027  0.00  0.00    +0.000 C 
BRANCH  25  26
ATOM     26  O   UNL     1       7.094   4.661  13.367  0.00  0.00    +0.000 OA
ATOM     27  H   UNL     1       6.910   5.588  13.597  0.00  0.00    +0.000 HD
ENDBRANCH  25  26
ENDBRANCH   6  25
TORSDOF 5
ENDMDL
MODEL 2
REMARK VINA RESULT:      -7.7      0.544      1.169
REMARK  Name = 
REMARK  6 active torsions:
REMARK  status: ('A' for Active; 'I' for Inactive)
REMARK    1  A    between atoms: C_1  and  C_2
REMARK    2  A    between atoms: C_2  and  C_3
REMARK    3  A    between atoms: C_7  and  N_8
REMARK    4  A    between atoms: C_13  and  C_14
REMARK    5  A    between atoms: C_14  and  O_15
REMARK    6  A    between atoms: C_17  and  C_18
REMARK                            x       y       z     vdW  Elec       q    Type
REMARK                         _______ _______ _______ _____ _____    ______ ____
ROOT
ATOM      1  N   UNL     1       3.793   5.066  19.249  0.00  0.00    +0.000 N 
ATOM      2  C   UNL     1       5.191   5.546  19.392  0.00  0.00    +0.000 C 
ATOM      3  C   UNL     1       5.777   5.191  18.059  0.00  0.00    +0.000 A 
ATOM      4  C   UNL     1       5.067   4.087  17.582  0.00  0.00    +0.000 A 
ATOM      5  C   UNL     1       5.200   3.598  16.295  0.00  0.00    +0.000 A 
ATOM      6  C   UNL     1       6.081   4.268  15.441  0.00  0.00    +0.000 A 
ATOM      7  C   UNL     1       6.810   5.388  15.918  0.00  0.00    +0.000 A 
ATOM      8  C   UNL     1       6.663   5.878  17.235  0.00  0.00    +0.000 A 
ATOM      9  C   UNL     1       3.871   3.904  18.442  0.00  0.00    +0.000 C 
ATOM     10  O   UNL     1       3.041   3.032  18.270  0.00  0.00    +0.000 OA
ENDROOT
BRANCH   1  15
ATOM     11  C   UNL     1       1.823   8.147  19.493  0.00  0.00    +0.000 A 
ATOM     12  C   UNL     1       2.369   8.827  18.390  0.00  0.00    +0.000 A 
ATOM     13  C   UNL     1       3.051   8.142  17.390  0.00  0.00    +0.000 A 
ATOM     14  C   UNL     1       3.290   6.780  17.533  0.00  0.00    +0.000 A 
ATOM     15  C   UNL     1       2.953   6.135  18.733  0.00  0.00    +0.000 A 
ATOM     16  C   UNL     1       2.104   6.781  19.631  0.00  0.00    +0.000 A 
BRANCH  11  18
ATOM     17  C   UNL     1       0.536  10.248  20.132  0.00  0.00    +0.000 C 
ATOM     18  C   UNL     1       1.008   8.877  20.536  0.00  0.00    +0.000 C 
ATOM     19  C   UNL     1       0.622   8.117  21.678  0.00  0.00    +0.000 C 
ATOM     20  N   UNL     1       1.580   8.872  21.927  0.00  0.00    +0.000 NA
ENDBRANCH  11  18
ENDBRANCH   1  15
BRANCH   8  21
ATOM     21  C   UNL     1       7.352   7.165  17.617  0.00  0.00    +0.000 C 
ATOM     22  F   UNL     1       8.217   7.636  16.679  0.00  0.00    +0.000 F 
ATOM     23  F   UNL     1       6.470   8.176  17.846  0.00  0.00    +0.000 F 
ATOM     24  F   UNL     1       8.085   7.042  18.760  0.00  0.00    +0.000 F 
ENDBRANCH   8  21
BRANCH   6  25
ATOM     25  C   UNL     1       6.185   3.863  13.993  0.00  0.00    +0.000 C 
BRANCH  25  26
ATOM     26  O   UNL     1       7.119   4.699  13.324  0.00  0.00    +0.000 OA
ATOM     27  H   UNL     1       7.311   4.288  12.463  0.00  0.00    +0.000 HD
ENDBRANCH  25  26
ENDBRANCH   6  25
TORSDOF 5
ENDMDL
MODEL 3
REMARK VINA RESULT:      -7.3      3.315      4.305
REMARK  Name = 
REMARK  6 active torsions:
REMARK  status: ('A' for Active; 'I' for Inactive)
REMARK    1  A    between atoms: C_1  and  C_2
REMARK    2  A    between atoms: C_2  and  C_3
REMARK    3  A    between atoms: C_7  and  N_8
REMARK    4  A    between atoms: C_13  and  C_14
REMARK    5  A    between atoms: C_14  and  O_15
REMARK    6  A    between atoms: C_17  and  C_18
REMARK                            x       y       z     vdW  Elec       q    Type
REMARK                         _______ _______ _______ _____ _____    ______ ____
ROOT
ATOM      1  N   UNL     1       2.209   6.944  17.996  0.00  0.00    +0.000 N 
ATOM      2  C   UNL     1       2.149   5.468  18.153  0.00  0.00    +0.000 C 
ATOM      3  C   UNL     1       3.591   5.123  18.373  0.00  0.00    +0.000 A 
ATOM      4  C   UNL     1       4.348   6.102  17.725  0.00  0.00    +0.000 A 
ATOM      5  C   UNL     1       5.718   6.219  17.870  0.00  0.00    +0.000 A 
ATOM      6  C   UNL     1       6.354   5.315  18.726  0.00  0.00    +0.000 A 
ATOM      7  C   UNL     1       5.594   4.315  19.384  0.00  0.00    +0.000 A 
ATOM      8  C   UNL     1       4.194   4.206  19.229  0.00  0.00    +0.000 A 
ATOM      9  C   UNL     1       3.436   7.207  17.338  0.00  0.00    +0.000 C 
ATOM     10  O   UNL     1       3.801   8.218  16.770  0.00  0.00    +0.000 OA
ENDROOT
BRANCH   1  15
ATOM     11  C   UNL     1       0.849   9.448  20.301  0.00  0.00    +0.000 A 
ATOM     12  C   UNL     1       0.434   8.579  21.326  0.00  0.00    +0.000 A 
ATOM     13  C   UNL     1       0.944   7.290  21.424  0.00  0.00    +0.000 A 
ATOM     14  C   UNL     1       1.798   6.813  20.435  0.00  0.00    +0.000 A 
ATOM     15  C   UNL     1       2.038   7.586  19.289  0.00  0.00    +0.000 A 
ATOM     16  C   UNL     1       1.685   8.935  19.299  0.00  0.00    +0.000 A 
BRANCH  11  18
ATOM     17  C   UNL     1       0.114  11.411  18.857  0.00  0.00    +0.000 C 
ATOM     18  C   UNL     1       0.362  10.877  20.242  0.00  0.00    +0.000 C 
ATOM     19  C   UNL     1       0.011  11.474  21.488  0.00  0.00    +0.000 C 
ATOM     20  N   UNL     1       1.125  11.859  21.088  0.00  0.00    +0.000 NA
ENDBRANCH  11  18
ENDBRANCH   1  15
BRANCH   8  21
ATOM     21  C   UNL     1       3.437   3.220  20.083  0.00  0.00    +0.000 C 
ATOM     22  F   UNL     1       2.698   3.789  21.074  0.00  0.00    +0.000 F 
ATOM     23  F   UNL     1       2.564   2.468  19.358  0.00  0.00    +0.000 F 
ATOM     24  F   UNL     1       4.264   2.334  20.708  0.00  0.00    +0.000 F 
ENDBRANCH   8  21
BRANCH   6  25
ATOM     25  C   UNL     1       7.824   5.460  19.023  0.00  0.00    +0.000 C 
BRANCH  25  26
ATOM     26  O   UNL     1       8.035   5.475  20.428  0.00  0.00    +0.000 OA
ATOM     27  H   UNL     1       7.563   6.248  20.784  0.00  0.00    +0.000 HD
ENDBRANCH  25  26
ENDBRANCH   6  25
TORSDOF 5
ENDMDL
MODEL 4
REMARK VINA RESULT:      -7.1      7.132      9.543
REMARK  Name = 
REMARK  6 active torsions:
REMARK  status: ('A' for Active; 'I' for Inactive)
REMARK    1  A    between atoms: C_1  and  C_2
REMARK    2  A    between atoms: C_2  and  C_3
REMARK    3  A    between atoms: C_7  and  N_8
REMARK    4  A    between atoms: C_13  and  C_14
REMARK    5  A    between atoms: C_14  and  O_15
REMARK    6  A    between atoms: C_17  and  C_18
REMARK                            x       y       z     vdW  Elec       q    Type
REMARK                         _______ _______ _______ _____ _____    ______ ____
ROOT
ATOM      1  N   UNL     1      -0.158  11.314  18.438  0.00  0.00    +0.000 N 
ATOM      2  C   UNL     1       0.585  10.534  19.459  0.00  0.00    +0.000 C 
ATOM      3  C   UNL     1       0.151  11.198  20.731  0.00  0.00    +0.000 A 
ATOM      4  C   UNL     1      -0.163  12.522  20.413  0.00  0.00    +0.000 A 
ATOM      5  C   UNL     1      -0.783  13.386  21.297  0.00  0.00    +0.000 A 
ATOM      6  C   UNL     1      -1.117  12.885  22.559  0.00  0.00    +0.000 A 
ATOM      7  C   UNL     1      -0.797  11.544  22.891  0.00  0.00    +0.000 A 
ATOM      8  C   UNL     1      -0.166  10.670  21.979  0.00  0.00    +0.000 A 
ATOM      9  C   UNL     1      -0.207  12.641  18.934  0.00  0.00    +0.000 C 
ATOM     10  O   UNL     1      -0.475  13.671  18.347  0.00  0.00    +0.000 OA
ENDROOT
BRANCH   1  15
ATOM     11  C   UNL     1      -3.807  11.258  18.108  0.00  0.00    +0.000 A 
ATOM     12  C   UNL     1      -3.891  10.601  16.867  0.00  0.00    +0.000 A 
ATOM     13  C   UNL     1      -2.821   9.862  16.373  0.00  0.00    +0.000 A 
ATOM     14  C   UNL     1      -1.614   9.857  17.063  0.00  0.00    +0.000 A 
ATOM     15  C   UNL     1      -1.446  10.691  18.179  0.00  0.00    +0.000 A 
ATOM     16  C   UNL     1      -2.571  11.265  18.769  0.00  0.00    +0.000 A 
BRANCH  11  18
ATOM     17  C   UNL     1      -4.706  12.807  19.915  0.00  0.00    +0.000 C 
ATOM     18  C   UNL     1      -4.997  11.989  18.686  0.00  0.00    +0.000 C 
ATOM     19  C   UNL     1      -6.186  11.977  17.900  0.00  0.00    +0.000 C 
ATOM     20  N   UNL     1      -6.248  11.170  18.845  0.00  0.00    +0.000 NA
ENDBRANCH  11  18
ENDBRANCH   1  15
BRANCH   8  21
ATOM     21  C   UNL     1      -0.003   9.217  22.350  0.00  0.00    +0.000 C 
ATOM     22  F   UNL     1       1.240   8.716  22.119  0.00  0.00    +0.000 F 
ATOM     23  F   UNL     1      -0.253   8.989  23.669  0.00  0.00    +0.000 F 
ATOM     24  F   UNL     1      -0.857   8.407  21.663  0.00  0.00    +0.000 F 
ENDBRANCH   8  21
BRANCH   6  25
ATOM     25  C   UNL     1      -1.899  13.735  23.526  0.00  0.00    +0.000 C 
BRANCH  25  26
ATOM     26  O   UNL     1      -1.010  14.538  24.292  0.00  0.00    +0.000 OA
ATOM     27  H   UNL     1      -1.424  15.412  24.394  0.00  0.00    +0.000 HD
ENDBRANCH  25  26
ENDBRANCH   6  25
TORSDOF 5
ENDMDL
MODEL 5
REMARK VINA RESULT:      -7.0      5.994      8.833
REMARK  Name = 
REMARK  6 active torsions:
REMARK  status: ('A' for Active; 'I' for Inactive)
REMARK    1  A    between atoms: C_1  and  C_2
REMARK    2  A    between atoms: C_2  and  C_3
REMARK    3  A    between atoms: C_7  and  N_8
REMARK    4  A    between atoms: C_13  and  C_14
REMARK    5  A    between atoms: C_14  and  O_15
REMARK    6  A    between atoms: C_17  and  C_18
REMARK                            x       y       z     vdW  Elec       q    Type
REMARK                         _______ _______ _______ _____ _____    ______ ____
ROOT
ATOM      1  N   UNL     1      -1.490  12.582  18.520  0.00  0.00    +0.000 N 
ATOM      2  C   UNL     1      -0.100  12.137  18.252  0.00  0.00    +0.000 C 
ATOM      3  C   UNL     1       0.202  11.319  19.472  0.00  0.00    +0.000 A 
ATOM      4  C   UNL     1      -0.576  11.834  20.511  0.00  0.00    +0.000 A 
ATOM      5  C   UNL     1      -0.705  11.213  21.740  0.00  0.00    +0.000 A 
ATOM      6  C   UNL     1      -0.029  10.003  21.924  0.00  0.00    +0.000 A 
ATOM      7  C   UNL     1       0.768   9.476  20.875  0.00  0.00    +0.000 A 
ATOM      8  C   UNL     1       0.891  10.120  19.624  0.00  0.00    +0.000 A 
ATOM      9  C   UNL     1      -1.566  12.770  19.923  0.00  0.00    +0.000 C 
ATOM     10  O   UNL     1      -2.402  13.367  20.574  0.00  0.00    +0.000 OA
ENDROOT
BRANCH   1  15
ATOM     11  C   UNL     1      -4.812  11.395  17.524  0.00  0.00    +0.000 A 
ATOM     12  C   UNL     1      -4.494  10.964  16.224  0.00  0.00    +0.000 A 
ATOM     13  C   UNL     1      -3.178  10.707  15.854  0.00  0.00    +0.000 A 
ATOM     14  C   UNL     1      -2.149  10.981  16.749  0.00  0.00    +0.000 A 
ATOM     15  C   UNL     1      -2.433  11.626  17.963  0.00  0.00    +0.000 A 
ATOM     16  C   UNL     1      -3.756  11.694  18.397  0.00  0.00    +0.000 A 
BRANCH  11  18
ATOM     17  C   UNL     1      -6.935  12.787  17.352  0.00  0.00    +0.000 C 
ATOM     18  C   UNL     1      -6.247  11.591  17.953  0.00  0.00    +0.000 C 
ATOM     19  C   UNL     1      -6.830  10.530  18.705  0.00  0.00    +0.000 C 
ATOM     20  N   UNL     1      -6.503  11.487  19.431  0.00  0.00    +0.000 NA
ENDBRANCH  11  18
ENDBRANCH   1  15
BRANCH   8  21
ATOM     21  C   UNL     1       1.626   9.418  18.509  0.00  0.00    +0.000 C 
ATOM     22  F   UNL     1       0.825   8.968  17.506  0.00  0.00    +0.000 F 
ATOM     23  F   UNL     1       2.550  10.219  17.911  0.00  0.00    +0.000 F 
ATOM     24  F   UNL     1       2.310   8.323  18.948  0.00  0.00    +0.000 F 
ENDBRANCH   8  21
BRANCH   6  25
ATOM     25  C   UNL     1      -0.220   9.215  23.193  0.00  0.00    +0.000 C 
BRANCH  25  26
ATOM     26  O   UNL     1       0.773   9.578  24.142  0.00  0.00    +0.000 OA
ATOM     27  H   UNL     1       0.395  10.278  24.704  0.00  0.00    +0.000 HD
ENDBRANCH  25  26
ENDBRANCH   6  25
TORSDOF 5
ENDMDL
MODEL 6
REMARK VINA RESULT:      -6.9      6.406      9.217
REMARK  Name = 
REMARK  6 active torsions:
REMARK  status: ('A' for Active; 'I' for Inactive)
REMARK    1  A    between atoms: C_1  and  C_2
REMARK    2  A    between atoms: C_2  and  C_3
REMARK    3  A    between atoms: C_7  and  N_8
REMARK    4  A    between atoms: C_13  and  C_14
REMARK    5  A    between atoms: C_14  and  O_15
REMARK    6  A    between atoms: C_17  and  C_18
REMARK                            x       y       z     vdW  Elec       q    Type
REMARK                         _______ _______ _______ _____ _____    ______ ____
ROOT
ATOM      1  N   UNL     1      -0.361  13.256  20.485  0.00  0.00    +0.000 N 
ATOM      2  C   UNL     1       0.214  11.887  20.512  0.00  0.00    +0.000 C 
ATOM      3  C   UNL     1      -0.601  11.190  19.465  0.00  0.00    +0.000 A 
ATOM      4  C   UNL     1      -1.842  11.831  19.421  0.00  0.00    +0.000 A 
ATOM      5  C   UNL     1      -2.787  11.585  18.441  0.00  0.00    +0.000 A 
ATOM      6  C   UNL     1      -2.457  10.658  17.447  0.00  0.00    +0.000 A 
ATOM      7  C   UNL     1      -1.202   9.999  17.488  0.00  0.00    +0.000 A 
ATOM      8  C   UNL     1      -0.244  10.261  18.493  0.00  0.00    +0.000 A 
ATOM      9  C   UNL     1      -1.740  13.085  20.208  0.00  0.00    +0.000 C 
ATOM     10  O   UNL     1      -2.654  13.875  20.344  0.00  0.00    +0.000 OA
ENDROOT
BRANCH   1  15
ATOM     11  C   UNL     1       0.370  16.343  18.649  0.00  0.00    +0.000 A 
ATOM     12  C   UNL     1       1.755  16.400  18.886  0.00  0.00    +0.000 A 
ATOM     13  C   UNL     1       2.462  15.269  19.281  0.00  0.00    +0.000 A 
ATOM     14  C   UNL     1       1.776  14.090  19.549  0.00  0.00    +0.000 A 
ATOM     15  C   UNL     1       0.372  14.082  19.539  0.00  0.00    +0.000 A 
ATOM     16  C   UNL     1      -0.304  15.153  18.956  0.00  0.00    +0.000 A 
BRANCH  11  18
ATOM     17  C   UNL     1       0.247  18.245  16.963  0.00  0.00    +0.000 C 
ATOM     18  C   UNL     1      -0.385  17.548  18.137  0.00  0.00    +0.000 C 
ATOM     19  C   UNL     1      -1.682  17.759  18.689  0.00  0.00    +0.000 C 
ATOM     20  N   UNL     1      -0.837  18.525  19.187  0.00  0.00    +0.000 NA
ENDBRANCH  11  18
ENDBRANCH   1  15
BRANCH   8  21
ATOM     21  C   UNL     1       1.126   9.640  18.378  0.00  0.00    +0.000 C 
ATOM     22  F   UNL     1       2.112  10.515  18.043  0.00  0.00    +0.000 F 
ATOM     23  F   UNL     1       1.530   9.057  19.539  0.00  0.00    +0.000 F 
ATOM     24  F   UNL     1       1.173   8.659  17.432  0.00  0.00    +0.000 F 
ENDBRANCH   8  21
BRANCH   6  25
ATOM     25  C   UNL     1      -3.390  10.431  16.286  0.00  0.00    +0.000 C 
BRANCH  25  26
ATOM     26  O   UNL     1      -3.260  11.489  15.347  0.00  0.00    +0.000 OA
ATOM     27  H   UNL     1      -4.155  11.818  15.155  0.00  0.00    +0.000 HD
ENDBRANCH  25  26
ENDBRANCH   6  25
TORSDOF 5
ENDMDL
MODEL 7
REMARK VINA RESULT:      -6.9      6.044      8.887
REMARK  Name = 
REMARK  6 active torsions:
REMARK  status: ('A' for Active; 'I' for Inactive)
REMARK    1  A    between atoms: C_1  and  C_2
REMARK    2  A    between atoms: C_2  and  C_3
REMARK    3  A    between atoms: C_7  and  N_8
REMARK    4  A    between atoms: C_13  and  C_14
REMARK    5  A    between atoms: C_14  and  O_15
REMARK    6  A    between atoms: C_17  and  C_18
REMARK                            x       y       z     vdW  Elec       q    Type
REMARK                         _______ _______ _______ _____ _____    ______ ____
ROOT
ATOM      1  N   UNL     1      -1.492  12.676  18.635  0.00  0.00    +0.000 N 
ATOM      2  C   UNL     1      -0.119  12.197  18.335  0.00  0.00    +0.000 C 
ATOM      3  C   UNL     1       0.183  11.358  19.540  0.00  0.00    +0.000 A 
ATOM      4  C   UNL     1      -0.561  11.881  20.600  0.00  0.00    +0.000 A 
ATOM      5  C   UNL     1      -0.684  11.250  21.824  0.00  0.00    +0.000 A 
ATOM      6  C   UNL     1      -0.037  10.020  21.981  0.00  0.00    +0.000 A 
ATOM      7  C   UNL     1       0.725   9.484  20.912  0.00  0.00    +0.000 A 
ATOM      8  C   UNL     1       0.841  10.138  19.665  0.00  0.00    +0.000 A 
ATOM      9  C   UNL     1      -1.536  12.850  20.041  0.00  0.00    +0.000 C 
ATOM     10  O   UNL     1      -2.343  13.462  20.714  0.00  0.00    +0.000 OA
ENDROOT
BRANCH   1  15
ATOM     11  C   UNL     1      -4.877  11.512  17.847  0.00  0.00    +0.000 A 
ATOM     12  C   UNL     1      -4.675  11.200  16.490  0.00  0.00    +0.000 A 
ATOM     13  C   UNL     1      -3.396  11.001  15.982  0.00  0.00    +0.000 A 
ATOM     14  C   UNL     1      -2.292  11.219  16.799  0.00  0.00    +0.000 A 
ATOM     15  C   UNL     1      -2.471  11.752  18.085  0.00  0.00    +0.000 A 
ATOM     16  C   UNL     1      -3.749  11.757  18.642  0.00  0.00    +0.000 A 
BRANCH  11  18
ATOM     17  C   UNL     1      -6.910  10.347  18.840  0.00  0.00    +0.000 C 
ATOM     18  C   UNL     1      -6.269  11.642  18.420  0.00  0.00    +0.000 C 
ATOM     19  C   UNL     1      -6.723  12.969  18.674  0.00  0.00    +0.000 C 
ATOM     20  N   UNL     1      -7.218  12.503  17.631  0.00  0.00    +0.000 NA
ENDBRANCH  11  18
ENDBRANCH   1  15
BRANCH   8  21
ATOM     21  C   UNL     1       1.536   9.429  18.530  0.00  0.00    +0.000 C 
ATOM     22  F   UNL     1       2.499  10.168  17.914  0.00  0.00    +0.000 F 
ATOM     23  F   UNL     1       2.153   8.284  18.933  0.00  0.00    +0.000 F 
ATOM     24  F   UNL     1       0.673   9.060  17.542  0.00  0.00    +0.000 F 
ENDBRANCH   8  21
BRANCH   6  25
ATOM     25  C   UNL     1      -0.226   9.223  23.246  0.00  0.00    +0.000 C 
BRANCH  25  26
ATOM     26  O   UNL     1       0.790   9.554  24.182  0.00  0.00    +0.000 OA
ATOM     27  H   UNL     1       0.660   8.988  24.963  0.00  0.00    +0.000 HD
ENDBRANCH  25  26
ENDBRANCH   6  25
TORSDOF 5
ENDMDL
MODEL 8
REMARK VINA RESULT:      -6.9      4.748      7.758
REMARK  Name = 
REMARK  6 active torsions:
REMARK  status: ('A' for Active; 'I' for Inactive)
REMARK    1  A    between atoms: C_1  and  C_2
REMARK    2  A    between atoms: C_2  and  C_3
REMARK    3  A    between atoms: C_7  and  N_8
REMARK    4  A    between atoms: C_13  and  C_14
REMARK    5  A    between atoms: C_14  and  O_15
REMARK    6  A    between atoms: C_17  and  C_18
REMARK                            x       y       z     vdW  Elec       q    Type
REMARK                         _______ _______ _______ _____ _____    ______ ____
ROOT
ATOM      1  N   UNL     1       0.693   8.266  21.341  0.00  0.00    +0.000 N 
ATOM      2  C   UNL     1      -0.544   8.644  20.610  0.00  0.00    +0.000 C 
ATOM      3  C   UNL     1      -0.250  10.060  20.218  0.00  0.00    +0.000 A 
ATOM      4  C   UNL     1       0.629  10.575  21.175  0.00  0.00    +0.000 A 
ATOM      5  C   UNL     1       1.269  11.793  21.038  0.00  0.00    +0.000 A 
ATOM      6  C   UNL     1       1.024  12.521  19.870  0.00  0.00    +0.000 A 
ATOM      7  C   UNL     1       0.129  12.008  18.896  0.00  0.00    +0.000 A 
ATOM      8  C   UNL     1      -0.518  10.761  19.047  0.00  0.00    +0.000 A 
ATOM      9  C   UNL     1       1.118   9.445  22.004  0.00  0.00    +0.000 C 
ATOM     10  O   UNL     1       1.915   9.569  22.914  0.00  0.00    +0.000 OA
ENDROOT
BRANCH   1  15
ATOM     11  C   UNL     1       2.140   5.566  19.329  0.00  0.00    +0.000 A 
ATOM     12  C   UNL     1       2.268   6.263  18.114  0.00  0.00    +0.000 A 
ATOM     13  C   UNL     1       2.259   7.653  18.079  0.00  0.00    +0.000 A 
ATOM     14  C   UNL     1       2.011   8.366  19.247  0.00  0.00    +0.000 A 
ATOM     15  C   UNL     1       1.654   7.683  20.419  0.00  0.00    +0.000 A 
ATOM     16  C   UNL     1       1.860   6.305  20.487  0.00  0.00    +0.000 A 
BRANCH  11  18
ATOM     17  C   UNL     1       1.170   3.378  20.194  0.00  0.00    +0.000 C 
ATOM     18  C   UNL     1       2.237   4.059  19.379  0.00  0.00    +0.000 C 
ATOM     19  C   UNL     1       3.190   3.460  18.506  0.00  0.00    +0.000 C 
ATOM     20  N   UNL     1       3.603   3.507  19.679  0.00  0.00    +0.000 NA
ENDBRANCH  11  18
ENDBRANCH   1  15
BRANCH   8  21
ATOM     21  C   UNL     1      -1.328  10.214  17.898  0.00  0.00    +0.000 C 
ATOM     22  F   UNL     1      -2.474   9.582  18.272  0.00  0.00    +0.000 F 
ATOM     23  F   UNL     1      -1.712  11.185  17.025  0.00  0.00    +0.000 F 
ATOM     24  F   UNL     1      -0.633   9.302  17.160  0.00  0.00    +0.000 F 
ENDBRANCH   8  21
BRANCH   6  25
ATOM     25  C   UNL     1       1.778  13.797  19.602  0.00  0.00    +0.000 C 
BRANCH  25  26
ATOM     26  O   UNL     1       3.019  13.780  20.293  0.00  0.00    +0.000 OA
ATOM     27  H   UNL     1       3.516  13.005  19.978  0.00  0.00    +0.000 HD
ENDBRANCH  25  26
ENDBRANCH   6  25
TORSDOF 5
ENDMDL
MODEL 9
REMARK VINA RESULT:      -6.9      6.388      9.183
REMARK  Name = 
REMARK  6 active torsions:
REMARK  status: ('A' for Active; 'I' for Inactive)
REMARK    1  A    between atoms: C_1  and  C_2
REMARK    2  A    between atoms: C_2  and  C_3
REMARK    3  A    between atoms: C_7  and  N_8
REMARK    4  A    between atoms: C_13  and  C_14
REMARK    5  A    between atoms: C_14  and  O_15
REMARK    6  A    between atoms: C_17  and  C_18
REMARK                            x       y       z     vdW  Elec       q    Type
REMARK                         _______ _______ _______ _____ _____    ______ ____
ROOT
ATOM      1  N   UNL     1      -0.273  13.287  20.426  0.00  0.00    +0.000 N 
ATOM      2  C   UNL     1       0.294  11.914  20.446  0.00  0.00    +0.000 C 
ATOM      3  C   UNL     1      -0.558  11.215  19.430  0.00  0.00    +0.000 A 
ATOM      4  C   UNL     1      -1.796  11.863  19.419  0.00  0.00    +0.000 A 
ATOM      5  C   UNL     1      -2.772  11.615  18.471  0.00  0.00    +0.000 A 
ATOM      6  C   UNL     1      -2.479  10.679  17.475  0.00  0.00    +0.000 A 
ATOM      7  C   UNL     1      -1.227  10.013  17.482  0.00  0.00    +0.000 A 
ATOM      8  C   UNL     1      -0.237  10.276  18.454  0.00  0.00    +0.000 A 
ATOM      9  C   UNL     1      -1.661  13.122  20.193  0.00  0.00    +0.000 C 
ATOM     10  O   UNL     1      -2.566  13.919  20.351  0.00  0.00    +0.000 OA
ENDROOT
BRANCH   1  15
ATOM     11  C   UNL     1       0.511  16.390  18.641  0.00  0.00    +0.000 A 
ATOM     12  C   UNL     1       1.911  16.350  18.766  0.00  0.00    +0.000 A 
ATOM     13  C   UNL     1       2.572  15.163  19.064  0.00  0.00    +0.000 A 
ATOM     14  C   UNL     1       1.832  14.020  19.347  0.00  0.00    +0.000 A 
ATOM     15  C   UNL     1       0.435  14.101  19.452  0.00  0.00    +0.000 A 
ATOM     16  C   UNL     1      -0.214  15.234  18.962  0.00  0.00    +0.000 A 
BRANCH  11  18
ATOM     17  C   UNL     1      -1.592  17.816  18.785  0.00  0.00    +0.000 C 
ATOM     18  C   UNL     1      -0.201  17.659  18.233  0.00  0.00    +0.000 C 
ATOM     19  C   UNL     1       0.586  18.631  17.550  0.00  0.00    +0.000 C 
ATOM     20  N   UNL     1      -0.143  17.994  16.768  0.00  0.00    +0.000 NA
ENDBRANCH  11  18
ENDBRANCH   1  15
BRANCH   8  21
ATOM     21  C   UNL     1       1.125   9.645  18.301  0.00  0.00    +0.000 C 
ATOM     22  F   UNL     1       1.614   9.085  19.441  0.00  0.00    +0.000 F 
ATOM     23  F   UNL     1       1.134   8.652  17.370  0.00  0.00    +0.000 F 
ATOM     24  F   UNL     1       2.071  10.542  17.901  0.00  0.00    +0.000 F 
ENDBRANCH   8  21
BRANCH   6  25
ATOM     25  C   UNL     1      -3.448  10.449  16.345  0.00  0.00    +0.000 C 
BRANCH  25  26
ATOM     26  O   UNL     1      -3.206  11.383  15.302  0.00  0.00    +0.000 OA
ATOM     27  H   UNL     1      -4.008  11.925  15.206  0.00  0.00    +0.000 HD
ENDBRANCH  25  26
ENDBRANCH   6  25
TORSDOF 5
ENDMDL
