MODEL 1
REMARK VINA RESULT:      -7.7      0.000      0.000
REMARK  Name = 
REMARK  2 active torsions:
REMARK  status: ('A' for Active; 'I' for Inactive)
REMARK    1  A    between atoms: C_1  and  C_2
REMARK    2  A    between atoms: C_10  and  C_12
REMARK                            x       y       z     vdW  Elec       q    Type
REMARK                         _______ _______ _______ _____ _____    ______ ____
ROOT
ATOM      1  C   UNL     1       2.949  15.038  21.676  0.00  0.00    +0.000 C 
ATOM      2  C   UNL     1       1.480  14.878  21.950  0.00  0.00    +0.000 C 
ATOM      3  O   UNL     1       0.851  15.751  22.542  0.00  0.00    +0.000 OA
ATOM      4  N   UNL     1       0.876  13.743  21.436  0.00  0.00    +0.000 N 
ATOM      5  C   UNL     1       1.471  12.587  20.759  0.00  0.00    +0.000 C 
ATOM      6  C   UNL     1       0.289  11.797  20.067  0.00  0.00    +0.000 C 
ATOM      7  C   UNL     1      -0.024  10.415  20.682  0.00  0.00    +0.000 C 
ATOM      8  C   UNL     1       0.501   9.128  20.041  0.00  0.00    +0.000 C 
ATOM      9  N   UNL     1       1.472   9.223  18.979  0.00  0.00    +0.000 N 
ATOM     10  C   UNL     1       2.209   8.132  18.453  0.00  0.00    +0.000 C 
ATOM     11  O   UNL     1       2.944   8.288  17.472  0.00  0.00    +0.000 OA
ATOM     12  C   UNL     1       1.516  10.428  18.172  0.00  0.00    +0.000 C 
ATOM     13  C   UNL     1       0.647  11.627  18.575  0.00  0.00    +0.000 C 
ATOM     14  C   UNL     1      -0.922  12.825  20.262  0.00  0.00    +0.000 C 
ATOM     15  C   UNL     1      -2.293  12.362  20.738  0.00  0.00    +0.000 C 
ATOM     16  O   UNL     1      -2.180  12.072  22.144  0.00  0.00    +0.000 OA
ATOM     17  C   UNL     1      -1.087  12.851  22.659  0.00  0.00    +0.000 C 
ATOM     18  C   UNL     1      -0.549  13.650  21.478  0.00  0.00    +0.000 C 
ENDROOT
BRANCH  10  19
ATOM     19  C   UNL     1       2.190   6.748  19.032  0.00  0.00    +0.000 A 
ATOM     20  C   UNL     1       1.973   6.453  20.391  0.00  0.00    +0.000 A 
ATOM     21  C   UNL     1       1.944   5.129  20.852  0.00  0.00    +0.000 A 
ATOM     22  C   UNL     1       2.066   4.105  19.932  0.00  0.00    +0.000 A 
ATOM     23  C   UNL     1       2.205   4.373  18.584  0.00  0.00    +0.000 A 
ATOM     24  C   UNL     1       2.275   5.678  18.118  0.00  0.00    +0.000 A 
ATOM     25  C   UNL     1       2.208   3.098  17.825  0.00  0.00    +0.000 C 
ATOM     26  O   UNL     1       2.199   2.058  18.833  0.00  0.00    +0.000 OA
ATOM     27  C   UNL     1       2.029   2.637  20.146  0.00  0.00    +0.000 C 
ENDBRANCH  10  19
TORSDOF 1
ENDMDL
MODEL 2
REMARK VINA RESULT:      -7.4      1.004      1.021
REMARK  Name = 
REMARK  2 active torsions:
REMARK  status: ('A' for Active; 'I' for Inactive)
REMARK    1  A    between atoms: C_1  and  C_2
REMARK    2  A    between atoms: C_10  and  C_12
REMARK                            x       y       z     vdW  Elec       q    Type
REMARK                         _______ _______ _______ _____ _____    ______ ____
ROOT
ATOM      1  C   UNL     1       3.251  15.147  20.783  0.00  0.00    +0.000 C 
ATOM      2  C   UNL     1       1.830  14.995  21.248  0.00  0.00    +0.000 C 
ATOM      3  O   UNL     1       1.242  15.926  21.791  0.00  0.00    +0.000 OA
ATOM      4  N   UNL     1       1.211  13.790  20.962  0.00  0.00    +0.000 N 
ATOM      5  C   UNL     1       1.766  12.565  20.377  0.00  0.00    +0.000 C 
ATOM      6  C   UNL     1       0.540  11.666  19.939  0.00  0.00    +0.000 C 
ATOM      7  C   UNL     1       0.350  10.373  20.763  0.00  0.00    +0.000 C 
ATOM      8  C   UNL     1       0.844   9.022  20.238  0.00  0.00    +0.000 C 
ATOM      9  N   UNL     1       1.682   8.993  19.065  0.00  0.00    +0.000 N 
ATOM     10  C   UNL     1       2.392   7.856  18.602  0.00  0.00    +0.000 C 
ATOM     11  O   UNL     1       3.004   7.895  17.529  0.00  0.00    +0.000 OA
ATOM     12  C   UNL     1       1.590  10.080  18.107  0.00  0.00    +0.000 C 
ATOM     13  C   UNL     1       0.730  11.304  18.450  0.00  0.00    +0.000 C 
ATOM     14  C   UNL     1      -0.676  12.686  20.140  0.00  0.00    +0.000 C 
ATOM     15  C   UNL     1      -1.966  12.263  20.833  0.00  0.00    +0.000 C 
ATOM     16  O   UNL     1      -1.681  12.167  22.241  0.00  0.00    +0.000 OA
ATOM     17  C   UNL     1      -0.565  13.030  22.516  0.00  0.00    +0.000 C 
ATOM     18  C   UNL     1      -0.195  13.673  21.185  0.00  0.00    +0.000 C 
ENDROOT
BRANCH  10  19
ATOM     19  C   UNL     1       2.490   6.563  19.355  0.00  0.00    +0.000 A 
ATOM     20  C   UNL     1       1.565   6.131  20.324  0.00  0.00    +0.000 A 
ATOM     21  C   UNL     1       1.711   4.893  20.968  0.00  0.00    +0.000 A 
ATOM     22  C   UNL     1       2.750   4.066  20.585  0.00  0.00    +0.000 A 
ATOM     23  C   UNL     1       3.625   4.441  19.583  0.00  0.00    +0.000 A 
ATOM     24  C   UNL     1       3.517   5.679  18.965  0.00  0.00    +0.000 A 
ATOM     25  C   UNL     1       4.569   3.329  19.310  0.00  0.00    +0.000 C 
ATOM     26  O   UNL     1       4.273   2.327  20.313  0.00  0.00    +0.000 OA
ATOM     27  C   UNL     1       3.101   2.708  21.070  0.00  0.00    +0.000 C 
ENDBRANCH  10  19
TORSDOF 1
ENDMDL
MODEL 3
REMARK VINA RESULT:      -7.3      3.092      4.597
REMARK  Name = 
REMARK  2 active torsions:
REMARK  status: ('A' for Active; 'I' for Inactive)
REMARK    1  A    between atoms: C_1  and  C_2
REMARK    2  A    between atoms: C_10  and  C_12
REMARK                            x       y       z     vdW  Elec       q    Type
REMARK                         _______ _______ _______ _____ _____    ______ ____
ROOT
ATOM      1  C   UNL     1      -4.271  10.036  18.288  0.00  0.00    +0.000 C 
ATOM      2  C   UNL     1      -3.479  11.307  18.409  0.00  0.00    +0.000 C 
ATOM      3  O   UNL     1      -4.029  12.402  18.327  0.00  0.00    +0.000 OA
ATOM      4  N   UNL     1      -2.130  11.171  18.690  0.00  0.00    +0.000 N 
ATOM      5  C   UNL     1      -1.305   9.961  18.768  0.00  0.00    +0.000 C 
ATOM      6  C   UNL     1       0.045  10.368  19.483  0.00  0.00    +0.000 C 
ATOM      7  C   UNL     1       1.299  10.341  18.580  0.00  0.00    +0.000 C 
ATOM      8  C   UNL     1       2.265   9.154  18.605  0.00  0.00    +0.000 C 
ATOM      9  N   UNL     1       1.885   7.960  19.319  0.00  0.00    +0.000 N 
ATOM     10  C   UNL     1       2.564   6.717  19.241  0.00  0.00    +0.000 C 
ATOM     11  O   UNL     1       2.230   5.775  19.969  0.00  0.00    +0.000 OA
ATOM     12  C   UNL     1       0.942   8.067  20.417  0.00  0.00    +0.000 C 
ATOM     13  C   UNL     1       0.251   9.412  20.678  0.00  0.00    +0.000 C 
ATOM     14  C   UNL     1      -0.303  11.850  19.976  0.00  0.00    +0.000 C 
ATOM     15  C   UNL     1       0.675  13.003  19.790  0.00  0.00    +0.000 C 
ATOM     16  O   UNL     1       0.658  13.355  18.394  0.00  0.00    +0.000 OA
ATOM     17  C   UNL     1      -0.614  12.948  17.862  0.00  0.00    +0.000 C 
ATOM     18  C   UNL     1      -1.381  12.338  19.028  0.00  0.00    +0.000 C 
ENDROOT
BRANCH  10  19
ATOM     19  C   UNL     1       3.685   6.430  18.287  0.00  0.00    +0.000 A 
ATOM     20  C   UNL     1       3.818   7.013  17.012  0.00  0.00    +0.000 A 
ATOM     21  C   UNL     1       4.911   6.712  16.186  0.00  0.00    +0.000 A 
ATOM     22  C   UNL     1       5.900   5.879  16.674  0.00  0.00    +0.000 A 
ATOM     23  C   UNL     1       5.824   5.356  17.951  0.00  0.00    +0.000 A 
ATOM     24  C   UNL     1       4.729   5.612  18.764  0.00  0.00    +0.000 A 
ATOM     25  C   UNL     1       7.060   4.589  18.245  0.00  0.00    +0.000 C 
ATOM     26  O   UNL     1       7.805   4.584  17.003  0.00  0.00    +0.000 OA
ATOM     27  C   UNL     1       7.163   5.439  16.031  0.00  0.00    +0.000 C 
ENDBRANCH  10  19
TORSDOF 1
ENDMDL
MODEL 4
REMARK VINA RESULT:      -7.3      3.357      8.997
REMARK  Name = 
REMARK  2 active torsions:
REMARK  status: ('A' for Active; 'I' for Inactive)
REMARK    1  A    between atoms: C_1  and  C_2
REMARK    2  A    between atoms: C_10  and  C_12
REMARK                            x       y       z     vdW  Elec       q    Type
REMARK                         _______ _______ _______ _____ _____    ______ ____
ROOT
ATOM      1  C   UNL     1       8.349   5.446  19.924  0.00  0.00    +0.000 C 
ATOM      2  C   UNL     1       7.836   4.876  18.631  0.00  0.00    +0.000 C 
ATOM      3  O   UNL     1       8.553   4.172  17.925  0.00  0.00    +0.000 OA
ATOM      4  N   UNL     1       6.508   5.125  18.330  0.00  0.00    +0.000 N 
ATOM      5  C   UNL     1       5.532   5.975  19.019  0.00  0.00    +0.000 C 
ATOM      6  C   UNL     1       4.104   5.584  18.464  0.00  0.00    +0.000 C 
ATOM      7  C   UNL     1       3.418   6.667  17.602  0.00  0.00    +0.000 C 
ATOM      8  C   UNL     1       2.347   7.587  18.194  0.00  0.00    +0.000 C 
ATOM      9  N   UNL     1       2.135   7.583  19.621  0.00  0.00    +0.000 N 
ATOM     10  C   UNL     1       1.352   8.530  20.328  0.00  0.00    +0.000 C 
ATOM     11  O   UNL     1       1.140   8.388  21.537  0.00  0.00    +0.000 OA
ATOM     12  C   UNL     1       2.477   6.393  20.379  0.00  0.00    +0.000 C 
ATOM     13  C   UNL     1       3.206   5.243  19.672  0.00  0.00    +0.000 C 
ATOM     14  C   UNL     1       4.454   4.276  17.611  0.00  0.00    +0.000 C 
ATOM     15  C   UNL     1       3.897   4.065  16.209  0.00  0.00    +0.000 C 
ATOM     16  O   UNL     1       4.611   4.953  15.329  0.00  0.00    +0.000 OA
ATOM     17  C   UNL     1       5.888   5.224  15.932  0.00  0.00    +0.000 C 
ATOM     18  C   UNL     1       5.914   4.431  17.232  0.00  0.00    +0.000 C 
ENDROOT
BRANCH  10  19
ATOM     19  C   UNL     1       0.756   9.759  19.707  0.00  0.00    +0.000 A 
ATOM     20  C   UNL     1      -0.501   9.807  19.077  0.00  0.00    +0.000 A 
ATOM     21  C   UNL     1      -1.001  11.003  18.542  0.00  0.00    +0.000 A 
ATOM     22  C   UNL     1      -0.263  12.160  18.703  0.00  0.00    +0.000 A 
ATOM     23  C   UNL     1       0.940  12.147  19.384  0.00  0.00    +0.000 A 
ATOM     24  C   UNL     1       1.466  10.965  19.884  0.00  0.00    +0.000 A 
ATOM     25  C   UNL     1       1.459  13.533  19.495  0.00  0.00    +0.000 C 
ATOM     26  O   UNL     1       0.546  14.342  18.714  0.00  0.00    +0.000 OA
ATOM     27  C   UNL     1      -0.578  13.546  18.275  0.00  0.00    +0.000 C 
ENDBRANCH  10  19
TORSDOF 1
ENDMDL
MODEL 5
REMARK VINA RESULT:      -7.1      2.970      4.542
REMARK  Name = 
REMARK  2 active torsions:
REMARK  status: ('A' for Active; 'I' for Inactive)
REMARK    1  A    between atoms: C_1  and  C_2
REMARK    2  A    between atoms: C_10  and  C_12
REMARK                            x       y       z     vdW  Elec       q    Type
REMARK                         _______ _______ _______ _____ _____    ______ ____
ROOT
ATOM      1  C   UNL     1      -3.860  10.112  18.353  0.00  0.00    +0.000 C 
ATOM      2  C   UNL     1      -2.904  11.262  18.503  0.00  0.00    +0.000 C 
ATOM      3  O   UNL     1      -3.290  12.421  18.376  0.00  0.00    +0.000 OA
ATOM      4  N   UNL     1      -1.605  10.944  18.859  0.00  0.00    +0.000 N 
ATOM      5  C   UNL     1      -0.964   9.633  18.999  0.00  0.00    +0.000 C 
ATOM      6  C   UNL     1       0.390   9.861  19.784  0.00  0.00    +0.000 C 
ATOM      7  C   UNL     1       1.674   9.641  18.952  0.00  0.00    +0.000 C 
ATOM      8  C   UNL     1       2.460   8.331  19.046  0.00  0.00    +0.000 C 
ATOM      9  N   UNL     1       1.879   7.217  19.753  0.00  0.00    +0.000 N 
ATOM     10  C   UNL     1       2.378   5.890  19.729  0.00  0.00    +0.000 C 
ATOM     11  O   UNL     1       1.877   5.019  20.448  0.00  0.00    +0.000 OA
ATOM     12  C   UNL     1       0.902   7.476  20.795  0.00  0.00    +0.000 C 
ATOM     13  C   UNL     1       0.395   8.910  21.000  0.00  0.00    +0.000 C 
ATOM     14  C   UNL     1       0.227  11.387  20.238  0.00  0.00    +0.000 C 
ATOM     15  C   UNL     1       1.367  12.388  20.092  0.00  0.00    +0.000 C 
ATOM     16  O   UNL     1       1.475  12.710  18.693  0.00  0.00    +0.000 OA
ATOM     17  C   UNL     1       0.188  12.475  18.096  0.00  0.00    +0.000 C 
ATOM     18  C   UNL     1      -0.718  12.002  19.225  0.00  0.00    +0.000 C 
ENDROOT
BRANCH  10  19
ATOM     19  C   UNL     1       3.498   5.429  18.842  0.00  0.00    +0.000 A 
ATOM     20  C   UNL     1       3.335   4.985  17.517  0.00  0.00    +0.000 A 
ATOM     21  C   UNL     1       4.437   4.594  16.741  0.00  0.00    +0.000 A 
ATOM     22  C   UNL     1       5.703   4.716  17.281  0.00  0.00    +0.000 A 
ATOM     23  C   UNL     1       5.888   5.221  18.555  0.00  0.00    +0.000 A 
ATOM     24  C   UNL     1       4.806   5.574  19.348  0.00  0.00    +0.000 A 
ATOM     25  C   UNL     1       7.341   5.337  18.834  0.00  0.00    +0.000 C 
ATOM     26  O   UNL     1       7.995   4.738  17.688  0.00  0.00    +0.000 OA
ATOM     27  C   UNL     1       7.022   4.416  16.669  0.00  0.00    +0.000 C 
ENDBRANCH  10  19
TORSDOF 1
ENDMDL
MODEL 6
REMARK VINA RESULT:      -7.0      3.056      4.572
REMARK  Name = 
REMARK  2 active torsions:
REMARK  status: ('A' for Active; 'I' for Inactive)
REMARK    1  A    between atoms: C_1  and  C_2
REMARK    2  A    between atoms: C_10  and  C_12
REMARK                            x       y       z     vdW  Elec       q    Type
REMARK                         _______ _______ _______ _____ _____    ______ ____
ROOT
ATOM      1  C   UNL     1      -4.117   9.931  18.171  0.00  0.00    +0.000 C 
ATOM      2  C   UNL     1      -3.329  11.204  18.312  0.00  0.00    +0.000 C 
ATOM      3  O   UNL     1      -3.886  12.297  18.268  0.00  0.00    +0.000 OA
ATOM      4  N   UNL     1      -1.975  11.067  18.567  0.00  0.00    +0.000 N 
ATOM      5  C   UNL     1      -1.142   9.861  18.599  0.00  0.00    +0.000 C 
ATOM      6  C   UNL     1       0.217  10.256  19.303  0.00  0.00    +0.000 C 
ATOM      7  C   UNL     1       1.456  10.260  18.379  0.00  0.00    +0.000 C 
ATOM      8  C   UNL     1       2.428   9.079  18.357  0.00  0.00    +0.000 C 
ATOM      9  N   UNL     1       2.067   7.864  19.046  0.00  0.00    +0.000 N 
ATOM     10  C   UNL     1       2.750   6.627  18.924  0.00  0.00    +0.000 C 
ATOM     11  O   UNL     1       2.433   5.665  19.632  0.00  0.00    +0.000 OA
ATOM     12  C   UNL     1       1.141   7.936  20.161  0.00  0.00    +0.000 C 
ATOM     13  C   UNL     1       0.448   9.271  20.469  0.00  0.00    +0.000 C 
ATOM     14  C   UNL     1      -0.131  11.723  19.841  0.00  0.00    +0.000 C 
ATOM     15  C   UNL     1       0.838  12.886  19.669  0.00  0.00    +0.000 C 
ATOM     16  O   UNL     1       0.796  13.274  18.284  0.00  0.00    +0.000 OA
ATOM     17  C   UNL     1      -0.482  12.875  17.761  0.00  0.00    +0.000 C 
ATOM     18  C   UNL     1      -1.227  12.230  18.924  0.00  0.00    +0.000 C 
ENDROOT
BRANCH  10  19
ATOM     19  C   UNL     1       3.857   6.372  17.944  0.00  0.00    +0.000 A 
ATOM     20  C   UNL     1       4.908   7.269  17.674  0.00  0.00    +0.000 A 
ATOM     21  C   UNL     1       5.922   6.946  16.761  0.00  0.00    +0.000 A 
ATOM     22  C   UNL     1       5.911   5.695  16.175  0.00  0.00    +0.000 A 
ATOM     23  C   UNL     1       4.929   4.772  16.483  0.00  0.00    +0.000 A 
ATOM     24  C   UNL     1       3.897   5.092  17.354  0.00  0.00    +0.000 A 
ATOM     25  C   UNL     1       5.221   3.491  15.795  0.00  0.00    +0.000 C 
ATOM     26  O   UNL     1       6.367   3.767  14.953  0.00  0.00    +0.000 OA
ATOM     27  C   UNL     1       6.875   5.094  15.219  0.00  0.00    +0.000 C 
ENDBRANCH  10  19
TORSDOF 1
ENDMDL
MODEL 7
REMARK VINA RESULT:      -7.0      1.084      1.615
REMARK  Name = 
REMARK  2 active torsions:
REMARK  status: ('A' for Active; 'I' for Inactive)
REMARK    1  A    between atoms: C_1  and  C_2
REMARK    2  A    between atoms: C_10  and  C_12
REMARK                            x       y       z     vdW  Elec       q    Type
REMARK                         _______ _______ _______ _____ _____    ______ ____
ROOT
ATOM      1  C   UNL     1       3.358  14.364  21.756  0.00  0.00    +0.000 C 
ATOM      2  C   UNL     1       1.864  14.417  21.605  0.00  0.00    +0.000 C 
ATOM      3  O   UNL     1       1.221  15.372  22.034  0.00  0.00    +0.000 OA
ATOM      4  N   UNL     1       1.276  13.381  20.899  0.00  0.00    +0.000 N 
ATOM      5  C   UNL     1       1.871  12.150  20.369  0.00  0.00    +0.000 C 
ATOM      6  C   UNL     1       0.833  11.539  19.344  0.00  0.00    +0.000 C 
ATOM      7  C   UNL     1       0.172  10.217  19.794  0.00  0.00    +0.000 C 
ATOM      8  C   UNL     1       0.672   8.867  19.273  0.00  0.00    +0.000 C 
ATOM      9  N   UNL     1       1.905   8.820  18.527  0.00  0.00    +0.000 N 
ATOM     10  C   UNL     1       2.601   7.634  18.183  0.00  0.00    +0.000 C 
ATOM     11  O   UNL     1       3.596   7.682  17.451  0.00  0.00    +0.000 OA
ATOM     12  C   UNL     1       2.340  10.006  17.812  0.00  0.00    +0.000 C 
ATOM     13  C   UNL     1       1.568  11.318  18.005  0.00  0.00    +0.000 C 
ATOM     14  C   UNL     1      -0.229  12.731  19.236  0.00  0.00    +0.000 C 
ATOM     15  C   UNL     1      -1.729  12.470  19.295  0.00  0.00    +0.000 C 
ATOM     16  O   UNL     1      -2.056  12.168  20.664  0.00  0.00    +0.000 OA
ATOM     17  C   UNL     1      -1.054  12.782  21.492  0.00  0.00    +0.000 C 
ATOM     18  C   UNL     1      -0.101  13.494  20.540  0.00  0.00    +0.000 C 
ENDROOT
BRANCH  10  19
ATOM     19  C   UNL     1       2.229   6.267  18.678  0.00  0.00    +0.000 A 
ATOM     20  C   UNL     1       1.770   5.219  17.859  0.00  0.00    +0.000 A 
ATOM     21  C   UNL     1       1.466   3.958  18.395  0.00  0.00    +0.000 A 
ATOM     22  C   UNL     1       1.691   3.739  19.741  0.00  0.00    +0.000 A 
ATOM     23  C   UNL     1       2.211   4.734  20.547  0.00  0.00    +0.000 A 
ATOM     24  C   UNL     1       2.479   5.998  20.039  0.00  0.00    +0.000 A 
ATOM     25  C   UNL     1       2.444   4.195  21.910  0.00  0.00    +0.000 C 
ATOM     26  O   UNL     1       1.896   2.855  21.884  0.00  0.00    +0.000 OA
ATOM     27  C   UNL     1       1.495   2.504  20.540  0.00  0.00    +0.000 C 
ENDBRANCH  10  19
TORSDOF 1
ENDMDL
MODEL 8
REMARK VINA RESULT:      -7.0      1.713      2.195
REMARK  Name = 
REMARK  2 active torsions:
REMARK  status: ('A' for Active; 'I' for Inactive)
REMARK    1  A    between atoms: C_1  and  C_2
REMARK    2  A    between atoms: C_10  and  C_12
REMARK                            x       y       z     vdW  Elec       q    Type
REMARK                         _______ _______ _______ _____ _____    ______ ____
ROOT
ATOM      1  C   UNL     1       0.538  16.381  23.015  0.00  0.00    +0.000 C 
ATOM      2  C   UNL     1      -0.844  15.829  23.231  0.00  0.00    +0.000 C 
ATOM      3  O   UNL     1      -1.661  16.430  23.923  0.00  0.00    +0.000 OA
ATOM      4  N   UNL     1      -1.157  14.664  22.551  0.00  0.00    +0.000 N 
ATOM      5  C   UNL     1      -0.304  13.794  21.735  0.00  0.00    +0.000 C 
ATOM      6  C   UNL     1      -1.265  12.844  20.914  0.00  0.00    +0.000 C 
ATOM      7  C   UNL     1      -1.221  11.355  21.326  0.00  0.00    +0.000 C 
ATOM      8  C   UNL     1      -0.404  10.338  20.525  0.00  0.00    +0.000 C 
ATOM      9  N   UNL     1       0.501  10.815  19.509  0.00  0.00    +0.000 N 
ATOM     10  C   UNL     1       1.477  10.021  18.854  0.00  0.00    +0.000 C 
ATOM     11  O   UNL     1       2.140  10.488  17.921  0.00  0.00    +0.000 OA
ATOM     12  C   UNL     1       0.238  12.094  18.876  0.00  0.00    +0.000 C 
ATOM     13  C   UNL     1      -0.894  12.976  19.421  0.00  0.00    +0.000 C 
ATOM     14  C   UNL     1      -2.688  13.506  21.221  0.00  0.00    +0.000 C 
ATOM     15  C   UNL     1      -3.898  12.660  21.598  0.00  0.00    +0.000 C 
ATOM     16  O   UNL     1      -3.700  12.214  22.952  0.00  0.00    +0.000 OA
ATOM     17  C   UNL     1      -2.826  13.157  23.594  0.00  0.00    +0.000 C 
ATOM     18  C   UNL     1      -2.514  14.219  22.548  0.00  0.00    +0.000 C 
ENDROOT
BRANCH  10  19
ATOM     19  C   UNL     1       1.806   8.608  19.236  0.00  0.00    +0.000 A 
ATOM     20  C   UNL     1       1.424   7.999  20.446  0.00  0.00    +0.000 A 
ATOM     21  C   UNL     1       1.748   6.661  20.719  0.00  0.00    +0.000 A 
ATOM     22  C   UNL     1       2.394   5.924  19.746  0.00  0.00    +0.000 A 
ATOM     23  C   UNL     1       2.711   6.484  18.522  0.00  0.00    +0.000 A 
ATOM     24  C   UNL     1       2.433   7.816  18.252  0.00  0.00    +0.000 A 
ATOM     25  C   UNL     1       3.300   5.445  17.641  0.00  0.00    +0.000 C 
ATOM     26  O   UNL     1       3.433   4.271  18.479  0.00  0.00    +0.000 OA
ATOM     27  C   UNL     1       2.810   4.499  19.763  0.00  0.00    +0.000 C 
ENDBRANCH  10  19
TORSDOF 1
ENDMDL
MODEL 9
REMARK VINA RESULT:      -7.0      2.891      4.510
REMARK  Name = 
REMARK  2 active torsions:
REMARK  status: ('A' for Active; 'I' for Inactive)
REMARK    1  A    between atoms: C_1  and  C_2
REMARK    2  A    between atoms: C_10  and  C_12
REMARK                            x       y       z     vdW  Elec       q    Type
REMARK                         _______ _______ _______ _____ _____    ______ ____
ROOT
ATOM      1  C   UNL     1      -4.208   9.923  17.973  0.00  0.00    +0.000 C 
ATOM      2  C   UNL     1      -3.414  11.179  18.198  0.00  0.00    +0.000 C 
ATOM      3  O   UNL     1      -3.923  12.284  18.035  0.00  0.00    +0.000 OA
ATOM      4  N   UNL     1      -2.121  11.017  18.666  0.00  0.00    +0.000 N 
ATOM      5  C   UNL     1      -1.341   9.792  18.865  0.00  0.00    +0.000 C 
ATOM      6  C   UNL     1      -0.096  10.177  19.762  0.00  0.00    +0.000 C 
ATOM      7  C   UNL     1       1.271  10.117  19.043  0.00  0.00    +0.000 C 
ATOM      8  C   UNL     1       2.199   8.911  19.210  0.00  0.00    +0.000 C 
ATOM      9  N   UNL     1       1.697   7.730  19.869  0.00  0.00    +0.000 N 
ATOM     10  C   UNL     1       2.353   6.473  19.894  0.00  0.00    +0.000 C 
ATOM     11  O   UNL     1       1.900   5.544  20.571  0.00  0.00    +0.000 OA
ATOM     12  C   UNL     1       0.611   7.865  20.823  0.00  0.00    +0.000 C 
ATOM     13  C   UNL     1      -0.080   9.226  20.978  0.00  0.00    +0.000 C 
ATOM     14  C   UNL     1      -0.479  11.669  20.193  0.00  0.00    +0.000 C 
ATOM     15  C   UNL     1       0.541  12.801  20.141  0.00  0.00    +0.000 C 
ATOM     16  O   UNL     1       0.727  13.142  18.755  0.00  0.00    +0.000 OA
ATOM     17  C   UNL     1      -0.466  12.757  18.051  0.00  0.00    +0.000 C 
ATOM     18  C   UNL     1      -1.402  12.172  19.101  0.00  0.00    +0.000 C 
ENDROOT
BRANCH  10  19
ATOM     19  C   UNL     1       3.591   6.156  19.108  0.00  0.00    +0.000 A 
ATOM     20  C   UNL     1       4.645   5.347  19.570  0.00  0.00    +0.000 A 
ATOM     21  C   UNL     1       5.760   5.075  18.764  0.00  0.00    +0.000 A 
ATOM     22  C   UNL     1       5.777   5.563  17.471  0.00  0.00    +0.000 A 
ATOM     23  C   UNL     1       4.717   6.297  16.974  0.00  0.00    +0.000 A 
ATOM     24  C   UNL     1       3.626   6.608  17.773  0.00  0.00    +0.000 A 
ATOM     25  C   UNL     1       4.956   6.601  15.541  0.00  0.00    +0.000 C 
ATOM     26  O   UNL     1       6.291   6.111  15.268  0.00  0.00    +0.000 OA
ATOM     27  C   UNL     1       6.802   5.390  16.412  0.00  0.00    +0.000 C 
ENDBRANCH  10  19
TORSDOF 1
ENDMDL
