MODEL 1
REMARK VINA RESULT:      -9.6      0.000      0.000
REMARK  Name = 
REMARK  6 active torsions:
REMARK  status: ('A' for Active; 'I' for Inactive)
REMARK    1  A    between atoms: C_1  and  C_2
REMARK    2  A    between atoms: C_6  and  N_7
REMARK    3  A    between atoms: N_7  and  C_8
REMARK    4  A    between atoms: C_8  and  C_9
REMARK    5  A    between atoms: C_17  and  C_18
REMARK    6  A    between atoms: C_21  and  C_22
REMARK                            x       y       z     vdW  Elec       q    Type
REMARK                         _______ _______ _______ _____ _____    ______ ____
ROOT
ATOM      1  N   UNL     1       2.393   7.017  20.264  0.00  0.00    +0.000 N 
ATOM      2  H   UNL     1       2.584   7.136  21.255  0.00  0.00    +0.000 HD
ENDROOT
BRANCH   1   8
ATOM      3  C   UNL     1       3.644   2.961  17.563  0.00  0.00    +0.000 C 
ATOM      4  C   UNL     1       2.829   3.730  18.573  0.00  0.00    +0.000 A 
ATOM      5  C   UNL     1       1.876   2.976  19.292  0.00  0.00    +0.000 A 
ATOM      6  C   UNL     1       1.099   3.557  20.276  0.00  0.00    +0.000 A 
ATOM      7  C   UNL     1       1.287   4.900  20.581  0.00  0.00    +0.000 A 
ATOM      8  C   UNL     1       2.228   5.688  19.912  0.00  0.00    +0.000 A 
ATOM      9  C   UNL     1       2.968   5.129  18.831  0.00  0.00    +0.000 A 
BRANCH   9  10
ATOM     10  C   UNL     1       3.993   5.951  18.053  0.00  0.00    +0.000 C 
ATOM     11  O   UNL     1       3.571   6.766  17.228  0.00  0.00    +0.000 OA
ATOM     12  N   UNL     1       5.383   5.808  18.207  0.00  0.00    +0.000 N 
ATOM     13  C   UNL     1       6.161   5.044  19.175  0.00  0.00    +0.000 C 
ATOM     14  C   UNL     1       7.437   5.834  19.362  0.00  0.00    +0.000 C 
ATOM     15  C   UNL     1       7.685   6.406  17.973  0.00  0.00    +0.000 C 
ATOM     16  C   UNL     1       6.290   6.586  17.369  0.00  0.00    +0.000 C 
ENDBRANCH   9  10
ENDBRANCH   1   8
BRANCH   1  17
ATOM     17  C   UNL     1       1.852   8.178  19.590  0.00  0.00    +0.000 C 
BRANCH  17  18
ATOM     18  C   UNL     1       1.010   8.993  20.540  0.00  0.00    +0.000 A 
ATOM     19  C   UNL     1       1.115   8.850  21.866  0.00  0.00    +0.000 A 
ATOM     20  C   UNL     1       0.307   9.688  22.747  0.00  0.00    +0.000 A 
ATOM     21  O   UNL     1       0.401   9.526  23.964  0.00  0.00    +0.000 OA
ATOM     22  N   UNL     1      -0.481  10.626  22.107  0.00  0.00    +0.000 N 
ATOM     23  C   UNL     1      -1.170  11.546  22.881  0.00  0.00    +0.000 A 
ATOM     24  C   UNL     1      -1.928  12.494  22.325  0.00  0.00    +0.000 A 
ATOM     25  C   UNL     1      -2.104  12.528  20.900  0.00  0.00    +0.000 A 
ATOM     26  C   UNL     1      -1.489  11.646  20.098  0.00  0.00    +0.000 A 
ATOM     27  C   UNL     1      -1.717  11.572  18.622  0.00  0.00    +0.000 C 
ATOM     28  C   UNL     1      -0.551  10.652  20.715  0.00  0.00    +0.000 A 
ATOM     29  N   UNL     1       0.153   9.879  19.944  0.00  0.00    +0.000 NA
ENDBRANCH  17  18
ENDBRANCH   1  17
TORSDOF 4
ENDMDL
MODEL 2
REMARK VINA RESULT:      -9.5      1.332      1.614
REMARK  Name = 
REMARK  6 active torsions:
REMARK  status: ('A' for Active; 'I' for Inactive)
REMARK    1  A    between atoms: C_1  and  C_2
REMARK    2  A    between atoms: C_6  and  N_7
REMARK    3  A    between atoms: N_7  and  C_8
REMARK    4  A    between atoms: C_8  and  C_9
REMARK    5  A    between atoms: C_17  and  C_18
REMARK    6  A    between atoms: C_21  and  C_22
REMARK                            x       y       z     vdW  Elec       q    Type
REMARK                         _______ _______ _______ _____ _____    ______ ____
ROOT
ATOM      1  N   UNL     1       2.758   6.654  20.163  0.00  0.00    +0.000 N 
ATOM      2  H   UNL     1       3.102   6.954  21.071  0.00  0.00    +0.000 HD
ENDROOT
BRANCH   1   8
ATOM      3  C   UNL     1       4.157   1.916  19.213  0.00  0.00    +0.000 C 
ATOM      4  C   UNL     1       3.188   2.997  19.624  0.00  0.00    +0.000 A 
ATOM      5  C   UNL     1       1.938   2.548  20.102  0.00  0.00    +0.000 A 
ATOM      6  C   UNL     1       0.982   3.439  20.551  0.00  0.00    +0.000 A 
ATOM      7  C   UNL     1       1.276   4.798  20.561  0.00  0.00    +0.000 A 
ATOM      8  C   UNL     1       2.504   5.295  20.116  0.00  0.00    +0.000 A 
ATOM      9  C   UNL     1       3.462   4.398  19.561  0.00  0.00    +0.000 A 
BRANCH   9  10
ATOM     10  C   UNL     1       4.811   4.891  19.040  0.00  0.00    +0.000 C 
ATOM     11  O   UNL     1       5.616   5.339  19.860  0.00  0.00    +0.000 OA
ATOM     12  N   UNL     1       5.167   4.887  17.680  0.00  0.00    +0.000 N 
ATOM     13  C   UNL     1       4.497   4.310  16.521  0.00  0.00    +0.000 C 
ATOM     14  C   UNL     1       5.612   3.932  15.572  0.00  0.00    +0.000 C 
ATOM     15  C   UNL     1       6.637   5.035  15.801  0.00  0.00    +0.000 C 
ATOM     16  C   UNL     1       6.450   5.444  17.265  0.00  0.00    +0.000 C 
ENDBRANCH   9  10
ENDBRANCH   1   8
BRANCH   1  17
ATOM     17  C   UNL     1       2.154   7.691  19.353  0.00  0.00    +0.000 C 
BRANCH  17  18
ATOM     18  C   UNL     1       1.309   8.603  20.207  0.00  0.00    +0.000 A 
ATOM     19  C   UNL     1       1.429   8.619  21.540  0.00  0.00    +0.000 A 
ATOM     20  C   UNL     1       0.617   9.547  22.323  0.00  0.00    +0.000 A 
ATOM     21  O   UNL     1       0.725   9.532  23.550  0.00  0.00    +0.000 OA
ATOM     22  N   UNL     1      -0.188  10.393  21.585  0.00  0.00    +0.000 N 
ATOM     23  C   UNL     1      -0.882  11.390  22.251  0.00  0.00    +0.000 A 
ATOM     24  C   UNL     1      -1.658  12.256  21.595  0.00  0.00    +0.000 A 
ATOM     25  C   UNL     1      -1.847  12.118  20.177  0.00  0.00    +0.000 A 
ATOM     26  C   UNL     1      -1.228  11.154  19.480  0.00  0.00    +0.000 A 
ATOM     27  C   UNL     1      -1.468  10.902  18.026  0.00  0.00    +0.000 C 
ATOM     28  C   UNL     1      -0.272  10.252  20.200  0.00  0.00    +0.000 A 
ATOM     29  N   UNL     1       0.435   9.401  19.519  0.00  0.00    +0.000 NA
ENDBRANCH  17  18
ENDBRANCH   1  17
TORSDOF 4
ENDMDL
MODEL 3
REMARK VINA RESULT:      -9.4      2.031      2.923
REMARK  Name = 
REMARK  6 active torsions:
REMARK  status: ('A' for Active; 'I' for Inactive)
REMARK    1  A    between atoms: C_1  and  C_2
REMARK    2  A    between atoms: C_6  and  N_7
REMARK    3  A    between atoms: N_7  and  C_8
REMARK    4  A    between atoms: C_8  and  C_9
REMARK    5  A    between atoms: C_17  and  C_18
REMARK    6  A    between atoms: C_21  and  C_22
REMARK                            x       y       z     vdW  Elec       q    Type
REMARK                         _______ _______ _______ _____ _____    ______ ____
ROOT
ATOM      1  N   UNL     1       2.822   5.701  19.996  0.00  0.00    +0.000 N 
ATOM      2  H   UNL     1       3.814   5.876  19.861  0.00  0.00    +0.000 HD
ENDROOT
BRANCH   1   8
ATOM      3  C   UNL     1       3.893   1.150  18.138  0.00  0.00    +0.000 C 
ATOM      4  C   UNL     1       2.980   2.227  18.671  0.00  0.00    +0.000 A 
ATOM      5  C   UNL     1       1.636   1.844  18.874  0.00  0.00    +0.000 A 
ATOM      6  C   UNL     1       0.713   2.728  19.400  0.00  0.00    +0.000 A 
ATOM      7  C   UNL     1       1.129   4.003  19.764  0.00  0.00    +0.000 A 
ATOM      8  C   UNL     1       2.450   4.428  19.601  0.00  0.00    +0.000 A 
ATOM      9  C   UNL     1       3.391   3.562  18.971  0.00  0.00    +0.000 A 
BRANCH   9  10
ATOM     10  C   UNL     1       4.842   3.984  18.748  0.00  0.00    +0.000 C 
ATOM     11  O   UNL     1       5.577   4.064  19.736  0.00  0.00    +0.000 OA
ATOM     12  N   UNL     1       5.371   4.313  17.487  0.00  0.00    +0.000 N 
ATOM     13  C   UNL     1       4.800   4.186  16.153  0.00  0.00    +0.000 C 
ATOM     14  C   UNL     1       5.982   3.936  15.243  0.00  0.00    +0.000 C 
ATOM     15  C   UNL     1       7.081   4.772  15.884  0.00  0.00    +0.000 C 
ATOM     16  C   UNL     1       6.750   4.776  17.378  0.00  0.00    +0.000 C 
ENDBRANCH   9  10
ENDBRANCH   1   8
BRANCH   1  17
ATOM     17  C   UNL     1       2.169   6.544  20.975  0.00  0.00    +0.000 C 
BRANCH  17  18
ATOM     18  C   UNL     1       1.708   7.831  20.340  0.00  0.00    +0.000 A 
ATOM     19  C   UNL     1       2.059   8.158  19.091  0.00  0.00    +0.000 A 
ATOM     20  C   UNL     1       1.556   9.397  18.503  0.00  0.00    +0.000 A 
ATOM     21  O   UNL     1       1.907   9.692  17.360  0.00  0.00    +0.000 OA
ATOM     22  N   UNL     1       0.687  10.117  19.300  0.00  0.00    +0.000 N 
ATOM     23  C   UNL     1       0.065  11.230  18.759  0.00  0.00    +0.000 A 
ATOM     24  C   UNL     1      -0.804  11.955  19.468  0.00  0.00    +0.000 A 
ATOM     25  C   UNL     1      -1.053  11.632  20.845  0.00  0.00    +0.000 A 
ATOM     26  C   UNL     1      -0.458  10.585  21.437  0.00  0.00    +0.000 A 
ATOM     27  C   UNL     1      -0.601  10.266  22.890  0.00  0.00    +0.000 C 
ATOM     28  C   UNL     1       0.432   9.707  20.609  0.00  0.00    +0.000 A 
ATOM     29  N   UNL     1       0.910   8.617  21.128  0.00  0.00    +0.000 NA
ENDBRANCH  17  18
ENDBRANCH   1  17
TORSDOF 4
ENDMDL
MODEL 4
REMARK VINA RESULT:      -9.0      2.066      2.817
REMARK  Name = 
REMARK  6 active torsions:
REMARK  status: ('A' for Active; 'I' for Inactive)
REMARK    1  A    between atoms: C_1  and  C_2
REMARK    2  A    between atoms: C_6  and  N_7
REMARK    3  A    between atoms: N_7  and  C_8
REMARK    4  A    between atoms: C_8  and  C_9
REMARK    5  A    between atoms: C_17  and  C_18
REMARK    6  A    between atoms: C_21  and  C_22
REMARK                            x       y       z     vdW  Elec       q    Type
REMARK                         _______ _______ _______ _____ _____    ______ ____
ROOT
ATOM      1  N   UNL     1       2.835   6.877  19.459  0.00  0.00    +0.000 N 
ATOM      2  H   UNL     1       3.158   7.430  20.248  0.00  0.00    +0.000 HD
ENDROOT
BRANCH   1   8
ATOM      3  C   UNL     1       4.497   2.155  19.960  0.00  0.00    +0.000 C 
ATOM      4  C   UNL     1       3.458   3.248  20.003  0.00  0.00    +0.000 A 
ATOM      5  C   UNL     1       2.202   2.878  20.531  0.00  0.00    +0.000 A 
ATOM      6  C   UNL     1       1.182   3.801  20.665  0.00  0.00    +0.000 A 
ATOM      7  C   UNL     1       1.415   5.122  20.301  0.00  0.00    +0.000 A 
ATOM      8  C   UNL     1       2.645   5.546  19.790  0.00  0.00    +0.000 A 
ATOM      9  C   UNL     1       3.673   4.588  19.556  0.00  0.00    +0.000 A 
BRANCH   9  10
ATOM     10  C   UNL     1       5.027   4.994  18.978  0.00  0.00    +0.000 C 
ATOM     11  O   UNL     1       5.857   5.486  19.747  0.00  0.00    +0.000 OA
ATOM     12  N   UNL     1       5.363   4.862  17.619  0.00  0.00    +0.000 N 
ATOM     13  C   UNL     1       4.660   4.209  16.523  0.00  0.00    +0.000 C 
ATOM     14  C   UNL     1       5.749   3.718  15.596  0.00  0.00    +0.000 C 
ATOM     15  C   UNL     1       6.809   4.805  15.717  0.00  0.00    +0.000 C 
ATOM     16  C   UNL     1       6.656   5.343  17.142  0.00  0.00    +0.000 C 
ENDBRANCH   9  10
ENDBRANCH   1   8
BRANCH   1  17
ATOM     17  C   UNL     1       2.189   7.621  18.399  0.00  0.00    +0.000 C 
BRANCH  17  18
ATOM     18  C   UNL     1       1.786   8.991  18.886  0.00  0.00    +0.000 A 
ATOM     19  C   UNL     1       2.083  10.094  18.190  0.00  0.00    +0.000 A 
ATOM     20  C   UNL     1       1.638  11.396  18.681  0.00  0.00    +0.000 A 
ATOM     21  O   UNL     1       1.940  12.402  18.039  0.00  0.00    +0.000 OA
ATOM     22  N   UNL     1       0.876  11.362  19.833  0.00  0.00    +0.000 N 
ATOM     23  C   UNL     1       0.305  12.542  20.281  0.00  0.00    +0.000 A 
ATOM     24  C   UNL     1      -0.462  12.574  21.373  0.00  0.00    +0.000 A 
ATOM     25  C   UNL     1      -0.650  11.382  22.153  0.00  0.00    +0.000 A 
ATOM     26  C   UNL     1      -0.098  10.214  21.789  0.00  0.00    +0.000 A 
ATOM     27  C   UNL     1      -0.176   8.971  22.616  0.00  0.00    +0.000 C 
ATOM     28  C   UNL     1       0.672  10.156  20.504  0.00  0.00    +0.000 A 
ATOM     29  N   UNL     1       1.099   9.009  20.070  0.00  0.00    +0.000 NA
ENDBRANCH  17  18
ENDBRANCH   1  17
TORSDOF 4
ENDMDL
MODEL 5
REMARK VINA RESULT:      -8.9      1.566      2.230
REMARK  Name = 
REMARK  6 active torsions:
REMARK  status: ('A' for Active; 'I' for Inactive)
REMARK    1  A    between atoms: C_1  and  C_2
REMARK    2  A    between atoms: C_6  and  N_7
REMARK    3  A    between atoms: N_7  and  C_8
REMARK    4  A    between atoms: C_8  and  C_9
REMARK    5  A    between atoms: C_17  and  C_18
REMARK    6  A    between atoms: C_21  and  C_22
REMARK                            x       y       z     vdW  Elec       q    Type
REMARK                         _______ _______ _______ _____ _____    ______ ____
ROOT
ATOM      1  N   UNL     1       2.307   6.634  20.524  0.00  0.00    +0.000 N 
ATOM      2  H   UNL     1       3.277   6.765  20.799  0.00  0.00    +0.000 HD
ENDROOT
BRANCH   1   8
ATOM      3  C   UNL     1       3.308   3.191  16.996  0.00  0.00    +0.000 C 
ATOM      4  C   UNL     1       2.567   3.751  18.184  0.00  0.00    +0.000 A 
ATOM      5  C   UNL     1       1.634   2.882  18.790  0.00  0.00    +0.000 A 
ATOM      6  C   UNL     1       0.926   3.263  19.914  0.00  0.00    +0.000 A 
ATOM      7  C   UNL     1       1.164   4.514  20.471  0.00  0.00    +0.000 A 
ATOM      8  C   UNL     1       2.089   5.407  19.922  0.00  0.00    +0.000 A 
ATOM      9  C   UNL     1       2.756   5.067  18.710  0.00  0.00    +0.000 A 
BRANCH   9  10
ATOM     10  C   UNL     1       3.760   6.015  18.056  0.00  0.00    +0.000 C 
ATOM     11  O   UNL     1       3.316   6.957  17.396  0.00  0.00    +0.000 OA
ATOM     12  N   UNL     1       5.154   5.852  18.145  0.00  0.00    +0.000 N 
ATOM     13  C   UNL     1       5.957   4.936  18.945  0.00  0.00    +0.000 C 
ATOM     14  C   UNL     1       7.239   5.687  19.229  0.00  0.00    +0.000 C 
ATOM     15  C   UNL     1       7.449   6.490  17.952  0.00  0.00    +0.000 C 
ATOM     16  C   UNL     1       6.037   6.766  17.428  0.00  0.00    +0.000 C 
ENDBRANCH   9  10
ENDBRANCH   1   8
BRANCH   1  17
ATOM     17  C   UNL     1       1.344   7.450  21.232  0.00  0.00    +0.000 C 
BRANCH  17  18
ATOM     18  C   UNL     1       1.127   8.757  20.510  0.00  0.00    +0.000 A 
ATOM     19  C   UNL     1       1.641   8.976  19.294  0.00  0.00    +0.000 A 
ATOM     20  C   UNL     1       1.372  10.242  18.617  0.00  0.00    +0.000 A 
ATOM     21  O   UNL     1       1.871  10.435  17.509  0.00  0.00    +0.000 OA
ATOM     22  N   UNL     1       0.536  11.107  19.297  0.00  0.00    +0.000 N 
ATOM     23  C   UNL     1       0.128  12.266  18.658  0.00  0.00    +0.000 A 
ATOM     24  C   UNL     1      -0.699  13.133  19.249  0.00  0.00    +0.000 A 
ATOM     25  C   UNL     1      -1.125  12.909  20.603  0.00  0.00    +0.000 A 
ATOM     26  C   UNL     1      -0.739  11.821  21.287  0.00  0.00    +0.000 A 
ATOM     27  C   UNL     1      -1.067  11.591  22.726  0.00  0.00    +0.000 C 
ATOM     28  C   UNL     1       0.100  10.796  20.585  0.00  0.00    +0.000 A 
ATOM     29  N   UNL     1       0.371   9.677  21.186  0.00  0.00    +0.000 NA
ENDBRANCH  17  18
ENDBRANCH   1  17
TORSDOF 4
ENDMDL
MODEL 6
REMARK VINA RESULT:      -8.8      1.739      3.459
REMARK  Name = 
REMARK  6 active torsions:
REMARK  status: ('A' for Active; 'I' for Inactive)
REMARK    1  A    between atoms: C_1  and  C_2
REMARK    2  A    between atoms: C_6  and  N_7
REMARK    3  A    between atoms: N_7  and  C_8
REMARK    4  A    between atoms: C_8  and  C_9
REMARK    5  A    between atoms: C_17  and  C_18
REMARK    6  A    between atoms: C_21  and  C_22
REMARK                            x       y       z     vdW  Elec       q    Type
REMARK                         _______ _______ _______ _____ _____    ______ ____
ROOT
ATOM      1  N   UNL     1       2.277   7.431  18.260  0.00  0.00    +0.000 N 
ATOM      2  H   UNL     1       1.559   6.830  18.654  0.00  0.00    +0.000 HD
ENDROOT
BRANCH   1   8
ATOM      3  C   UNL     1       4.418   3.109  16.829  0.00  0.00    +0.000 C 
ATOM      4  C   UNL     1       4.369   4.600  17.050  0.00  0.00    +0.000 A 
ATOM      5  C   UNL     1       5.472   5.328  16.554  0.00  0.00    +0.000 A 
ATOM      6  C   UNL     1       5.524   6.706  16.654  0.00  0.00    +0.000 A 
ATOM      7  C   UNL     1       4.453   7.382  17.226  0.00  0.00    +0.000 A 
ATOM      8  C   UNL     1       3.329   6.712  17.717  0.00  0.00    +0.000 A 
ATOM      9  C   UNL     1       3.303   5.288  17.707  0.00  0.00    +0.000 A 
BRANCH   9  10
ATOM     10  C   UNL     1       2.109   4.506  18.252  0.00  0.00    +0.000 C 
ATOM     11  O   UNL     1       1.156   4.310  17.494  0.00  0.00    +0.000 OA
ATOM     12  N   UNL     1       2.030   4.028  19.572  0.00  0.00    +0.000 N 
ATOM     13  C   UNL     1       3.029   3.989  20.632  0.00  0.00    +0.000 C 
ATOM     14  C   UNL     1       2.686   2.762  21.447  0.00  0.00    +0.000 C 
ATOM     15  C   UNL     1       1.165   2.728  21.381  0.00  0.00    +0.000 C 
ATOM     16  C   UNL     1       0.819   3.353  20.027  0.00  0.00    +0.000 C 
ENDBRANCH   9  10
ENDBRANCH   1   8
BRANCH   1  17
ATOM     17  C   UNL     1       1.845   8.765  17.900  0.00  0.00    +0.000 C 
BRANCH  17  18
ATOM     18  C   UNL     1       1.075   9.393  19.034  0.00  0.00    +0.000 A 
ATOM     19  C   UNL     1       1.424   9.194  20.310  0.00  0.00    +0.000 A 
ATOM     20  C   UNL     1       0.672   9.855  21.374  0.00  0.00    +0.000 A 
ATOM     21  O   UNL     1       0.994   9.641  22.543  0.00  0.00    +0.000 OA
ATOM     22  N   UNL     1      -0.333  10.700  20.947  0.00  0.00    +0.000 N 
ATOM     23  C   UNL     1      -0.997  11.465  21.891  0.00  0.00    +0.000 A 
ATOM     24  C   UNL     1      -1.962  12.320  21.543  0.00  0.00    +0.000 A 
ATOM     25  C   UNL     1      -2.382  12.407  20.171  0.00  0.00    +0.000 A 
ATOM     26  C   UNL     1      -1.799  11.670  19.213  0.00  0.00    +0.000 A 
ATOM     27  C   UNL     1      -2.264  11.645  17.793  0.00  0.00    +0.000 C 
ATOM     28  C   UNL     1      -0.644  10.792  19.590  0.00  0.00    +0.000 A 
ATOM     29  N   UNL     1       0.016  10.175  18.657  0.00  0.00    +0.000 NA
ENDBRANCH  17  18
ENDBRANCH   1  17
TORSDOF 4
ENDMDL
MODEL 7
REMARK VINA RESULT:      -8.8      1.734      2.517
REMARK  Name = 
REMARK  6 active torsions:
REMARK  status: ('A' for Active; 'I' for Inactive)
REMARK    1  A    between atoms: C_1  and  C_2
REMARK    2  A    between atoms: C_6  and  N_7
REMARK    3  A    between atoms: N_7  and  C_8
REMARK    4  A    between atoms: C_8  and  C_9
REMARK    5  A    between atoms: C_17  and  C_18
REMARK    6  A    between atoms: C_21  and  C_22
REMARK                            x       y       z     vdW  Elec       q    Type
REMARK                         _______ _______ _______ _____ _____    ______ ____
ROOT
ATOM      1  N   UNL     1       2.973   5.866  20.051  0.00  0.00    +0.000 N 
ATOM      2  H   UNL     1       3.862   6.020  20.520  0.00  0.00    +0.000 HD
ENDROOT
BRANCH   1   8
ATOM      3  C   UNL     1       4.782   3.661  15.907  0.00  0.00    +0.000 C 
ATOM      4  C   UNL     1       3.893   3.763  17.121  0.00  0.00    +0.000 A 
ATOM      5  C   UNL     1       3.118   2.619  17.410  0.00  0.00    +0.000 A 
ATOM      6  C   UNL     1       2.297   2.572  18.521  0.00  0.00    +0.000 A 
ATOM      7  C   UNL     1       2.264   3.663  19.383  0.00  0.00    +0.000 A 
ATOM      8  C   UNL     1       3.024   4.813  19.154  0.00  0.00    +0.000 A 
ATOM      9  C   UNL     1       3.800   4.914  17.963  0.00  0.00    +0.000 A 
BRANCH   9  10
ATOM     10  C   UNL     1       4.632   6.157  17.654  0.00  0.00    +0.000 C 
ATOM     11  O   UNL     1       4.054   7.127  17.157  0.00  0.00    +0.000 OA
ATOM     12  N   UNL     1       6.018   6.241  17.878  0.00  0.00    +0.000 N 
ATOM     13  C   UNL     1       6.929   5.331  18.560  0.00  0.00    +0.000 C 
ATOM     14  C   UNL     1       7.999   6.221  19.152  0.00  0.00    +0.000 C 
ATOM     15  C   UNL     1       8.136   7.322  18.110  0.00  0.00    +0.000 C 
ATOM     16  C   UNL     1       6.744   7.444  17.484  0.00  0.00    +0.000 C 
ENDBRANCH   9  10
ENDBRANCH   1   8
BRANCH   1  17
ATOM     17  C   UNL     1       1.808   6.379  20.740  0.00  0.00    +0.000 C 
BRANCH  17  18
ATOM     18  C   UNL     1       1.498   7.781  20.280  0.00  0.00    +0.000 A 
ATOM     19  C   UNL     1       1.908   8.232  19.089  0.00  0.00    +0.000 A 
ATOM     20  C   UNL     1       1.550   9.584  18.670  0.00  0.00    +0.000 A 
ATOM     21  O   UNL     1       1.955   9.990  17.580  0.00  0.00    +0.000 OA
ATOM     22  N   UNL     1       0.744  10.280  19.550  0.00  0.00    +0.000 N 
ATOM     23  C   UNL     1       0.253  11.515  19.159  0.00  0.00    +0.000 A 
ATOM     24  C   UNL     1      -0.551  12.228  19.952  0.00  0.00    +0.000 A 
ATOM     25  C   UNL     1      -0.862  11.752  21.272  0.00  0.00    +0.000 A 
ATOM     26  C   UNL     1      -0.392  10.579  21.721  0.00  0.00    +0.000 A 
ATOM     27  C   UNL     1      -0.600  10.086  23.117  0.00  0.00    +0.000 C 
ATOM     28  C   UNL     1       0.419   9.729  20.790  0.00  0.00    +0.000 A 
ATOM     29  N   UNL     1       0.769   8.535  21.161  0.00  0.00    +0.000 NA
ENDBRANCH  17  18
ENDBRANCH   1  17
TORSDOF 4
ENDMDL
MODEL 8
REMARK VINA RESULT:      -8.7      1.705      3.442
REMARK  Name = 
REMARK  6 active torsions:
REMARK  status: ('A' for Active; 'I' for Inactive)
REMARK    1  A    between atoms: C_1  and  C_2
REMARK    2  A    between atoms: C_6  and  N_7
REMARK    3  A    between atoms: N_7  and  C_8
REMARK    4  A    between atoms: C_8  and  C_9
REMARK    5  A    between atoms: C_17  and  C_18
REMARK    6  A    between atoms: C_21  and  C_22
REMARK                            x       y       z     vdW  Elec       q    Type
REMARK                         _______ _______ _______ _____ _____    ______ ____
ROOT
ATOM      1  N   UNL     1       2.219   7.387  18.781  0.00  0.00    +0.000 N 
ATOM      2  H   UNL     1       1.777   8.155  18.284  0.00  0.00    +0.000 HD
ENDROOT
BRANCH   1   8
ATOM      3  C   UNL     1       4.222   3.378  16.494  0.00  0.00    +0.000 C 
ATOM      4  C   UNL     1       4.193   4.815  16.952  0.00  0.00    +0.000 A 
ATOM      5  C   UNL     1       5.246   5.629  16.481  0.00  0.00    +0.000 A 
ATOM      6  C   UNL     1       5.306   6.974  16.794  0.00  0.00    +0.000 A 
ATOM      7  C   UNL     1       4.291   7.535  17.561  0.00  0.00    +0.000 A 
ATOM      8  C   UNL     1       3.217   6.779  18.038  0.00  0.00    +0.000 A 
ATOM      9  C   UNL     1       3.192   5.374  17.805  0.00  0.00    +0.000 A 
BRANCH   9  10
ATOM     10  C   UNL     1       2.053   4.498  18.323  0.00  0.00    +0.000 C 
ATOM     11  O   UNL     1       1.119   4.252  17.554  0.00  0.00    +0.000 OA
ATOM     12  N   UNL     1       2.001   3.985  19.632  0.00  0.00    +0.000 N 
ATOM     13  C   UNL     1       2.994   3.991  20.697  0.00  0.00    +0.000 C 
ATOM     14  C   UNL     1       2.735   2.725  21.482  0.00  0.00    +0.000 C 
ATOM     15  C   UNL     1       1.220   2.586  21.405  0.00  0.00    +0.000 C 
ATOM     16  C   UNL     1       0.838   3.216  20.063  0.00  0.00    +0.000 C 
ENDBRANCH   9  10
ENDBRANCH   1   8
BRANCH   1  17
ATOM     17  C   UNL     1       2.098   7.427  20.223  0.00  0.00    +0.000 C 
BRANCH  17  18
ATOM     18  C   UNL     1       1.142   8.516  20.642  0.00  0.00    +0.000 A 
ATOM     19  C   UNL     1       1.030   8.893  21.921  0.00  0.00    +0.000 A 
ATOM     20  C   UNL     1       0.120   9.980  22.274  0.00  0.00    +0.000 A 
ATOM     21  O   UNL     1       0.014  10.297  23.458  0.00  0.00    +0.000 OA
ATOM     22  N   UNL     1      -0.524  10.578  21.208  0.00  0.00    +0.000 N 
ATOM     23  C   UNL     1      -1.295  11.702  21.451  0.00  0.00    +0.000 A 
ATOM     24  C   UNL     1      -1.924  12.343  20.463  0.00  0.00    +0.000 A 
ATOM     25  C   UNL     1      -1.869  11.825  19.123  0.00  0.00    +0.000 A 
ATOM     26  C   UNL     1      -1.164  10.722  18.828  0.00  0.00    +0.000 A 
ATOM     27  C   UNL     1      -1.157  10.084  17.477  0.00  0.00    +0.000 C 
ATOM     28  C   UNL     1      -0.370  10.068  19.919  0.00  0.00    +0.000 A 
ATOM     29  N   UNL     1       0.421   9.081  19.624  0.00  0.00    +0.000 NA
ENDBRANCH  17  18
ENDBRANCH   1  17
TORSDOF 4
ENDMDL
MODEL 9
REMARK VINA RESULT:      -8.7      1.693      1.926
REMARK  Name = 
REMARK  6 active torsions:
REMARK  status: ('A' for Active; 'I' for Inactive)
REMARK    1  A    between atoms: C_1  and  C_2
REMARK    2  A    between atoms: C_6  and  N_7
REMARK    3  A    between atoms: N_7  and  C_8
REMARK    4  A    between atoms: C_8  and  C_9
REMARK    5  A    between atoms: C_17  and  C_18
REMARK    6  A    between atoms: C_21  and  C_22
REMARK                            x       y       z     vdW  Elec       q    Type
REMARK                         _______ _______ _______ _____ _____    ______ ____
ROOT
ATOM      1  N   UNL     1       2.744   6.515  20.127  0.00  0.00    +0.000 N 
ATOM      2  H   UNL     1       3.002   6.800  21.068  0.00  0.00    +0.000 HD
ENDROOT
BRANCH   1   8
ATOM      3  C   UNL     1       4.158   1.803  19.078  0.00  0.00    +0.000 C 
ATOM      4  C   UNL     1       3.182   2.873  19.497  0.00  0.00    +0.000 A 
ATOM      5  C   UNL     1       1.920   2.414  19.932  0.00  0.00    +0.000 A 
ATOM      6  C   UNL     1       0.954   3.294  20.384  0.00  0.00    +0.000 A 
ATOM      7  C   UNL     1       1.250   4.651  20.438  0.00  0.00    +0.000 A 
ATOM      8  C   UNL     1       2.489   5.158  20.036  0.00  0.00    +0.000 A 
ATOM      9  C   UNL     1       3.459   4.275  19.479  0.00  0.00    +0.000 A 
BRANCH   9  10
ATOM     10  C   UNL     1       4.820   4.780  19.004  0.00  0.00    +0.000 C 
ATOM     11  O   UNL     1       5.599   5.220  19.853  0.00  0.00    +0.000 OA
ATOM     12  N   UNL     1       5.215   4.795  17.654  0.00  0.00    +0.000 N 
ATOM     13  C   UNL     1       4.582   4.230  16.470  0.00  0.00    +0.000 C 
ATOM     14  C   UNL     1       5.726   3.869  15.548  0.00  0.00    +0.000 C 
ATOM     15  C   UNL     1       6.738   4.973  15.821  0.00  0.00    +0.000 C 
ATOM     16  C   UNL     1       6.508   5.362  17.284  0.00  0.00    +0.000 C 
ENDBRANCH   9  10
ENDBRANCH   1   8
BRANCH   1  17
ATOM     17  C   UNL     1       2.222   7.566  19.279  0.00  0.00    +0.000 C 
BRANCH  17  18
ATOM     18  C   UNL     1       1.377   8.522  20.084  0.00  0.00    +0.000 A 
ATOM     19  C   UNL     1       0.650   8.103  21.126  0.00  0.00    +0.000 A 
ATOM     20  C   UNL     1      -0.123   9.071  21.900  0.00  0.00    +0.000 A 
ATOM     21  O   UNL     1      -0.803   8.663  22.842  0.00  0.00    +0.000 OA
ATOM     22  N   UNL     1       0.016  10.387  21.504  0.00  0.00    +0.000 N 
ATOM     23  C   UNL     1      -0.577  11.373  22.275  0.00  0.00    +0.000 A 
ATOM     24  C   UNL     1      -0.460  12.666  21.962  0.00  0.00    +0.000 A 
ATOM     25  C   UNL     1       0.230  13.055  20.763  0.00  0.00    +0.000 A 
ATOM     26  C   UNL     1       0.800  12.145  19.958  0.00  0.00    +0.000 A 
ATOM     27  C   UNL     1       1.439  12.484  18.651  0.00  0.00    +0.000 C 
ATOM     28  C   UNL     1       0.762  10.703  20.369  0.00  0.00    +0.000 A 
ATOM     29  N   UNL     1       1.421   9.827  19.673  0.00  0.00    +0.000 NA
ENDBRANCH  17  18
ENDBRANCH   1  17
TORSDOF 4
ENDMDL
