MODEL 1
REMARK VINA RESULT:      -9.2      0.000      0.000
REMARK  Name = 
REMARK  3 active torsions:
REMARK  status: ('A' for Active; 'I' for Inactive)
REMARK    1  A    between atoms: C_2  and  C_17
REMARK    2  A    between atoms: N_3  and  C_4
REMARK    3  A    between atoms: C_9  and  N_10
REMARK                            x       y       z     vdW  Elec       q    Type
REMARK                         _______ _______ _______ _____ _____    ______ ____
ROOT
ATOM      1  O   UNL     1       2.262   9.221  17.055  0.00  0.00    +0.000 OA
ATOM      2  C   UNL     1       2.003   8.809  18.181  0.00  0.00    +0.000 C 
ATOM      3  N   UNL     1       2.492   7.654  18.756  0.00  0.00    +0.000 N 
ATOM      4  H   UNL     1       1.935   7.267  19.513  0.00  0.00    +0.000 HD
ENDROOT
BRANCH   2   5
ATOM      5  C   UNL     1       1.016   9.538  19.031  0.00  0.00    +0.000 A 
ATOM      6  C   UNL     1       0.546  10.779  18.646  0.00  0.00    +0.000 A 
ATOM      7  N   UNL     1      -0.202  11.554  19.471  0.00  0.00    +0.000 NA
ATOM      8  C   UNL     1      -0.422  11.068  20.710  0.00  0.00    +0.000 A 
ATOM      9  C   UNL     1      -1.028  11.877  21.665  0.00  0.00    +0.000 A 
ATOM     10  C   UNL     1      -1.207  11.437  22.977  0.00  0.00    +0.000 A 
ATOM     11  C   UNL     1      -0.818  10.150  23.329  0.00  0.00    +0.000 A 
ATOM     12  C   UNL     1      -0.233   9.319  22.373  0.00  0.00    +0.000 A 
ATOM     13  C   UNL     1       0.006   9.765  21.080  0.00  0.00    +0.000 A 
ATOM     14  N   UNL     1       0.693   8.977  20.229  0.00  0.00    +0.000 NA
ENDBRANCH   2   5
BRANCH   3  15
ATOM     15  C   UNL     1       3.330   6.741  18.086  0.00  0.00    +0.000 A 
ATOM     16  C   UNL     1       4.373   7.241  17.299  0.00  0.00    +0.000 A 
ATOM     17  C   UNL     1       5.371   6.385  16.834  0.00  0.00    +0.000 A 
ATOM     18  C   UNL     1       5.325   5.039  17.178  0.00  0.00    +0.000 A 
ATOM     19  C   UNL     1       4.258   4.533  17.930  0.00  0.00    +0.000 A 
ATOM     20  C   UNL     1       3.197   5.350  18.357  0.00  0.00    +0.000 A 
BRANCH  20  21
ATOM     21  N   UNL     1       2.025   4.814  18.931  0.00  0.00    +0.000 N 
ATOM     22  C   UNL     1       1.665   5.070  20.326  0.00  0.00    +0.000 C 
ATOM     23  C   UNL     1       2.240   4.053  21.318  0.00  0.00    +0.000 C 
ATOM     24  C   UNL     1       1.548   2.693  21.337  0.00  0.00    +0.000 C 
ATOM     25  C   UNL     1       1.580   1.963  20.005  0.00  0.00    +0.000 C 
ATOM     26  C   UNL     1       0.683   2.639  18.982  0.00  0.00    +0.000 C 
ATOM     27  C   UNL     1       1.380   3.722  18.179  0.00  0.00    +0.000 C 
ENDBRANCH  20  21
ENDBRANCH   3  15
TORSDOF 3
ENDMDL
MODEL 2
REMARK VINA RESULT:      -9.0      0.826      1.527
REMARK  Name = 
REMARK  3 active torsions:
REMARK  status: ('A' for Active; 'I' for Inactive)
REMARK    1  A    between atoms: C_2  and  C_17
REMARK    2  A    between atoms: N_3  and  C_4
REMARK    3  A    between atoms: C_9  and  N_10
REMARK                            x       y       z     vdW  Elec       q    Type
REMARK                         _______ _______ _______ _____ _____    ______ ____
ROOT
ATOM      1  O   UNL     1       1.321   8.674  17.590  0.00  0.00    +0.000 OA
ATOM      2  C   UNL     1       1.815   8.440  18.688  0.00  0.00    +0.000 C 
ATOM      3  N   UNL     1       2.828   7.539  18.948  0.00  0.00    +0.000 N 
ATOM      4  H   UNL     1       2.880   7.197  19.904  0.00  0.00    +0.000 HD
ENDROOT
BRANCH   2   5
ATOM      5  C   UNL     1       1.266   9.102  19.908  0.00  0.00    +0.000 A 
ATOM      6  C   UNL     1       1.358   8.481  21.139  0.00  0.00    +0.000 A 
ATOM      7  N   UNL     1       0.714   8.955  22.235  0.00  0.00    +0.000 NA
ATOM      8  C   UNL     1      -0.063  10.041  22.047  0.00  0.00    +0.000 A 
ATOM      9  C   UNL     1      -0.887  10.480  23.078  0.00  0.00    +0.000 A 
ATOM     10  C   UNL     1      -1.758  11.556  22.899  0.00  0.00    +0.000 A 
ATOM     11  C   UNL     1      -1.771  12.235  21.687  0.00  0.00    +0.000 A 
ATOM     12  C   UNL     1      -0.929  11.822  20.654  0.00  0.00    +0.000 A 
ATOM     13  C   UNL     1      -0.101  10.716  20.798  0.00  0.00    +0.000 A 
ATOM     14  N   UNL     1       0.595  10.272  19.731  0.00  0.00    +0.000 NA
ENDBRANCH   2   5
BRANCH   3  15
ATOM     15  C   UNL     1       3.401   6.703  17.968  0.00  0.00    +0.000 A 
ATOM     16  C   UNL     1       4.340   7.250  17.088  0.00  0.00    +0.000 A 
ATOM     17  C   UNL     1       5.114   6.414  16.283  0.00  0.00    +0.000 A 
ATOM     18  C   UNL     1       4.955   5.038  16.385  0.00  0.00    +0.000 A 
ATOM     19  C   UNL     1       3.986   4.494  17.236  0.00  0.00    +0.000 A 
ATOM     20  C   UNL     1       3.137   5.306  18.009  0.00  0.00    +0.000 A 
BRANCH  20  21
ATOM     21  N   UNL     1       2.029   4.778  18.705  0.00  0.00    +0.000 N 
ATOM     22  C   UNL     1       1.817   5.047  20.129  0.00  0.00    +0.000 C 
ATOM     23  C   UNL     1       2.488   4.033  21.063  0.00  0.00    +0.000 C 
ATOM     24  C   UNL     1       1.798   2.677  21.164  0.00  0.00    +0.000 C 
ATOM     25  C   UNL     1       1.689   1.937  19.841  0.00  0.00    +0.000 C 
ATOM     26  C   UNL     1       0.692   2.610  18.912  0.00  0.00    +0.000 C 
ATOM     27  C   UNL     1       1.306   3.684  18.033  0.00  0.00    +0.000 C 
ENDBRANCH  20  21
ENDBRANCH   3  15
TORSDOF 3
ENDMDL
MODEL 3
REMARK VINA RESULT:      -9.0      3.109      8.217
REMARK  Name = 
REMARK  3 active torsions:
REMARK  status: ('A' for Active; 'I' for Inactive)
REMARK    1  A    between atoms: C_2  and  C_17
REMARK    2  A    between atoms: N_3  and  C_4
REMARK    3  A    between atoms: C_9  and  N_10
REMARK                            x       y       z     vdW  Elec       q    Type
REMARK                         _______ _______ _______ _____ _____    ______ ____
ROOT
ATOM      1  O   UNL     1       5.281   3.821  18.909  0.00  0.00    +0.000 OA
ATOM      2  C   UNL     1       4.863   4.203  17.822  0.00  0.00    +0.000 C 
ATOM      3  N   UNL     1       3.541   4.431  17.494  0.00  0.00    +0.000 N 
ATOM      4  H   UNL     1       3.319   4.391  16.503  0.00  0.00    +0.000 HD
ENDROOT
BRANCH   2   5
ATOM      5  C   UNL     1       5.809   4.387  16.682  0.00  0.00    +0.000 A 
ATOM      6  C   UNL     1       6.798   5.351  16.746  0.00  0.00    +0.000 A 
ATOM      7  N   UNL     1       7.556   5.678  15.670  0.00  0.00    +0.000 NA
ATOM      8  C   UNL     1       7.259   5.045  14.516  0.00  0.00    +0.000 A 
ATOM      9  C   UNL     1       7.872   5.450  13.335  0.00  0.00    +0.000 A 
ATOM     10  C   UNL     1       7.539   4.868  12.112  0.00  0.00    +0.000 A 
ATOM     11  C   UNL     1       6.615   3.832  12.072  0.00  0.00    +0.000 A 
ATOM     12  C   UNL     1       6.012   3.398  13.254  0.00  0.00    +0.000 A 
ATOM     13  C   UNL     1       6.290   4.008  14.471  0.00  0.00    +0.000 A 
ATOM     14  N   UNL     1       5.587   3.646  15.563  0.00  0.00    +0.000 NA
ENDBRANCH   2   5
BRANCH   3  15
ATOM     15  C   UNL     1       2.465   4.190  18.371  0.00  0.00    +0.000 A 
ATOM     16  C   UNL     1       1.831   2.945  18.327  0.00  0.00    +0.000 A 
ATOM     17  C   UNL     1       0.945   2.575  19.339  0.00  0.00    +0.000 A 
ATOM     18  C   UNL     1       0.720   3.448  20.397  0.00  0.00    +0.000 A 
ATOM     19  C   UNL     1       1.325   4.711  20.418  0.00  0.00    +0.000 A 
ATOM     20  C   UNL     1       2.167   5.148  19.380  0.00  0.00    +0.000 A 
BRANCH  20  21
ATOM     21  N   UNL     1       2.610   6.485  19.290  0.00  0.00    +0.000 N 
ATOM     22  C   UNL     1       2.549   7.394  20.436  0.00  0.00    +0.000 C 
ATOM     23  C   UNL     1       1.231   8.168  20.551  0.00  0.00    +0.000 C 
ATOM     24  C   UNL     1       1.059   9.319  19.565  0.00  0.00    +0.000 C 
ATOM     25  C   UNL     1       1.109   8.898  18.105  0.00  0.00    +0.000 C 
ATOM     26  C   UNL     1       2.513   8.481  17.698  0.00  0.00    +0.000 C 
ATOM     27  C   UNL     1       2.804   7.010  17.927  0.00  0.00    +0.000 C 
ENDBRANCH  20  21
ENDBRANCH   3  15
TORSDOF 3
ENDMDL
MODEL 4
REMARK VINA RESULT:      -8.8      1.968      4.268
REMARK  Name = 
REMARK  3 active torsions:
REMARK  status: ('A' for Active; 'I' for Inactive)
REMARK    1  A    between atoms: C_2  and  C_17
REMARK    2  A    between atoms: N_3  and  C_4
REMARK    3  A    between atoms: C_9  and  N_10
REMARK                            x       y       z     vdW  Elec       q    Type
REMARK                         _______ _______ _______ _____ _____    ______ ____
ROOT
ATOM      1  O   UNL     1       2.482   6.583  20.476  0.00  0.00    +0.000 OA
ATOM      2  C   UNL     1       2.083   6.892  19.358  0.00  0.00    +0.000 C 
ATOM      3  N   UNL     1       1.934   6.037  18.283  0.00  0.00    +0.000 N 
ATOM      4  H   UNL     1       1.946   6.475  17.366  0.00  0.00    +0.000 HD
ENDROOT
BRANCH   2   5
ATOM      5  C   UNL     1       1.782   8.319  19.042  0.00  0.00    +0.000 A 
ATOM      6  C   UNL     1       2.263   8.891  17.879  0.00  0.00    +0.000 A 
ATOM      7  N   UNL     1       2.173  10.224  17.642  0.00  0.00    +0.000 NA
ATOM      8  C   UNL     1       1.633  10.971  18.627  0.00  0.00    +0.000 A 
ATOM      9  C   UNL     1       1.667  12.358  18.532  0.00  0.00    +0.000 A 
ATOM     10  C   UNL     1       1.183  13.165  19.562  0.00  0.00    +0.000 A 
ATOM     11  C   UNL     1       0.613  12.578  20.685  0.00  0.00    +0.000 A 
ATOM     12  C   UNL     1       0.549  11.188  20.781  0.00  0.00    +0.000 A 
ATOM     13  C   UNL     1       1.080  10.372  19.790  0.00  0.00    +0.000 A 
ATOM     14  N   UNL     1       1.116   9.038  19.986  0.00  0.00    +0.000 NA
ENDBRANCH   2   5
BRANCH   3  15
ATOM     15  C   UNL     1       2.289   4.674  18.314  0.00  0.00    +0.000 A 
ATOM     16  C   UNL     1       1.318   3.737  18.684  0.00  0.00    +0.000 A 
ATOM     17  C   UNL     1       1.546   2.376  18.480  0.00  0.00    +0.000 A 
ATOM     18  C   UNL     1       2.736   1.969  17.889  0.00  0.00    +0.000 A 
ATOM     19  C   UNL     1       3.724   2.905  17.558  0.00  0.00    +0.000 A 
ATOM     20  C   UNL     1       3.561   4.278  17.814  0.00  0.00    +0.000 A 
BRANCH  20  21
ATOM     21  N   UNL     1       4.624   5.194  17.677  0.00  0.00    +0.000 N 
ATOM     22  C   UNL     1       4.925   5.838  16.397  0.00  0.00    +0.000 C 
ATOM     23  C   UNL     1       5.904   5.052  15.517  0.00  0.00    +0.000 C 
ATOM     24  C   UNL     1       7.366   5.111  15.948  0.00  0.00    +0.000 C 
ATOM     25  C   UNL     1       7.622   4.575  17.347  0.00  0.00    +0.000 C 
ATOM     26  C   UNL     1       7.054   5.504  18.407  0.00  0.00    +0.000 C 
ATOM     27  C   UNL     1       5.612   5.205  18.772  0.00  0.00    +0.000 C 
ENDBRANCH  20  21
ENDBRANCH   3  15
TORSDOF 3
ENDMDL
MODEL 5
REMARK VINA RESULT:      -8.5      1.992      4.288
REMARK  Name = 
REMARK  3 active torsions:
REMARK  status: ('A' for Active; 'I' for Inactive)
REMARK    1  A    between atoms: C_2  and  C_17
REMARK    2  A    between atoms: N_3  and  C_4
REMARK    3  A    between atoms: C_9  and  N_10
REMARK                            x       y       z     vdW  Elec       q    Type
REMARK                         _______ _______ _______ _____ _____    ______ ____
ROOT
ATOM      1  O   UNL     1       2.047   5.807  21.470  0.00  0.00    +0.000 OA
ATOM      2  C   UNL     1       1.837   6.489  20.472  0.00  0.00    +0.000 C 
ATOM      3  N   UNL     1       1.859   6.045  19.165  0.00  0.00    +0.000 N 
ATOM      4  H   UNL     1       2.023   6.758  18.460  0.00  0.00    +0.000 HD
ENDROOT
BRANCH   2   5
ATOM      5  C   UNL     1       1.603   7.956  20.609  0.00  0.00    +0.000 A 
ATOM      6  C   UNL     1       1.502   8.532  21.861  0.00  0.00    +0.000 A 
ATOM      7  N   UNL     1       1.107   9.819  22.033  0.00  0.00    +0.000 NA
ATOM      8  C   UNL     1       0.770  10.494  20.915  0.00  0.00    +0.000 A 
ATOM      9  C   UNL     1       0.192  11.754  21.023  0.00  0.00    +0.000 A 
ATOM     10  C   UNL     1      -0.236  12.453  19.894  0.00  0.00    +0.000 A 
ATOM     11  C   UNL     1      -0.040  11.906  18.632  0.00  0.00    +0.000 A 
ATOM     12  C   UNL     1       0.563  10.654  18.508  0.00  0.00    +0.000 A 
ATOM     13  C   UNL     1       0.939   9.921  19.626  0.00  0.00    +0.000 A 
ATOM     14  N   UNL     1       1.394   8.662  19.464  0.00  0.00    +0.000 NA
ENDBRANCH   2   5
BRANCH   3  15
ATOM     15  C   UNL     1       2.194   4.728  18.793  0.00  0.00    +0.000 A 
ATOM     16  C   UNL     1       1.240   3.720  18.964  0.00  0.00    +0.000 A 
ATOM     17  C   UNL     1       1.430   2.469  18.377  0.00  0.00    +0.000 A 
ATOM     18  C   UNL     1       2.565   2.247  17.607  0.00  0.00    +0.000 A 
ATOM     19  C   UNL     1       3.539   3.243  17.471  0.00  0.00    +0.000 A 
ATOM     20  C   UNL     1       3.417   4.492  18.106  0.00  0.00    +0.000 A 
BRANCH  20  21
ATOM     21  N   UNL     1       4.482   5.417  18.144  0.00  0.00    +0.000 N 
ATOM     22  C   UNL     1       4.749   6.329  17.030  0.00  0.00    +0.000 C 
ATOM     23  C   UNL     1       5.698   5.759  15.969  0.00  0.00    +0.000 C 
ATOM     24  C   UNL     1       7.172   5.722  16.359  0.00  0.00    +0.000 C 
ATOM     25  C   UNL     1       7.466   4.890  17.596  0.00  0.00    +0.000 C 
ATOM     26  C   UNL     1       6.933   5.560  18.852  0.00  0.00    +0.000 C 
ATOM     27  C   UNL     1       5.501   5.186  19.184  0.00  0.00    +0.000 C 
ENDBRANCH  20  21
ENDBRANCH   3  15
TORSDOF 3
ENDMDL
MODEL 6
REMARK VINA RESULT:      -8.4      1.824      4.108
REMARK  Name = 
REMARK  3 active torsions:
REMARK  status: ('A' for Active; 'I' for Inactive)
REMARK    1  A    between atoms: C_2  and  C_17
REMARK    2  A    between atoms: N_3  and  C_4
REMARK    3  A    between atoms: C_9  and  N_10
REMARK                            x       y       z     vdW  Elec       q    Type
REMARK                         _______ _______ _______ _____ _____    ______ ____
ROOT
ATOM      1  O   UNL     1       1.655   6.340  17.864  0.00  0.00    +0.000 OA
ATOM      2  C   UNL     1       2.057   7.055  18.776  0.00  0.00    +0.000 C 
ATOM      3  N   UNL     1       2.774   6.639  19.879  0.00  0.00    +0.000 N 
ATOM      4  H   UNL     1       2.724   7.245  20.693  0.00  0.00    +0.000 HD
ENDROOT
BRANCH   2   5
ATOM      5  C   UNL     1       1.709   8.506  18.793  0.00  0.00    +0.000 A 
ATOM      6  C   UNL     1       2.228   9.359  17.836  0.00  0.00    +0.000 A 
ATOM      7  N   UNL     1       2.091  10.706  17.921  0.00  0.00    +0.000 NA
ATOM      8  C   UNL     1       1.461  11.174  19.018  0.00  0.00    +0.000 A 
ATOM      9  C   UNL     1       1.436  12.543  19.262  0.00  0.00    +0.000 A 
ATOM     10  C   UNL     1       0.857  13.060  20.421  0.00  0.00    +0.000 A 
ATOM     11  C   UNL     1       0.252  12.201  21.330  0.00  0.00    +0.000 A 
ATOM     12  C   UNL     1       0.247  10.828  21.084  0.00  0.00    +0.000 A 
ATOM     13  C   UNL     1       0.871  10.293  19.964  0.00  0.00    +0.000 A 
ATOM     14  N   UNL     1       0.958   8.954  19.835  0.00  0.00    +0.000 NA
ENDBRANCH   2   5
BRANCH   3  15
ATOM     15  C   UNL     1       3.096   5.292  20.140  0.00  0.00    +0.000 A 
ATOM     16  C   UNL     1       2.294   4.571  21.029  0.00  0.00    +0.000 A 
ATOM     17  C   UNL     1       2.417   3.184  21.116  0.00  0.00    +0.000 A 
ATOM     18  C   UNL     1       3.329   2.531  20.296  0.00  0.00    +0.000 A 
ATOM     19  C   UNL     1       4.161   3.259  19.436  0.00  0.00    +0.000 A 
ATOM     20  C   UNL     1       4.116   4.663  19.372  0.00  0.00    +0.000 A 
BRANCH  20  21
ATOM     21  N   UNL     1       5.085   5.410  18.669  0.00  0.00    +0.000 N 
ATOM     22  C   UNL     1       4.933   5.721  17.247  0.00  0.00    +0.000 C 
ATOM     23  C   UNL     1       5.523   4.663  16.308  0.00  0.00    +0.000 C 
ATOM     24  C   UNL     1       7.045   4.660  16.196  0.00  0.00    +0.000 C 
ATOM     25  C   UNL     1       7.762   4.420  17.514  0.00  0.00    +0.000 C 
ATOM     26  C   UNL     1       7.623   5.614  18.445  0.00  0.00    +0.000 C 
ATOM     27  C   UNL     1       6.394   5.556  19.333  0.00  0.00    +0.000 C 
ENDBRANCH  20  21
ENDBRANCH   3  15
TORSDOF 3
ENDMDL
MODEL 7
REMARK VINA RESULT:      -8.4      1.728      4.198
REMARK  Name = 
REMARK  3 active torsions:
REMARK  status: ('A' for Active; 'I' for Inactive)
REMARK    1  A    between atoms: C_2  and  C_17
REMARK    2  A    between atoms: N_3  and  C_4
REMARK    3  A    between atoms: C_9  and  N_10
REMARK                            x       y       z     vdW  Elec       q    Type
REMARK                         _______ _______ _______ _____ _____    ______ ____
ROOT
ATOM      1  O   UNL     1       1.711   6.661  18.107  0.00  0.00    +0.000 OA
ATOM      2  C   UNL     1       2.008   6.884  19.276  0.00  0.00    +0.000 C 
ATOM      3  N   UNL     1       2.566   5.981  20.158  0.00  0.00    +0.000 N 
ATOM      4  H   UNL     1       2.425   6.182  21.144  0.00  0.00    +0.000 HD
ENDROOT
BRANCH   2   5
ATOM      5  C   UNL     1       1.695   8.210  19.884  0.00  0.00    +0.000 A 
ATOM      6  C   UNL     1       1.503   8.323  21.248  0.00  0.00    +0.000 A 
ATOM      7  N   UNL     1       1.037   9.463  21.818  0.00  0.00    +0.000 NA
ATOM      8  C   UNL     1       0.724  10.467  20.975  0.00  0.00    +0.000 A 
ATOM      9  C   UNL     1       0.080  11.598  21.465  0.00  0.00    +0.000 A 
ATOM     10  C   UNL     1      -0.324  12.627  20.613  0.00  0.00    +0.000 A 
ATOM     11  C   UNL     1      -0.039  12.547  19.256  0.00  0.00    +0.000 A 
ATOM     12  C   UNL     1       0.631  11.430  18.755  0.00  0.00    +0.000 A 
ATOM     13  C   UNL     1       0.986  10.372  19.582  0.00  0.00    +0.000 A 
ATOM     14  N   UNL     1       1.510   9.257  19.034  0.00  0.00    +0.000 NA
ENDBRANCH   2   5
BRANCH   3  15
ATOM     15  C   UNL     1       2.820   4.632  19.840  0.00  0.00    +0.000 A 
ATOM     16  C   UNL     1       1.982   3.648  20.375  0.00  0.00    +0.000 A 
ATOM     17  C   UNL     1       2.035   2.343  19.886  0.00  0.00    +0.000 A 
ATOM     18  C   UNL     1       2.913   2.040  18.852  0.00  0.00    +0.000 A 
ATOM     19  C   UNL     1       3.780   3.016  18.347  0.00  0.00    +0.000 A 
ATOM     20  C   UNL     1       3.806   4.325  18.862  0.00  0.00    +0.000 A 
BRANCH  20  21
ATOM     21  N   UNL     1       4.811   5.248  18.504  0.00  0.00    +0.000 N 
ATOM     22  C   UNL     1       4.796   5.941  17.214  0.00  0.00    +0.000 C 
ATOM     23  C   UNL     1       5.524   5.191  16.093  0.00  0.00    +0.000 C 
ATOM     24  C   UNL     1       7.048   5.237  16.155  0.00  0.00    +0.000 C 
ATOM     25  C   UNL     1       7.633   4.648  17.428  0.00  0.00    +0.000 C 
ATOM     26  C   UNL     1       7.348   5.535  18.630  0.00  0.00    +0.000 C 
ATOM     27  C   UNL     1       6.036   5.219  19.324  0.00  0.00    +0.000 C 
ENDBRANCH  20  21
ENDBRANCH   3  15
TORSDOF 3
ENDMDL
MODEL 8
REMARK VINA RESULT:      -8.3      1.885      2.596
REMARK  Name = 
REMARK  3 active torsions:
REMARK  status: ('A' for Active; 'I' for Inactive)
REMARK    1  A    between atoms: C_2  and  C_17
REMARK    2  A    between atoms: N_3  and  C_4
REMARK    3  A    between atoms: C_9  and  N_10
REMARK                            x       y       z     vdW  Elec       q    Type
REMARK                         _______ _______ _______ _____ _____    ______ ____
ROOT
ATOM      1  O   UNL     1       2.372   8.387  20.224  0.00  0.00    +0.000 OA
ATOM      2  C   UNL     1       1.823   8.478  19.131  0.00  0.00    +0.000 C 
ATOM      3  N   UNL     1       2.180   7.798  17.984  0.00  0.00    +0.000 N 
ATOM      4  H   UNL     1       1.887   8.225  17.109  0.00  0.00    +0.000 HD
ENDROOT
BRANCH   2   5
ATOM      5  C   UNL     1       0.708   9.450  18.937  0.00  0.00    +0.000 A 
ATOM      6  C   UNL     1       0.374  10.339  19.942  0.00  0.00    +0.000 A 
ATOM      7  N   UNL     1      -0.742  11.107  19.882  0.00  0.00    +0.000 NA
ATOM      8  C   UNL     1      -1.538  10.922  18.809  0.00  0.00    +0.000 A 
ATOM      9  C   UNL     1      -2.782  11.543  18.764  0.00  0.00    +0.000 A 
ATOM     10  C   UNL     1      -3.663  11.320  17.705  0.00  0.00    +0.000 A 
ATOM     11  C   UNL     1      -3.278  10.500  16.652  0.00  0.00    +0.000 A 
ATOM     12  C   UNL     1      -2.022   9.892  16.673  0.00  0.00    +0.000 A 
ATOM     13  C   UNL     1      -1.158  10.059  17.748  0.00  0.00    +0.000 A 
ATOM     14  N   UNL     1      -0.014   9.347  17.787  0.00  0.00    +0.000 NA
ENDBRANCH   2   5
BRANCH   3  15
ATOM     15  C   UNL     1       3.288   6.932  17.901  0.00  0.00    +0.000 A 
ATOM     16  C   UNL     1       4.443   7.382  17.254  0.00  0.00    +0.000 A 
ATOM     17  C   UNL     1       5.635   6.668  17.373  0.00  0.00    +0.000 A 
ATOM     18  C   UNL     1       5.663   5.520  18.157  0.00  0.00    +0.000 A 
ATOM     19  C   UNL     1       4.496   5.049  18.769  0.00  0.00    +0.000 A 
ATOM     20  C   UNL     1       3.260   5.701  18.614  0.00  0.00    +0.000 A 
BRANCH  20  21
ATOM     21  N   UNL     1       2.050   5.123  19.052  0.00  0.00    +0.000 N 
ATOM     22  C   UNL     1       1.614   5.216  20.446  0.00  0.00    +0.000 C 
ATOM     23  C   UNL     1       2.117   4.073  21.336  0.00  0.00    +0.000 C 
ATOM     24  C   UNL     1       1.407   2.736  21.150  0.00  0.00    +0.000 C 
ATOM     25  C   UNL     1       1.506   2.172  19.742  0.00  0.00    +0.000 C 
ATOM     26  C   UNL     1       0.678   2.987  18.761  0.00  0.00    +0.000 C 
ATOM     27  C   UNL     1       1.434   4.144  18.137  0.00  0.00    +0.000 C 
ENDBRANCH  20  21
ENDBRANCH   3  15
TORSDOF 3
ENDMDL
MODEL 9
REMARK VINA RESULT:      -8.3      1.876      4.063
REMARK  Name = 
REMARK  3 active torsions:
REMARK  status: ('A' for Active; 'I' for Inactive)
REMARK    1  A    between atoms: C_2  and  C_17
REMARK    2  A    between atoms: N_3  and  C_4
REMARK    3  A    between atoms: C_9  and  N_10
REMARK                            x       y       z     vdW  Elec       q    Type
REMARK                         _______ _______ _______ _____ _____    ______ ____
ROOT
ATOM      1  O   UNL     1       2.271   5.599  21.427  0.00  0.00    +0.000 OA
ATOM      2  C   UNL     1       1.794   6.060  20.395  0.00  0.00    +0.000 C 
ATOM      3  N   UNL     1       1.749   5.428  19.168  0.00  0.00    +0.000 N 
ATOM      4  H   UNL     1       1.664   6.039  18.360  0.00  0.00    +0.000 HD
ENDROOT
BRANCH   2   5
ATOM      5  C   UNL     1       1.266   7.455  20.377  0.00  0.00    +0.000 A 
ATOM      6  C   UNL     1       1.691   8.349  19.412  0.00  0.00    +0.000 A 
ATOM      7  N   UNL     1       1.383   9.669  19.468  0.00  0.00    +0.000 NA
ATOM      8  C   UNL     1       0.678  10.073  20.545  0.00  0.00    +0.000 A 
ATOM      9  C   UNL     1       0.475  11.432  20.760  0.00  0.00    +0.000 A 
ATOM     10  C   UNL     1      -0.187  11.893  21.899  0.00  0.00    +0.000 A 
ATOM     11  C   UNL     1      -0.696  10.980  22.814  0.00  0.00    +0.000 A 
ATOM     12  C   UNL     1      -0.522   9.613  22.596  0.00  0.00    +0.000 A 
ATOM     13  C   UNL     1       0.186   9.142  21.497  0.00  0.00    +0.000 A 
ATOM     14  N   UNL     1       0.444   7.822  21.397  0.00  0.00    +0.000 NA
ENDBRANCH   2   5
BRANCH   3  15
ATOM     15  C   UNL     1       2.312   4.161  18.920  0.00  0.00    +0.000 A 
ATOM     16  C   UNL     1       1.530   3.024  19.147  0.00  0.00    +0.000 A 
ATOM     17  C   UNL     1       1.951   1.780  18.675  0.00  0.00    +0.000 A 
ATOM     18  C   UNL     1       3.141   1.692  17.963  0.00  0.00    +0.000 A 
ATOM     19  C   UNL     1       3.942   2.824  17.773  0.00  0.00    +0.000 A 
ATOM     20  C   UNL     1       3.588   4.080  18.295  0.00  0.00    +0.000 A 
BRANCH  20  21
ATOM     21  N   UNL     1       4.482   5.171  18.288  0.00  0.00    +0.000 N 
ATOM     22  C   UNL     1       4.587   6.072  17.139  0.00  0.00    +0.000 C 
ATOM     23  C   UNL     1       5.612   5.630  16.088  0.00  0.00    +0.000 C 
ATOM     24  C   UNL     1       7.074   5.855  16.461  0.00  0.00    +0.000 C 
ATOM     25  C   UNL     1       7.509   5.130  17.724  0.00  0.00    +0.000 C 
ATOM     26  C   UNL     1       6.879   5.748  18.962  0.00  0.00    +0.000 C 
ATOM     27  C   UNL     1       5.531   5.153  19.324  0.00  0.00    +0.000 C 
ENDBRANCH  20  21
ENDBRANCH   3  15
TORSDOF 3
ENDMDL
