MODEL 1
REMARK VINA RESULT:      -7.8      0.000      0.000
REMARK  Name = 
REMARK  5 active torsions:
REMARK  status: ('A' for Active; 'I' for Inactive)
REMARK    1  A    between atoms: C_1  and  C_2
REMARK    2  A    between atoms: C_4  and  N_5
REMARK    3  A    between atoms: C_9  and  N_10
REMARK    4  A    between atoms: N_10  and  C_11
REMARK    5  A    between atoms: N_24  and  C_25
REMARK                            x       y       z     vdW  Elec       q    Type
REMARK                         _______ _______ _______ _____ _____    ______ ____
ROOT
ATOM      1  N   UNL     1       4.585   4.741  17.756  0.00  0.00    +0.000 N 
ATOM      2  C   UNL     1       4.035   3.583  18.480  0.00  0.00    +0.000 C 
ATOM      3  C   UNL     1       2.774   3.940  19.241  0.00  0.00    +0.000 C 
ATOM      4  C   UNL     1       3.031   5.145  20.130  0.00  0.00    +0.000 C 
ATOM      5  C   UNL     1       3.347   6.391  19.300  0.00  0.00    +0.000 C 
ATOM      6  C   UNL     1       4.469   6.097  18.281  0.00  0.00    +0.000 C 
ATOM      7  O   UNL     1       5.240   6.948  17.853  0.00  0.00    +0.000 OA
ENDROOT
BRANCH   1  11
ATOM      8  C   UNL     1       6.332   3.892  13.156  0.00  0.00    +0.000 C 
ATOM      9  C   UNL     1       6.194   4.181  14.604  0.00  0.00    +0.000 A 
ATOM     10  C   UNL     1       5.012   4.384  15.353  0.00  0.00    +0.000 A 
ATOM     11  C   UNL     1       5.426   4.530  16.660  0.00  0.00    +0.000 A 
ATOM     12  N   UNL     1       6.798   4.431  16.623  0.00  0.00    +0.000 N 
ATOM     13  C   UNL     1       7.743   4.634  17.694  0.00  0.00    +0.000 C 
ATOM     14  N   UNL     1       7.283   4.265  15.375  0.00  0.00    +0.000 NA
ENDBRANCH   1  11
BRANCH   5  15
ATOM     15  N   UNL     1       2.103   6.843  18.615  0.00  0.00    +0.000 N 
ATOM     16  H   UNL     1       1.272   6.395  18.995  0.00  0.00    +0.000 HD
BRANCH  15  17
ATOM     17  C   UNL     1       1.873   8.241  18.687  0.00  0.00    +0.000 A 
ATOM     18  N   UNL     1       2.239   8.990  17.638  0.00  0.00    +0.000 NA
ATOM     19  C   UNL     1       2.035  10.308  17.730  0.00  0.00    +0.000 A 
ATOM     20  N   UNL     1       1.490  10.943  18.766  0.00  0.00    +0.000 NA
ATOM     21  C   UNL     1       1.109  10.193  19.812  0.00  0.00    +0.000 A 
ATOM     22  C   UNL     1       0.522  10.800  20.925  0.00  0.00    +0.000 A 
ATOM     23  F   UNL     1       0.331  12.127  20.937  0.00  0.00    +0.000 F 
ATOM     24  C   UNL     1       0.115  10.079  22.050  0.00  0.00    +0.000 A 
ATOM     25  C   UNL     1       0.288   8.705  22.080  0.00  0.00    +0.000 A 
ATOM     26  C   UNL     1       0.860   8.065  20.981  0.00  0.00    +0.000 A 
ATOM     27  C   UNL     1       1.279   8.800  19.835  0.00  0.00    +0.000 A 
ENDBRANCH  15  17
ENDBRANCH   5  15
TORSDOF 3
ENDMDL
MODEL 2
REMARK VINA RESULT:      -7.6      3.327      7.667
REMARK  Name = 
REMARK  5 active torsions:
REMARK  status: ('A' for Active; 'I' for Inactive)
REMARK    1  A    between atoms: C_1  and  C_2
REMARK    2  A    between atoms: C_4  and  N_5
REMARK    3  A    between atoms: C_9  and  N_10
REMARK    4  A    between atoms: N_10  and  C_11
REMARK    5  A    between atoms: N_24  and  C_25
REMARK                            x       y       z     vdW  Elec       q    Type
REMARK                         _______ _______ _______ _____ _____    ______ ____
ROOT
ATOM      1  N   UNL     1       0.777  10.718  20.221  0.00  0.00    +0.000 N 
ATOM      2  C   UNL     1       0.382  10.759  21.639  0.00  0.00    +0.000 C 
ATOM      3  C   UNL     1       0.725   9.469  22.357  0.00  0.00    +0.000 C 
ATOM      4  C   UNL     1       0.145   8.286  21.600  0.00  0.00    +0.000 C 
ATOM      5  C   UNL     1       0.789   8.141  20.220  0.00  0.00    +0.000 C 
ATOM      6  C   UNL     1       0.738   9.479  19.451  0.00  0.00    +0.000 C 
ATOM      7  O   UNL     1       0.713   9.562  18.229  0.00  0.00    +0.000 OA
ENDROOT
BRANCH   1  11
ATOM      8  C   UNL     1       2.866  14.768  18.179  0.00  0.00    +0.000 C 
ATOM      9  C   UNL     1       1.928  13.699  18.601  0.00  0.00    +0.000 A 
ATOM     10  C   UNL     1       2.207  12.519  19.329  0.00  0.00    +0.000 A 
ATOM     11  C   UNL     1       0.984  11.916  19.531  0.00  0.00    +0.000 A 
ATOM     12  N   UNL     1       0.065  12.731  18.912  0.00  0.00    +0.000 N 
ATOM     13  C   UNL     1      -1.346  12.507  18.712  0.00  0.00    +0.000 C 
ATOM     14  N   UNL     1       0.629  13.795  18.302  0.00  0.00    +0.000 NA
ENDBRANCH   1  11
BRANCH   5  15
ATOM     15  N   UNL     1       2.193   7.671  20.388  0.00  0.00    +0.000 N 
ATOM     16  H   UNL     1       2.349   7.249  21.302  0.00  0.00    +0.000 HD
BRANCH  15  17
ATOM     17  C   UNL     1       2.605   6.710  19.428  0.00  0.00    +0.000 A 
ATOM     18  N   UNL     1       3.364   7.132  18.408  0.00  0.00    +0.000 NA
ATOM     19  C   UNL     1       3.725   6.219  17.500  0.00  0.00    +0.000 A 
ATOM     20  N   UNL     1       3.410   4.926  17.526  0.00  0.00    +0.000 NA
ATOM     21  C   UNL     1       2.663   4.498  18.556  0.00  0.00    +0.000 A 
ATOM     22  C   UNL     1       2.308   3.149  18.645  0.00  0.00    +0.000 A 
ATOM     23  F   UNL     1       2.726   2.288  17.706  0.00  0.00    +0.000 F 
ATOM     24  C   UNL     1       1.522   2.643  19.682  0.00  0.00    +0.000 A 
ATOM     25  C   UNL     1       1.073   3.496  20.677  0.00  0.00    +0.000 A 
ATOM     26  C   UNL     1       1.419   4.845  20.627  0.00  0.00    +0.000 A 
ATOM     27  C   UNL     1       2.216   5.364  19.566  0.00  0.00    +0.000 A 
ENDBRANCH  15  17
ENDBRANCH   5  15
TORSDOF 3
ENDMDL
MODEL 3
REMARK VINA RESULT:      -7.2      3.297      7.920
REMARK  Name = 
REMARK  5 active torsions:
REMARK  status: ('A' for Active; 'I' for Inactive)
REMARK    1  A    between atoms: C_1  and  C_2
REMARK    2  A    between atoms: C_4  and  N_5
REMARK    3  A    between atoms: C_9  and  N_10
REMARK    4  A    between atoms: N_10  and  C_11
REMARK    5  A    between atoms: N_24  and  C_25
REMARK                            x       y       z     vdW  Elec       q    Type
REMARK                         _______ _______ _______ _____ _____    ______ ____
ROOT
ATOM      1  N   UNL     1       0.725  10.807  20.209  0.00  0.00    +0.000 N 
ATOM      2  C   UNL     1       0.292  10.849  21.615  0.00  0.00    +0.000 C 
ATOM      3  C   UNL     1       0.605   9.555  22.340  0.00  0.00    +0.000 C 
ATOM      4  C   UNL     1       0.038   8.378  21.566  0.00  0.00    +0.000 C 
ATOM      5  C   UNL     1       0.718   8.230  20.204  0.00  0.00    +0.000 C 
ATOM      6  C   UNL     1       0.697   9.570  19.436  0.00  0.00    +0.000 C 
ATOM      7  O   UNL     1       0.705   9.655  18.213  0.00  0.00    +0.000 OA
ENDROOT
BRANCH   1  11
ATOM      8  C   UNL     1       2.901  14.833  18.211  0.00  0.00    +0.000 C 
ATOM      9  C   UNL     1       1.941  13.777  18.616  0.00  0.00    +0.000 A 
ATOM     10  C   UNL     1       2.193  12.590  19.343  0.00  0.00    +0.000 A 
ATOM     11  C   UNL     1       0.959  12.004  19.526  0.00  0.00    +0.000 A 
ATOM     12  N   UNL     1       0.060  12.836  18.897  0.00  0.00    +0.000 N 
ATOM     13  C   UNL     1      -1.351  12.633  18.677  0.00  0.00    +0.000 C 
ATOM     14  N   UNL     1       0.648  13.894  18.299  0.00  0.00    +0.000 NA
ENDBRANCH   1  11
BRANCH   5  15
ATOM     15  N   UNL     1       2.113   7.749  20.409  0.00  0.00    +0.000 N 
ATOM     16  H   UNL     1       2.400   7.812  21.383  0.00  0.00    +0.000 HD
BRANCH  15  17
ATOM     17  C   UNL     1       2.330   6.404  20.013  0.00  0.00    +0.000 A 
ATOM     18  N   UNL     1       1.783   5.436  20.760  0.00  0.00    +0.000 NA
ATOM     19  C   UNL     1       2.014   4.174  20.387  0.00  0.00    +0.000 A 
ATOM     20  N   UNL     1       2.729   3.792  19.330  0.00  0.00    +0.000 NA
ATOM     21  C   UNL     1       3.266   4.760  18.571  0.00  0.00    +0.000 A 
ATOM     22  C   UNL     1       4.018   4.422  17.443  0.00  0.00    +0.000 A 
ATOM     23  F   UNL     1       4.190   3.132  17.119  0.00  0.00    +0.000 F 
ATOM     24  C   UNL     1       4.613   5.380  16.619  0.00  0.00    +0.000 A 
ATOM     25  C   UNL     1       4.457   6.725  16.913  0.00  0.00    +0.000 A 
ATOM     26  C   UNL     1       3.701   7.098  18.023  0.00  0.00    +0.000 A 
ATOM     27  C   UNL     1       3.099   6.121  18.867  0.00  0.00    +0.000 A 
ENDBRANCH  15  17
ENDBRANCH   5  15
TORSDOF 3
ENDMDL
MODEL 4
REMARK VINA RESULT:      -7.1      1.989      3.291
REMARK  Name = 
REMARK  5 active torsions:
REMARK  status: ('A' for Active; 'I' for Inactive)
REMARK    1  A    between atoms: C_1  and  C_2
REMARK    2  A    between atoms: C_4  and  N_5
REMARK    3  A    between atoms: C_9  and  N_10
REMARK    4  A    between atoms: N_10  and  C_11
REMARK    5  A    between atoms: N_24  and  C_25
REMARK                            x       y       z     vdW  Elec       q    Type
REMARK                         _______ _______ _______ _____ _____    ______ ____
ROOT
ATOM      1  N   UNL     1       6.195   4.909  15.563  0.00  0.00    +0.000 N 
ATOM      2  C   UNL     1       7.017   4.380  16.663  0.00  0.00    +0.000 C 
ATOM      3  C   UNL     1       6.327   4.529  18.005  0.00  0.00    +0.000 C 
ATOM      4  C   UNL     1       5.897   5.971  18.208  0.00  0.00    +0.000 C 
ATOM      5  C   UNL     1       4.840   6.385  17.183  0.00  0.00    +0.000 C 
ATOM      6  C   UNL     1       5.311   6.055  15.750  0.00  0.00    +0.000 C 
ATOM      7  O   UNL     1       4.949   6.671  14.755  0.00  0.00    +0.000 OA
ENDROOT
BRANCH   1  11
ATOM      8  C   UNL     1       5.908   2.423  11.242  0.00  0.00    +0.000 C 
ATOM      9  C   UNL     1       6.264   3.366  12.330  0.00  0.00    +0.000 A 
ATOM     10  C   UNL     1       5.664   3.508  13.603  0.00  0.00    +0.000 A 
ATOM     11  C   UNL     1       6.419   4.457  14.259  0.00  0.00    +0.000 A 
ATOM     12  N   UNL     1       7.390   4.839  13.362  0.00  0.00    +0.000 N 
ATOM     13  C   UNL     1       8.367   5.893  13.489  0.00  0.00    +0.000 C 
ATOM     14  N   UNL     1       7.281   4.218  12.169  0.00  0.00    +0.000 NA
ENDBRANCH   1  11
BRANCH   5  15
ATOM     15  N   UNL     1       3.560   5.693  17.502  0.00  0.00    +0.000 N 
ATOM     16  H   UNL     1       3.687   4.690  17.625  0.00  0.00    +0.000 HD
BRANCH  15  17
ATOM     17  C   UNL     1       2.920   6.163  18.678  0.00  0.00    +0.000 A 
ATOM     18  N   UNL     1       2.852   5.333  19.727  0.00  0.00    +0.000 NA
ATOM     19  C   UNL     1       2.227   5.782  20.820  0.00  0.00    +0.000 A 
ATOM     20  N   UNL     1       1.678   6.986  20.965  0.00  0.00    +0.000 NA
ATOM     21  C   UNL     1       1.758   7.826  19.921  0.00  0.00    +0.000 A 
ATOM     22  C   UNL     1       1.210   9.108  20.015  0.00  0.00    +0.000 A 
ATOM     23  F   UNL     1       0.616   9.496  21.153  0.00  0.00    +0.000 F 
ATOM     24  C   UNL     1       1.248  10.024  18.962  0.00  0.00    +0.000 A 
ATOM     25  C   UNL     1       1.857   9.667  17.769  0.00  0.00    +0.000 A 
ATOM     26  C   UNL     1       2.426   8.401  17.645  0.00  0.00    +0.000 A 
ATOM     27  C   UNL     1       2.383   7.464  18.717  0.00  0.00    +0.000 A 
ENDBRANCH  15  17
ENDBRANCH   5  15
TORSDOF 3
ENDMDL
MODEL 5
REMARK VINA RESULT:      -7.0      2.435      4.122
REMARK  Name = 
REMARK  5 active torsions:
REMARK  status: ('A' for Active; 'I' for Inactive)
REMARK    1  A    between atoms: C_1  and  C_2
REMARK    2  A    between atoms: C_4  and  N_5
REMARK    3  A    between atoms: C_9  and  N_10
REMARK    4  A    between atoms: N_10  and  C_11
REMARK    5  A    between atoms: N_24  and  C_25
REMARK                            x       y       z     vdW  Elec       q    Type
REMARK                         _______ _______ _______ _____ _____    ______ ____
ROOT
ATOM      1  N   UNL     1       6.349   5.687  17.253  0.00  0.00    +0.000 N 
ATOM      2  C   UNL     1       6.544   5.209  15.875  0.00  0.00    +0.000 C 
ATOM      3  C   UNL     1       5.297   4.543  15.327  0.00  0.00    +0.000 C 
ATOM      4  C   UNL     1       4.828   3.460  16.284  0.00  0.00    +0.000 C 
ATOM      5  C   UNL     1       4.390   4.055  17.624  0.00  0.00    +0.000 C 
ATOM      6  C   UNL     1       5.487   4.980  18.194  0.00  0.00    +0.000 C 
ATOM      7  O   UNL     1       5.647   5.190  19.391  0.00  0.00    +0.000 OA
ENDROOT
BRANCH   1  11
ATOM      8  C   UNL     1       8.621  10.073  17.987  0.00  0.00    +0.000 C 
ATOM      9  C   UNL     1       8.151   8.670  18.087  0.00  0.00    +0.000 A 
ATOM     10  C   UNL     1       7.161   8.016  17.318  0.00  0.00    +0.000 A 
ATOM     11  C   UNL     1       7.167   6.707  17.749  0.00  0.00    +0.000 A 
ATOM     12  N   UNL     1       8.119   6.652  18.742  0.00  0.00    +0.000 N 
ATOM     13  C   UNL     1       8.444   5.550  19.616  0.00  0.00    +0.000 C 
ATOM     14  N   UNL     1       8.693   7.847  18.991  0.00  0.00    +0.000 NA
ENDBRANCH   1  11
BRANCH   5  15
ATOM     15  N   UNL     1       3.111   4.794  17.430  0.00  0.00    +0.000 N 
ATOM     16  H   UNL     1       2.385   4.205  17.026  0.00  0.00    +0.000 HD
BRANCH  15  17
ATOM     17  C   UNL     1       2.567   5.339  18.622  0.00  0.00    +0.000 A 
ATOM     18  N   UNL     1       2.333   4.503  19.642  0.00  0.00    +0.000 NA
ATOM     19  C   UNL     1       1.800   5.028  20.750  0.00  0.00    +0.000 A 
ATOM     20  N   UNL     1       1.492   6.310  20.935  0.00  0.00    +0.000 NA
ATOM     21  C   UNL     1       1.739   7.153  19.920  0.00  0.00    +0.000 A 
ATOM     22  C   UNL     1       1.447   8.512  20.058  0.00  0.00    +0.000 A 
ATOM     23  F   UNL     1       0.932   8.969  21.208  0.00  0.00    +0.000 F 
ATOM     24  C   UNL     1       1.668   9.438  19.036  0.00  0.00    +0.000 A 
ATOM     25  C   UNL     1       2.204   9.011  17.832  0.00  0.00    +0.000 A 
ATOM     26  C   UNL     1       2.519   7.663  17.665  0.00  0.00    +0.000 A 
ATOM     27  C   UNL     1       2.290   6.718  18.705  0.00  0.00    +0.000 A 
ENDBRANCH  15  17
ENDBRANCH   5  15
TORSDOF 3
ENDMDL
MODEL 6
REMARK VINA RESULT:      -7.0      3.934      8.123
REMARK  Name = 
REMARK  5 active torsions:
REMARK  status: ('A' for Active; 'I' for Inactive)
REMARK    1  A    between atoms: C_1  and  C_2
REMARK    2  A    between atoms: C_4  and  N_5
REMARK    3  A    between atoms: C_9  and  N_10
REMARK    4  A    between atoms: N_10  and  C_11
REMARK    5  A    between atoms: N_24  and  C_25
REMARK                            x       y       z     vdW  Elec       q    Type
REMARK                         _______ _______ _______ _____ _____    ______ ____
ROOT
ATOM      1  N   UNL     1       1.059   9.409  19.076  0.00  0.00    +0.000 N 
ATOM      2  C   UNL     1       1.859   9.397  17.840  0.00  0.00    +0.000 C 
ATOM      3  C   UNL     1       2.418   8.019  17.543  0.00  0.00    +0.000 C 
ATOM      4  C   UNL     1       3.167   7.493  18.755  0.00  0.00    +0.000 C 
ATOM      5  C   UNL     1       2.224   7.279  19.940  0.00  0.00    +0.000 C 
ATOM      6  C   UNL     1       1.387   8.549  20.208  0.00  0.00    +0.000 C 
ATOM      7  O   UNL     1       0.943   8.853  21.309  0.00  0.00    +0.000 OA
ENDROOT
BRANCH   1  11
ATOM      8  C   UNL     1      -3.199  12.017  19.119  0.00  0.00    +0.000 C 
ATOM      9  C   UNL     1      -1.803  11.551  19.307  0.00  0.00    +0.000 A 
ATOM     10  C   UNL     1      -1.237  10.302  18.961  0.00  0.00    +0.000 A 
ATOM     11  C   UNL     1       0.103  10.410  19.266  0.00  0.00    +0.000 A 
ATOM     12  N   UNL     1       0.261  11.675  19.785  0.00  0.00    +0.000 N 
ATOM     13  C   UNL     1       1.437  12.263  20.378  0.00  0.00    +0.000 C 
ATOM     14  N   UNL     1      -0.897  12.364  19.859  0.00  0.00    +0.000 NA
ENDBRANCH   1  11
BRANCH   5  15
ATOM     15  N   UNL     1       1.348   6.108  19.656  0.00  0.00    +0.000 N 
ATOM     16  H   UNL     1       1.124   6.027  18.666  0.00  0.00    +0.000 HD
BRANCH  15  17
ATOM     17  C   UNL     1       1.899   4.859  20.045  0.00  0.00    +0.000 A 
ATOM     18  N   UNL     1       1.889   4.550  21.349  0.00  0.00    +0.000 NA
ATOM     19  C   UNL     1       2.431   3.380  21.701  0.00  0.00    +0.000 A 
ATOM     20  N   UNL     1       2.969   2.488  20.872  0.00  0.00    +0.000 NA
ATOM     21  C   UNL     1       2.967   2.789  19.564  0.00  0.00    +0.000 A 
ATOM     22  C   UNL     1       3.508   1.888  18.642  0.00  0.00    +0.000 A 
ATOM     23  F   UNL     1       4.016   0.723  19.070  0.00  0.00    +0.000 F 
ATOM     24  C   UNL     1       3.548   2.146  17.270  0.00  0.00    +0.000 A 
ATOM     25  C   UNL     1       3.029   3.335  16.784  0.00  0.00    +0.000 A 
ATOM     26  C   UNL     1       2.470   4.250  17.674  0.00  0.00    +0.000 A 
ATOM     27  C   UNL     1       2.433   3.991  19.073  0.00  0.00    +0.000 A 
ENDBRANCH  15  17
ENDBRANCH   5  15
TORSDOF 3
ENDMDL
MODEL 7
REMARK VINA RESULT:      -7.0      1.072      2.045
REMARK  Name = 
REMARK  5 active torsions:
REMARK  status: ('A' for Active; 'I' for Inactive)
REMARK    1  A    between atoms: C_1  and  C_2
REMARK    2  A    between atoms: C_4  and  N_5
REMARK    3  A    between atoms: C_9  and  N_10
REMARK    4  A    between atoms: N_10  and  C_11
REMARK    5  A    between atoms: N_24  and  C_25
REMARK                            x       y       z     vdW  Elec       q    Type
REMARK                         _______ _______ _______ _____ _____    ______ ____
ROOT
ATOM      1  N   UNL     1       4.641   4.450  17.695  0.00  0.00    +0.000 N 
ATOM      2  C   UNL     1       3.965   3.214  18.121  0.00  0.00    +0.000 C 
ATOM      3  C   UNL     1       2.701   3.504  18.906  0.00  0.00    +0.000 C 
ATOM      4  C   UNL     1       3.010   4.452  20.052  0.00  0.00    +0.000 C 
ATOM      5  C   UNL     1       3.465   5.818  19.535  0.00  0.00    +0.000 C 
ATOM      6  C   UNL     1       4.608   5.661  18.510  0.00  0.00    +0.000 C 
ATOM      7  O   UNL     1       5.465   6.513  18.308  0.00  0.00    +0.000 OA
ENDROOT
BRANCH   1  11
ATOM      8  C   UNL     1       6.525   4.242  13.076  0.00  0.00    +0.000 C 
ATOM      9  C   UNL     1       6.342   4.352  14.543  0.00  0.00    +0.000 A 
ATOM     10  C   UNL     1       5.135   4.401  15.279  0.00  0.00    +0.000 A 
ATOM     11  C   UNL     1       5.514   4.415  16.604  0.00  0.00    +0.000 A 
ATOM     12  N   UNL     1       6.890   4.396  16.593  0.00  0.00    +0.000 N 
ATOM     13  C   UNL     1       7.800   4.525  17.705  0.00  0.00    +0.000 C 
ATOM     14  N   UNL     1       7.409   4.405  15.347  0.00  0.00    +0.000 NA
ENDBRANCH   1  11
BRANCH   5  15
ATOM     15  N   UNL     1       2.296   6.521  18.934  0.00  0.00    +0.000 N 
ATOM     16  H   UNL     1       1.545   5.878  18.691  0.00  0.00    +0.000 HD
BRANCH  15  17
ATOM     17  C   UNL     1       1.720   7.513  19.769  0.00  0.00    +0.000 A 
ATOM     18  N   UNL     1       1.259   7.130  20.967  0.00  0.00    +0.000 NA
ATOM     19  C   UNL     1       0.699   8.072  21.733  0.00  0.00    +0.000 A 
ATOM     20  N   UNL     1       0.570   9.359  21.417  0.00  0.00    +0.000 NA
ATOM     21  C   UNL     1       1.044   9.748  20.223  0.00  0.00    +0.000 A 
ATOM     22  C   UNL     1       0.947  11.088  19.839  0.00  0.00    +0.000 A 
ATOM     23  F   UNL     1       0.390  11.980  20.670  0.00  0.00    +0.000 F 
ATOM     24  C   UNL     1       1.409  11.554  18.606  0.00  0.00    +0.000 A 
ATOM     25  C   UNL     1       1.997  10.668  17.718  0.00  0.00    +0.000 A 
ATOM     26  C   UNL     1       2.121   9.326  18.075  0.00  0.00    +0.000 A 
ATOM     27  C   UNL     1       1.646   8.849  19.329  0.00  0.00    +0.000 A 
ENDBRANCH  15  17
ENDBRANCH   5  15
TORSDOF 3
ENDMDL
MODEL 8
REMARK VINA RESULT:      -6.9      4.460      7.370
REMARK  Name = 
REMARK  5 active torsions:
REMARK  status: ('A' for Active; 'I' for Inactive)
REMARK    1  A    between atoms: C_1  and  C_2
REMARK    2  A    between atoms: C_4  and  N_5
REMARK    3  A    between atoms: C_9  and  N_10
REMARK    4  A    between atoms: N_10  and  C_11
REMARK    5  A    between atoms: N_24  and  C_25
REMARK                            x       y       z     vdW  Elec       q    Type
REMARK                         _______ _______ _______ _____ _____    ______ ____
ROOT
ATOM      1  N   UNL     1       0.803  10.834  18.832  0.00  0.00    +0.000 N 
ATOM      2  C   UNL     1       1.692  11.998  18.683  0.00  0.00    +0.000 C 
ATOM      3  C   UNL     1       1.004  13.288  19.086  0.00  0.00    +0.000 C 
ATOM      4  C   UNL     1      -0.310  13.428  18.337  0.00  0.00    +0.000 C 
ATOM      5  C   UNL     1      -1.295  12.327  18.733  0.00  0.00    +0.000 C 
ATOM      6  C   UNL     1      -0.635  10.936  18.611  0.00  0.00    +0.000 C 
ATOM      7  O   UNL     1      -1.257   9.904  18.384  0.00  0.00    +0.000 OA
ENDROOT
BRANCH   1  11
ATOM      8  C   UNL     1       3.055   6.469  17.934  0.00  0.00    +0.000 C 
ATOM      9  C   UNL     1       2.388   7.632  18.569  0.00  0.00    +0.000 A 
ATOM     10  C   UNL     1       2.019   8.864  17.980  0.00  0.00    +0.000 A 
ATOM     11  C   UNL     1       1.359   9.559  18.971  0.00  0.00    +0.000 A 
ATOM     12  N   UNL     1       1.386   8.739  20.076  0.00  0.00    +0.000 N 
ATOM     13  C   UNL     1       0.949   9.027  21.421  0.00  0.00    +0.000 C 
ATOM     14  N   UNL     1       2.049   7.583  19.861  0.00  0.00    +0.000 NA
ENDBRANCH   1  11
BRANCH   5  15
ATOM     15  N   UNL     1      -1.768  12.577  20.124  0.00  0.00    +0.000 N 
ATOM     16  H   UNL     1      -1.480  13.491  20.468  0.00  0.00    +0.000 HD
BRANCH  15  17
ATOM     17  C   UNL     1      -3.177  12.516  20.280  0.00  0.00    +0.000 A 
ATOM     18  N   UNL     1      -3.915  12.248  19.195  0.00  0.00    +0.000 NA
ATOM     19  C   UNL     1      -5.242  12.216  19.354  0.00  0.00    +0.000 A 
ATOM     20  N   UNL     1      -5.896  12.413  20.497  0.00  0.00    +0.000 NA
ATOM     21  C   UNL     1      -5.157  12.666  21.589  0.00  0.00    +0.000 A 
ATOM     22  C   UNL     1      -5.785  12.871  22.821  0.00  0.00    +0.000 A 
ATOM     23  F   UNL     1      -7.121  12.802  22.907  0.00  0.00    +0.000 F 
ATOM     24  C   UNL     1      -5.076  13.151  23.991  0.00  0.00    +0.000 A 
ATOM     25  C   UNL     1      -3.693  13.226  23.950  0.00  0.00    +0.000 A 
ATOM     26  C   UNL     1      -3.034  13.014  22.740  0.00  0.00    +0.000 A 
ATOM     27  C   UNL     1      -3.756  12.734  21.545  0.00  0.00    +0.000 A 
ENDBRANCH  15  17
ENDBRANCH   5  15
TORSDOF 3
ENDMDL
MODEL 9
REMARK VINA RESULT:      -6.9      3.492      8.697
REMARK  Name = 
REMARK  5 active torsions:
REMARK  status: ('A' for Active; 'I' for Inactive)
REMARK    1  A    between atoms: C_1  and  C_2
REMARK    2  A    between atoms: C_4  and  N_5
REMARK    3  A    between atoms: C_9  and  N_10
REMARK    4  A    between atoms: N_10  and  C_11
REMARK    5  A    between atoms: N_24  and  C_25
REMARK                            x       y       z     vdW  Elec       q    Type
REMARK                         _______ _______ _______ _____ _____    ______ ____
ROOT
ATOM      1  N   UNL     1      -0.642  11.299  20.210  0.00  0.00    +0.000 N 
ATOM      2  C   UNL     1      -1.526  11.046  19.061  0.00  0.00    +0.000 C 
ATOM      3  C   UNL     1      -1.073   9.845  18.254  0.00  0.00    +0.000 C 
ATOM      4  C   UNL     1       0.388  10.000  17.872  0.00  0.00    +0.000 C 
ATOM      5  C   UNL     1       1.289   9.996  19.108  0.00  0.00    +0.000 C 
ATOM      6  C   UNL     1       0.789  11.019  20.151  0.00  0.00    +0.000 C 
ATOM      7  O   UNL     1       1.519  11.576  20.963  0.00  0.00    +0.000 OA
ENDROOT
BRANCH   1  11
ATOM      8  C   UNL     1      -2.495  14.908  23.121  0.00  0.00    +0.000 C 
ATOM      9  C   UNL     1      -1.978  13.625  22.584  0.00  0.00    +0.000 A 
ATOM     10  C   UNL     1      -1.627  13.306  21.252  0.00  0.00    +0.000 A 
ATOM     11  C   UNL     1      -1.125  12.023  21.304  0.00  0.00    +0.000 A 
ATOM     12  N   UNL     1      -1.221  11.643  22.623  0.00  0.00    +0.000 N 
ATOM     13  C   UNL     1      -0.952  10.353  23.209  0.00  0.00    +0.000 C 
ATOM     14  N   UNL     1      -1.780  12.590  23.406  0.00  0.00    +0.000 NA
ENDBRANCH   1  11
BRANCH   5  15
ATOM     15  N   UNL     1       1.322   8.620  19.678  0.00  0.00    +0.000 N 
ATOM     16  H   UNL     1       0.413   8.163  19.631  0.00  0.00    +0.000 HD
BRANCH  15  17
ATOM     17  C   UNL     1       2.242   7.747  19.041  0.00  0.00    +0.000 A 
ATOM     18  N   UNL     1       2.932   8.220  17.995  0.00  0.00    +0.000 NA
ATOM     19  C   UNL     1       3.778   7.379  17.392  0.00  0.00    +0.000 A 
ATOM     20  N   UNL     1       4.007   6.116  17.746  0.00  0.00    +0.000 NA
ATOM     21  C   UNL     1       3.328   5.644  18.803  0.00  0.00    +0.000 A 
ATOM     22  C   UNL     1       3.533   4.329  19.230  0.00  0.00    +0.000 A 
ATOM     23  F   UNL     1       4.415   3.550  18.587  0.00  0.00    +0.000 F 
ATOM     24  C   UNL     1       2.850   3.773  20.314  0.00  0.00    +0.000 A 
ATOM     25  C   UNL     1       1.933   4.543  21.011  0.00  0.00    +0.000 A 
ATOM     26  C   UNL     1       1.714   5.864  20.620  0.00  0.00    +0.000 A 
ATOM     27  C   UNL     1       2.406   6.429  19.512  0.00  0.00    +0.000 A 
ENDBRANCH  15  17
ENDBRANCH   5  15
TORSDOF 3
ENDMDL
