MODEL 1
REMARK VINA RESULT:      -7.7      0.000      0.000
REMARK  Name = 
REMARK  2 active torsions:
REMARK  status: ('A' for Active; 'I' for Inactive)
REMARK    1  A    between atoms: C_2  and  C_3
REMARK    2  A    between atoms: C_21  and  N_22
REMARK                            x       y       z     vdW  Elec       q    Type
REMARK                         _______ _______ _______ _____ _____    ______ ____
ROOT
ATOM      1  O   UNL     1      -0.880   8.109  21.764  0.00  0.00    +0.000 OA
ATOM      2  C   UNL     1       0.006   8.614  21.073  0.00  0.00    +0.000 C 
ATOM      3  N   UNL     1       1.083   7.847  20.599  0.00  0.00    +0.000 N 
ATOM      4  C   UNL     1       1.047   6.406  20.876  0.00  0.00    +0.000 C 
ATOM      5  C   UNL     1       2.364   5.678  20.605  0.00  0.00    +0.000 C 
ATOM      6  C   UNL     1       2.868   5.995  19.215  0.00  0.00    +0.000 A 
ATOM      7  C   UNL     1       2.773   7.345  18.824  0.00  0.00    +0.000 A 
ATOM      8  C   UNL     1       3.336   7.778  17.616  0.00  0.00    +0.000 A 
ATOM      9  C   UNL     1       3.993   6.876  16.792  0.00  0.00    +0.000 A 
ATOM     10  C   UNL     1       4.109   5.544  17.182  0.00  0.00    +0.000 A 
ATOM     11  C   UNL     1       3.540   5.089  18.381  0.00  0.00    +0.000 A 
ATOM     12  C   UNL     1       2.179   8.348  19.770  0.00  0.00    +0.000 C 
ENDROOT
BRANCH   2  13
ATOM     13  C   UNL     1      -0.095  10.076  20.741  0.00  0.00    +0.000 A 
ATOM     14  C   UNL     1       0.442  11.009  21.644  0.00  0.00    +0.000 A 
ATOM     15  C   UNL     1       0.494  12.361  21.326  0.00  0.00    +0.000 A 
ATOM     16  C   UNL     1      -0.083  12.811  20.146  0.00  0.00    +0.000 A 
ATOM     17  C   UNL     1      -0.738  11.925  19.280  0.00  0.00    +0.000 A 
ATOM     18  C   UNL     1      -1.386  12.435  18.142  0.00  0.00    +0.000 A 
ATOM     19  C   UNL     1      -2.073  11.596  17.269  0.00  0.00    +0.000 A 
ATOM     20  C   UNL     1      -2.100  10.231  17.510  0.00  0.00    +0.000 A 
ATOM     21  C   UNL     1      -1.439   9.706  18.625  0.00  0.00    +0.000 A 
ATOM     22  C   UNL     1      -0.754  10.531  19.556  0.00  0.00    +0.000 A 
ENDBRANCH   2  13
BRANCH  11  23
ATOM     23  N   UNL     1       3.681   3.742  18.753  0.00  0.00    +0.000 N 
ATOM     24  C   UNL     1       4.788   3.245  19.499  0.00  0.00    +0.000 C 
ATOM     25  C   UNL     1       4.334   1.836  19.785  0.00  0.00    +0.000 C 
ATOM     26  O   UNL     1       3.469   1.509  18.692  0.00  0.00    +0.000 OA
ATOM     27  C   UNL     1       3.004   2.688  18.165  0.00  0.00    +0.000 C 
ATOM     28  O   UNL     1       2.149   2.732  17.292  0.00  0.00    +0.000 OA
ENDBRANCH  11  23
TORSDOF 2
ENDMDL
MODEL 2
REMARK VINA RESULT:      -7.6      2.224      3.036
REMARK  Name = 
REMARK  2 active torsions:
REMARK  status: ('A' for Active; 'I' for Inactive)
REMARK    1  A    between atoms: C_2  and  C_3
REMARK    2  A    between atoms: C_21  and  N_22
REMARK                            x       y       z     vdW  Elec       q    Type
REMARK                         _______ _______ _______ _____ _____    ______ ____
ROOT
ATOM      1  O   UNL     1       2.308  11.473  18.006  0.00  0.00    +0.000 OA
ATOM      2  C   UNL     1       1.615  10.635  18.584  0.00  0.00    +0.000 C 
ATOM      3  N   UNL     1       1.916   9.265  18.504  0.00  0.00    +0.000 N 
ATOM      4  C   UNL     1       3.145   8.894  17.793  0.00  0.00    +0.000 C 
ATOM      5  C   UNL     1       3.268   7.401  17.481  0.00  0.00    +0.000 C 
ATOM      6  C   UNL     1       3.043   6.580  18.731  0.00  0.00    +0.000 A 
ATOM      7  C   UNL     1       1.973   6.992  19.549  0.00  0.00    +0.000 A 
ATOM      8  C   UNL     1       1.584   6.225  20.655  0.00  0.00    +0.000 A 
ATOM      9  C   UNL     1       2.254   5.047  20.955  0.00  0.00    +0.000 A 
ATOM     10  C   UNL     1       3.300   4.623  20.138  0.00  0.00    +0.000 A 
ATOM     11  C   UNL     1       3.712   5.385  19.034  0.00  0.00    +0.000 A 
ATOM     12  C   UNL     1       1.162   8.194  19.155  0.00  0.00    +0.000 C 
ENDROOT
BRANCH   2  13
ATOM     13  C   UNL     1       0.438  11.113  19.386  0.00  0.00    +0.000 A 
ATOM     14  C   UNL     1       0.643  11.487  20.725  0.00  0.00    +0.000 A 
ATOM     15  C   UNL     1      -0.380  12.060  21.470  0.00  0.00    +0.000 A 
ATOM     16  C   UNL     1      -1.649  12.173  20.921  0.00  0.00    +0.000 A 
ATOM     17  C   UNL     1      -1.922  11.696  19.631  0.00  0.00    +0.000 A 
ATOM     18  C   UNL     1      -3.240  11.749  19.147  0.00  0.00    +0.000 A 
ATOM     19  C   UNL     1      -3.563  11.262  17.884  0.00  0.00    +0.000 A 
ATOM     20  C   UNL     1      -2.564  10.737  17.077  0.00  0.00    +0.000 A 
ATOM     21  C   UNL     1      -1.243  10.702  17.535  0.00  0.00    +0.000 A 
ATOM     22  C   UNL     1      -0.879  11.159  18.829  0.00  0.00    +0.000 A 
ENDBRANCH   2  13
BRANCH  11  23
ATOM     23  N   UNL     1       4.763   4.926  18.224  0.00  0.00    +0.000 N 
ATOM     24  C   UNL     1       4.572   4.087  17.089  0.00  0.00    +0.000 C 
ATOM     25  C   UNL     1       5.957   4.082  16.495  0.00  0.00    +0.000 C 
ATOM     26  O   UNL     1       6.826   4.290  17.614  0.00  0.00    +0.000 OA
ATOM     27  C   UNL     1       6.095   4.908  18.598  0.00  0.00    +0.000 C 
ATOM     28  O   UNL     1       6.595   5.322  19.633  0.00  0.00    +0.000 OA
ENDBRANCH  11  23
TORSDOF 2
ENDMDL
MODEL 3
REMARK VINA RESULT:      -7.5      2.675      8.274
REMARK  Name = 
REMARK  2 active torsions:
REMARK  status: ('A' for Active; 'I' for Inactive)
REMARK    1  A    between atoms: C_2  and  C_3
REMARK    2  A    between atoms: C_21  and  N_22
REMARK                            x       y       z     vdW  Elec       q    Type
REMARK                         _______ _______ _______ _____ _____    ______ ____
ROOT
ATOM      1  O   UNL     1       1.734   6.639  20.835  0.00  0.00    +0.000 OA
ATOM      2  C   UNL     1       1.947   7.262  19.794  0.00  0.00    +0.000 C 
ATOM      3  N   UNL     1       1.427   8.553  19.602  0.00  0.00    +0.000 N 
ATOM      4  C   UNL     1       0.714   9.159  20.733  0.00  0.00    +0.000 C 
ATOM      5  C   UNL     1      -0.076  10.419  20.379  0.00  0.00    +0.000 C 
ATOM      6  C   UNL     1       0.803  11.405  19.644  0.00  0.00    +0.000 A 
ATOM      7  C   UNL     1       1.640  10.858  18.652  0.00  0.00    +0.000 A 
ATOM      8  C   UNL     1       2.392  11.691  17.814  0.00  0.00    +0.000 A 
ATOM      9  C   UNL     1       2.318  13.070  17.955  0.00  0.00    +0.000 A 
ATOM     10  C   UNL     1       1.476  13.619  18.920  0.00  0.00    +0.000 A 
ATOM     11  C   UNL     1       0.726  12.800  19.777  0.00  0.00    +0.000 A 
ATOM     12  C   UNL     1       1.625   9.375  18.409  0.00  0.00    +0.000 C 
ENDROOT
BRANCH   2  13
ATOM     13  C   UNL     1       2.784   6.609  18.731  0.00  0.00    +0.000 A 
ATOM     14  C   UNL     1       3.715   7.396  18.031  0.00  0.00    +0.000 A 
ATOM     15  C   UNL     1       4.605   6.818  17.134  0.00  0.00    +0.000 A 
ATOM     16  C   UNL     1       4.509   5.463  16.848  0.00  0.00    +0.000 A 
ATOM     17  C   UNL     1       3.512   4.671  17.434  0.00  0.00    +0.000 A 
ATOM     18  C   UNL     1       3.394   3.325  17.051  0.00  0.00    +0.000 A 
ATOM     19  C   UNL     1       2.402   2.508  17.585  0.00  0.00    +0.000 A 
ATOM     20  C   UNL     1       1.528   3.022  18.531  0.00  0.00    +0.000 A 
ATOM     21  C   UNL     1       1.650   4.354  18.942  0.00  0.00    +0.000 A 
ATOM     22  C   UNL     1       2.627   5.227  18.398  0.00  0.00    +0.000 A 
ENDBRANCH   2  13
BRANCH  11  23
ATOM     23  N   UNL     1      -0.121  13.383  20.733  0.00  0.00    +0.000 N 
ATOM     24  C   UNL     1      -1.500  13.654  20.500  0.00  0.00    +0.000 C 
ATOM     25  C   UNL     1      -1.952  14.065  21.878  0.00  0.00    +0.000 C 
ATOM     26  O   UNL     1      -0.779  14.613  22.491  0.00  0.00    +0.000 OA
ATOM     27  C   UNL     1       0.311  14.087  21.843  0.00  0.00    +0.000 C 
ATOM     28  O   UNL     1       1.459  14.277  22.218  0.00  0.00    +0.000 OA
ENDBRANCH  11  23
TORSDOF 2
ENDMDL
MODEL 4
REMARK VINA RESULT:      -7.5      2.289      8.013
REMARK  Name = 
REMARK  2 active torsions:
REMARK  status: ('A' for Active; 'I' for Inactive)
REMARK    1  A    between atoms: C_2  and  C_3
REMARK    2  A    between atoms: C_21  and  N_22
REMARK                            x       y       z     vdW  Elec       q    Type
REMARK                         _______ _______ _______ _____ _____    ______ ____
ROOT
ATOM      1  O   UNL     1       2.971   4.360  20.786  0.00  0.00    +0.000 OA
ATOM      2  C   UNL     1       2.930   5.037  19.757  0.00  0.00    +0.000 C 
ATOM      3  N   UNL     1       2.170   6.216  19.695  0.00  0.00    +0.000 N 
ATOM      4  C   UNL     1       1.518   6.655  20.935  0.00  0.00    +0.000 C 
ATOM      5  C   UNL     1       0.478   7.760  20.745  0.00  0.00    +0.000 C 
ATOM      6  C   UNL     1       1.064   8.907  19.953  0.00  0.00    +0.000 A 
ATOM      7  C   UNL     1       1.845   8.545  18.838  0.00  0.00    +0.000 A 
ATOM      8  C   UNL     1       2.320   9.521  17.953  0.00  0.00    +0.000 A 
ATOM      9  C   UNL     1       2.023  10.859  18.169  0.00  0.00    +0.000 A 
ATOM     10  C   UNL     1       1.233  11.223  19.257  0.00  0.00    +0.000 A 
ATOM     11  C   UNL     1       0.761  10.261  20.162  0.00  0.00    +0.000 A 
ATOM     12  C   UNL     1       2.059   7.090  18.528  0.00  0.00    +0.000 C 
ENDROOT
BRANCH   2  13
ATOM     13  C   UNL     1       3.720   4.573  18.566  0.00  0.00    +0.000 A 
ATOM     14  C   UNL     1       3.064   3.828  17.572  0.00  0.00    +0.000 A 
ATOM     15  C   UNL     1       3.712   3.488  16.391  0.00  0.00    +0.000 A 
ATOM     16  C   UNL     1       5.054   3.800  16.230  0.00  0.00    +0.000 A 
ATOM     17  C   UNL     1       5.775   4.433  17.252  0.00  0.00    +0.000 A 
ATOM     18  C   UNL     1       7.153   4.651  17.084  0.00  0.00    +0.000 A 
ATOM     19  C   UNL     1       7.914   5.250  18.083  0.00  0.00    +0.000 A 
ATOM     20  C   UNL     1       7.301   5.664  19.256  0.00  0.00    +0.000 A 
ATOM     21  C   UNL     1       5.925   5.477  19.428  0.00  0.00    +0.000 A 
ATOM     22  C   UNL     1       5.120   4.841  18.447  0.00  0.00    +0.000 A 
ENDBRANCH   2  13
BRANCH  11  23
ATOM     23  N   UNL     1      -0.042  10.657  21.245  0.00  0.00    +0.000 N 
ATOM     24  C   UNL     1      -1.045  11.663  21.153  0.00  0.00    +0.000 C 
ATOM     25  C   UNL     1      -1.710  11.534  22.500  0.00  0.00    +0.000 C 
ATOM     26  O   UNL     1      -0.679  11.041  23.362  0.00  0.00    +0.000 OA
ATOM     27  C   UNL     1       0.256  10.416  22.575  0.00  0.00    +0.000 C 
ATOM     28  O   UNL     1       1.200   9.791  23.037  0.00  0.00    +0.000 OA
ENDBRANCH  11  23
TORSDOF 2
ENDMDL
MODEL 5
REMARK VINA RESULT:      -7.4      0.850      1.166
REMARK  Name = 
REMARK  2 active torsions:
REMARK  status: ('A' for Active; 'I' for Inactive)
REMARK    1  A    between atoms: C_2  and  C_3
REMARK    2  A    between atoms: C_21  and  N_22
REMARK                            x       y       z     vdW  Elec       q    Type
REMARK                         _______ _______ _______ _____ _____    ______ ____
ROOT
ATOM      1  O   UNL     1      -0.915   8.105  21.847  0.00  0.00    +0.000 OA
ATOM      2  C   UNL     1      -0.081   8.657  21.128  0.00  0.00    +0.000 C 
ATOM      3  N   UNL     1       1.021   7.950  20.621  0.00  0.00    +0.000 N 
ATOM      4  C   UNL     1       1.074   6.510  20.900  0.00  0.00    +0.000 C 
ATOM      5  C   UNL     1       2.421   5.855  20.588  0.00  0.00    +0.000 C 
ATOM      6  C   UNL     1       2.861   6.197  19.182  0.00  0.00    +0.000 A 
ATOM      7  C   UNL     1       2.680   7.539  18.793  0.00  0.00    +0.000 A 
ATOM      8  C   UNL     1       3.179   8.000  17.568  0.00  0.00    +0.000 A 
ATOM      9  C   UNL     1       3.859   7.134  16.724  0.00  0.00    +0.000 A 
ATOM     10  C   UNL     1       4.061   5.811  17.111  0.00  0.00    +0.000 A 
ATOM     11  C   UNL     1       3.556   5.328  18.328  0.00  0.00    +0.000 A 
ATOM     12  C   UNL     1       2.061   8.510  19.758  0.00  0.00    +0.000 C 
ENDROOT
BRANCH   2  13
ATOM     13  C   UNL     1      -0.275  10.110  20.799  0.00  0.00    +0.000 A 
ATOM     14  C   UNL     1       0.083  11.071  21.761  0.00  0.00    +0.000 A 
ATOM     15  C   UNL     1       0.049  12.427  21.460  0.00  0.00    +0.000 A 
ATOM     16  C   UNL     1      -0.438  12.846  20.230  0.00  0.00    +0.000 A 
ATOM     17  C   UNL     1      -0.921  11.922  19.293  0.00  0.00    +0.000 A 
ATOM     18  C   UNL     1      -1.488  12.394  18.097  0.00  0.00    +0.000 A 
ATOM     19  C   UNL     1      -2.005  11.514  17.150  0.00  0.00    +0.000 A 
ATOM     20  C   UNL     1      -1.939  10.148  17.377  0.00  0.00    +0.000 A 
ATOM     21  C   UNL     1      -1.353   9.663  18.551  0.00  0.00    +0.000 A 
ATOM     22  C   UNL     1      -0.844  10.527  19.555  0.00  0.00    +0.000 A 
ENDBRANCH   2  13
BRANCH  11  23
ATOM     23  N   UNL     1       3.784   3.991  18.695  0.00  0.00    +0.000 N 
ATOM     24  C   UNL     1       2.756   3.007  18.756  0.00  0.00    +0.000 C 
ATOM     25  C   UNL     1       3.566   1.757  18.987  0.00  0.00    +0.000 C 
ATOM     26  O   UNL     1       4.738   2.211  19.672  0.00  0.00    +0.000 OA
ATOM     27  C   UNL     1       4.901   3.542  19.378  0.00  0.00    +0.000 C 
ATOM     28  O   UNL     1       5.883   4.182  19.723  0.00  0.00    +0.000 OA
ENDBRANCH  11  23
TORSDOF 2
ENDMDL
MODEL 6
REMARK VINA RESULT:      -7.3      2.123      2.884
REMARK  Name = 
REMARK  2 active torsions:
REMARK  status: ('A' for Active; 'I' for Inactive)
REMARK    1  A    between atoms: C_2  and  C_3
REMARK    2  A    between atoms: C_21  and  N_22
REMARK                            x       y       z     vdW  Elec       q    Type
REMARK                         _______ _______ _______ _____ _____    ______ ____
ROOT
ATOM      1  O   UNL     1       2.367  11.287  17.789  0.00  0.00    +0.000 OA
ATOM      2  C   UNL     1       1.678  10.429  18.341  0.00  0.00    +0.000 C 
ATOM      3  N   UNL     1       2.046   9.074  18.312  0.00  0.00    +0.000 N 
ATOM      4  C   UNL     1       3.334   8.747  17.690  0.00  0.00    +0.000 C 
ATOM      5  C   UNL     1       3.547   7.256  17.421  0.00  0.00    +0.000 C 
ATOM      6  C   UNL     1       3.279   6.451  18.672  0.00  0.00    +0.000 A 
ATOM      7  C   UNL     1       2.140   6.827  19.411  0.00  0.00    +0.000 A 
ATOM      8  C   UNL     1       1.717   6.065  20.507  0.00  0.00    +0.000 A 
ATOM      9  C   UNL     1       2.420   4.927  20.876  0.00  0.00    +0.000 A 
ATOM     10  C   UNL     1       3.535   4.537  20.138  0.00  0.00    +0.000 A 
ATOM     11  C   UNL     1       3.982   5.295  19.046  0.00  0.00    +0.000 A 
ATOM     12  C   UNL     1       1.302   7.981  18.938  0.00  0.00    +0.000 C 
ENDROOT
BRANCH   2  13
ATOM     13  C   UNL     1       0.430  10.866  19.055  0.00  0.00    +0.000 A 
ATOM     14  C   UNL     1       0.548  11.397  20.351  0.00  0.00    +0.000 A 
ATOM     15  C   UNL     1      -0.554  11.938  21.003  0.00  0.00    +0.000 A 
ATOM     16  C   UNL     1      -1.807  11.864  20.410  0.00  0.00    +0.000 A 
ATOM     17  C   UNL     1      -1.983  11.230  19.173  0.00  0.00    +0.000 A 
ATOM     18  C   UNL     1      -3.281  11.098  18.650  0.00  0.00    +0.000 A 
ATOM     19  C   UNL     1      -3.507  10.451  17.439  0.00  0.00    +0.000 A 
ATOM     20  C   UNL     1      -2.432   9.949  16.720  0.00  0.00    +0.000 A 
ATOM     21  C   UNL     1      -1.132  10.096  17.215  0.00  0.00    +0.000 A 
ATOM     22  C   UNL     1      -0.863  10.720  18.461  0.00  0.00    +0.000 A 
ENDBRANCH   2  13
BRANCH  11  23
ATOM     23  N   UNL     1       5.104   4.871  18.315  0.00  0.00    +0.000 N 
ATOM     24  C   UNL     1       6.403   5.431  18.474  0.00  0.00    +0.000 C 
ATOM     25  C   UNL     1       7.229   4.493  17.631  0.00  0.00    +0.000 C 
ATOM     26  O   UNL     1       6.319   4.012  16.636  0.00  0.00    +0.000 OA
ATOM     27  C   UNL     1       5.048   4.152  17.134  0.00  0.00    +0.000 C 
ATOM     28  O   UNL     1       4.060   3.718  16.560  0.00  0.00    +0.000 OA
ENDBRANCH  11  23
TORSDOF 2
ENDMDL
MODEL 7
REMARK VINA RESULT:      -7.2      2.901      8.595
REMARK  Name = 
REMARK  2 active torsions:
REMARK  status: ('A' for Active; 'I' for Inactive)
REMARK    1  A    between atoms: C_2  and  C_3
REMARK    2  A    between atoms: C_21  and  N_22
REMARK                            x       y       z     vdW  Elec       q    Type
REMARK                         _______ _______ _______ _____ _____    ______ ____
ROOT
ATOM      1  O   UNL     1       2.159   8.536  17.149  0.00  0.00    +0.000 OA
ATOM      2  C   UNL     1       2.148   8.272  18.352  0.00  0.00    +0.000 C 
ATOM      3  N   UNL     1       1.728   9.219  19.300  0.00  0.00    +0.000 N 
ATOM      4  C   UNL     1       1.208  10.491  18.784  0.00  0.00    +0.000 C 
ATOM      5  C   UNL     1       1.047  11.584  19.843  0.00  0.00    +0.000 C 
ATOM      6  C   UNL     1       0.259  11.063  21.023  0.00  0.00    +0.000 A 
ATOM      7  C   UNL     1       0.599   9.770  21.464  0.00  0.00    +0.000 A 
ATOM      8  C   UNL     1       0.034   9.243  22.633  0.00  0.00    +0.000 A 
ATOM      9  C   UNL     1      -0.870   9.995  23.369  0.00  0.00    +0.000 A 
ATOM     10  C   UNL     1      -1.195  11.284  22.951  0.00  0.00    +0.000 A 
ATOM     11  C   UNL     1      -0.650  11.823  21.776  0.00  0.00    +0.000 A 
ATOM     12  C   UNL     1       1.673   9.003  20.745  0.00  0.00    +0.000 C 
ENDROOT
BRANCH   2  13
ATOM     13  C   UNL     1       2.590   6.902  18.784  0.00  0.00    +0.000 A 
ATOM     14  C   UNL     1       1.933   6.294  19.868  0.00  0.00    +0.000 A 
ATOM     15  C   UNL     1       2.211   4.980  20.224  0.00  0.00    +0.000 A 
ATOM     16  C   UNL     1       3.221   4.290  19.568  0.00  0.00    +0.000 A 
ATOM     17  C   UNL     1       3.982   4.907  18.566  0.00  0.00    +0.000 A 
ATOM     18  C   UNL     1       5.053   4.203  17.989  0.00  0.00    +0.000 A 
ATOM     19  C   UNL     1       5.854   4.785  17.011  0.00  0.00    +0.000 A 
ATOM     20  C   UNL     1       5.578   6.073  16.578  0.00  0.00    +0.000 A 
ATOM     21  C   UNL     1       4.499   6.777  17.123  0.00  0.00    +0.000 A 
ATOM     22  C   UNL     1       3.679   6.231  18.145  0.00  0.00    +0.000 A 
ENDBRANCH   2  13
BRANCH  11  23
ATOM     23  N   UNL     1      -0.990  13.128  21.385  0.00  0.00    +0.000 N 
ATOM     24  C   UNL     1      -0.490  14.296  22.029  0.00  0.00    +0.000 C 
ATOM     25  C   UNL     1      -0.991  15.375  21.103  0.00  0.00    +0.000 C 
ATOM     26  O   UNL     1      -2.177  14.824  20.520  0.00  0.00    +0.000 OA
ATOM     27  C   UNL     1      -2.086  13.457  20.607  0.00  0.00    +0.000 C 
ATOM     28  O   UNL     1      -2.897  12.705  20.087  0.00  0.00    +0.000 OA
ENDBRANCH  11  23
TORSDOF 2
ENDMDL
MODEL 8
REMARK VINA RESULT:      -7.2      2.879      8.616
REMARK  Name = 
REMARK  2 active torsions:
REMARK  status: ('A' for Active; 'I' for Inactive)
REMARK    1  A    between atoms: C_2  and  C_3
REMARK    2  A    between atoms: C_21  and  N_22
REMARK                            x       y       z     vdW  Elec       q    Type
REMARK                         _______ _______ _______ _____ _____    ______ ____
ROOT
ATOM      1  O   UNL     1       2.150   8.466  17.075  0.00  0.00    +0.000 OA
ATOM      2  C   UNL     1       2.154   8.176  18.272  0.00  0.00    +0.000 C 
ATOM      3  N   UNL     1       1.750   9.103  19.245  0.00  0.00    +0.000 N 
ATOM      4  C   UNL     1       1.227  10.388  18.765  0.00  0.00    +0.000 C 
ATOM      5  C   UNL     1       1.083  11.457  19.849  0.00  0.00    +0.000 C 
ATOM      6  C   UNL     1       0.309  10.913  21.028  0.00  0.00    +0.000 A 
ATOM      7  C   UNL     1       0.651   9.609  21.436  0.00  0.00    +0.000 A 
ATOM      8  C   UNL     1       0.100   9.058  22.600  0.00  0.00    +0.000 A 
ATOM      9  C   UNL     1      -0.792   9.797  23.365  0.00  0.00    +0.000 A 
ATOM     10  C   UNL     1      -1.119  11.095  22.979  0.00  0.00    +0.000 A 
ATOM     11  C   UNL     1      -0.588  11.658  21.809  0.00  0.00    +0.000 A 
ATOM     12  C   UNL     1       1.713   8.856  20.686  0.00  0.00    +0.000 C 
ENDROOT
BRANCH   2  13
ATOM     13  C   UNL     1       2.599   6.796  18.668  0.00  0.00    +0.000 A 
ATOM     14  C   UNL     1       1.968   6.174  19.759  0.00  0.00    +0.000 A 
ATOM     15  C   UNL     1       2.246   4.852  20.086  0.00  0.00    +0.000 A 
ATOM     16  C   UNL     1       3.232   4.166  19.390  0.00  0.00    +0.000 A 
ATOM     17  C   UNL     1       3.969   4.794  18.377  0.00  0.00    +0.000 A 
ATOM     18  C   UNL     1       5.018   4.093  17.758  0.00  0.00    +0.000 A 
ATOM     19  C   UNL     1       5.795   4.686  16.767  0.00  0.00    +0.000 A 
ATOM     20  C   UNL     1       5.516   5.983  16.364  0.00  0.00    +0.000 A 
ATOM     21  C   UNL     1       4.459   6.685  16.951  0.00  0.00    +0.000 A 
ATOM     22  C   UNL     1       3.664   6.127  17.987  0.00  0.00    +0.000 A 
ENDBRANCH   2  13
BRANCH  11  23
ATOM     23  N   UNL     1      -0.929  12.973  21.451  0.00  0.00    +0.000 N 
ATOM     24  C   UNL     1      -1.906  13.290  20.464  0.00  0.00    +0.000 C 
ATOM     25  C   UNL     1      -2.014  14.784  20.634  0.00  0.00    +0.000 C 
ATOM     26  O   UNL     1      -0.728  15.183  21.121  0.00  0.00    +0.000 OA
ATOM     27  C   UNL     1      -0.150  14.086  21.711  0.00  0.00    +0.000 C 
ATOM     28  O   UNL     1       0.906  14.144  22.325  0.00  0.00    +0.000 OA
ENDBRANCH  11  23
TORSDOF 2
ENDMDL
MODEL 9
REMARK VINA RESULT:      -7.1      2.507      8.136
REMARK  Name = 
REMARK  2 active torsions:
REMARK  status: ('A' for Active; 'I' for Inactive)
REMARK    1  A    between atoms: C_2  and  C_3
REMARK    2  A    between atoms: C_21  and  N_22
REMARK                            x       y       z     vdW  Elec       q    Type
REMARK                         _______ _______ _______ _____ _____    ______ ____
ROOT
ATOM      1  O   UNL     1       1.744   6.570  20.854  0.00  0.00    +0.000 OA
ATOM      2  C   UNL     1       1.948   7.203  19.818  0.00  0.00    +0.000 C 
ATOM      3  N   UNL     1       1.394   8.479  19.626  0.00  0.00    +0.000 N 
ATOM      4  C   UNL     1       0.655   9.060  20.753  0.00  0.00    +0.000 C 
ATOM      5  C   UNL     1      -0.167  10.300  20.397  0.00  0.00    +0.000 C 
ATOM      6  C   UNL     1       0.691  11.313  19.674  0.00  0.00    +0.000 A 
ATOM      7  C   UNL     1       1.552  10.794  18.688  0.00  0.00    +0.000 A 
ATOM      8  C   UNL     1       2.288  11.651  17.860  0.00  0.00    +0.000 A 
ATOM      9  C   UNL     1       2.175  13.026  18.006  0.00  0.00    +0.000 A 
ATOM     10  C   UNL     1       1.310  13.548  18.965  0.00  0.00    +0.000 A 
ATOM     11  C   UNL     1       0.575  12.705  19.812  0.00  0.00    +0.000 A 
ATOM     12  C   UNL     1       1.580   9.312  18.439  0.00  0.00    +0.000 C 
ENDROOT
BRANCH   2  13
ATOM     13  C   UNL     1       2.813   6.578  18.760  0.00  0.00    +0.000 A 
ATOM     14  C   UNL     1       3.756   7.384  18.100  0.00  0.00    +0.000 A 
ATOM     15  C   UNL     1       4.668   6.830  17.210  0.00  0.00    +0.000 A 
ATOM     16  C   UNL     1       4.586   5.482  16.891  0.00  0.00    +0.000 A 
ATOM     17  C   UNL     1       3.579   4.673  17.435  0.00  0.00    +0.000 A 
ATOM     18  C   UNL     1       3.475   3.335  17.018  0.00  0.00    +0.000 A 
ATOM     19  C   UNL     1       2.474   2.503  17.510  0.00  0.00    +0.000 A 
ATOM     20  C   UNL     1       1.577   2.992  18.447  0.00  0.00    +0.000 A 
ATOM     21  C   UNL     1       1.683   4.314  18.892  0.00  0.00    +0.000 A 
ATOM     22  C   UNL     1       2.669   5.204  18.391  0.00  0.00    +0.000 A 
ENDBRANCH   2  13
BRANCH  11  23
ATOM     23  N   UNL     1      -0.297  13.260  20.763  0.00  0.00    +0.000 N 
ATOM     24  C   UNL     1       0.065  13.489  22.122  0.00  0.00    +0.000 C 
ATOM     25  C   UNL     1      -1.130  14.265  22.613  0.00  0.00    +0.000 C 
ATOM     26  O   UNL     1      -2.212  13.814  21.792  0.00  0.00    +0.000 OA
ATOM     27  C   UNL     1      -1.673  13.317  20.632  0.00  0.00    +0.000 C 
ATOM     28  O   UNL     1      -2.356  12.964  19.681  0.00  0.00    +0.000 OA
ENDBRANCH  11  23
TORSDOF 2
ENDMDL
