MODEL 1
REMARK VINA RESULT:      -7.6      0.000      0.000
REMARK  Name = 
REMARK  2 active torsions:
REMARK  status: ('A' for Active; 'I' for Inactive)
REMARK    1  A    between atoms: C_2  and  C_5
REMARK    2  A    between atoms: C_16  and  C_17
REMARK                            x       y       z     vdW  Elec       q    Type
REMARK                         _______ _______ _______ _____ _____    ______ ____
ROOT
ATOM      1  C   UNL     1       1.704  15.140  18.725  0.00  0.00    +0.000 A 
ATOM      2  N   UNL     1       1.435  16.432  18.640  0.00  0.00    +0.000 NA
ATOM      3  N   UNL     1       0.242  16.660  19.275  0.00  0.00    +0.000 NA
ATOM      4  C   UNL     1      -0.185  15.510  19.737  0.00  0.00    +0.000 A 
ATOM      5  C   UNL     1      -1.348  15.155  20.440  0.00  0.00    +0.000 A 
ATOM      6  C   UNL     1      -1.520  13.876  20.779  0.00  0.00    +0.000 A 
ATOM      7  C   UNL     1      -0.468  12.855  20.434  0.00  0.00    +0.000 A 
ATOM      8  N   UNL     1      -0.653  11.542  20.850  0.00  0.00    +0.000 N 
ATOM      9  C   UNL     1      -1.439  11.167  22.029  0.00  0.00    +0.000 C 
ATOM     10  C   UNL     1      -0.541  10.462  23.039  0.00  0.00    +0.000 C 
ATOM     11  C   UNL     1       0.141   9.249  22.417  0.00  0.00    +0.000 C 
ATOM     12  C   UNL     1       0.890   9.630  21.127  0.00  0.00    +0.000 C 
ATOM     13  C   UNL     1      -0.033  10.395  20.162  0.00  0.00    +0.000 C 
ATOM     14  N   UNL     1       0.605  13.177  19.747  0.00  0.00    +0.000 NA
ATOM     15  N   UNL     1       0.707  14.504  19.420  0.00  0.00    +0.000 N 
ENDROOT
BRANCH  12  16
ATOM     16  C   UNL     1       1.443   8.405  20.466  0.00  0.00    +0.000 A 
ATOM     17  N   UNL     1       1.965   8.334  19.257  0.00  0.00    +0.000 NA
ATOM     18  C   UNL     1       2.385   7.035  19.109  0.00  0.00    +0.000 A 
ATOM     19  C   UNL     1       3.036   6.419  18.031  0.00  0.00    +0.000 A 
ATOM     20  C   UNL     1       3.388   5.067  18.142  0.00  0.00    +0.000 A 
ATOM     21  C   UNL     1       3.091   4.344  19.300  0.00  0.00    +0.000 A 
ATOM     22  C   UNL     1       2.434   4.941  20.383  0.00  0.00    +0.000 A 
ATOM     23  C   UNL     1       2.100   6.290  20.246  0.00  0.00    +0.000 A 
ATOM     24  N   UNL     1       1.482   7.181  21.087  0.00  0.00    +0.000 N 
ATOM     25  H   UNL     1       1.139   6.976  22.015  0.00  0.00    +0.000 HD
ENDBRANCH  12  16
BRANCH   1  27
ATOM     26  F   UNL     1       3.717  14.007  19.164  0.00  0.00    +0.000 F 
ATOM     27  C   UNL     1       2.864  14.418  18.184  0.00  0.00    +0.000 C 
ATOM     28  F   UNL     1       3.607  15.179  17.337  0.00  0.00    +0.000 F 
ATOM     29  F   UNL     1       2.513  13.296  17.500  0.00  0.00    +0.000 F 
ENDBRANCH   1  27
TORSDOF 2
ENDMDL
MODEL 2
REMARK VINA RESULT:      -7.3      1.392      1.995
REMARK  Name = 
REMARK  2 active torsions:
REMARK  status: ('A' for Active; 'I' for Inactive)
REMARK    1  A    between atoms: C_2  and  C_5
REMARK    2  A    between atoms: C_16  and  C_17
REMARK                            x       y       z     vdW  Elec       q    Type
REMARK                         _______ _______ _______ _____ _____    ______ ____
ROOT
ATOM      1  C   UNL     1       3.547  15.796  18.289  0.00  0.00    +0.000 A 
ATOM      2  N   UNL     1       3.609  17.099  18.071  0.00  0.00    +0.000 NA
ATOM      3  N   UNL     1       2.336  17.602  18.136  0.00  0.00    +0.000 NA
ATOM      4  C   UNL     1       1.530  16.603  18.398  0.00  0.00    +0.000 A 
ATOM      5  C   UNL     1       0.135  16.537  18.549  0.00  0.00    +0.000 A 
ATOM      6  C   UNL     1      -0.421  15.352  18.811  0.00  0.00    +0.000 A 
ATOM      7  C   UNL     1       0.445  14.129  18.966  0.00  0.00    +0.000 A 
ATOM      8  N   UNL     1      -0.161  12.922  19.292  0.00  0.00    +0.000 N 
ATOM      9  C   UNL     1      -1.421  12.820  20.035  0.00  0.00    +0.000 C 
ATOM     10  C   UNL     1      -1.183  12.078  21.345  0.00  0.00    +0.000 C 
ATOM     11  C   UNL     1      -0.572  10.704  21.096  0.00  0.00    +0.000 C 
ATOM     12  C   UNL     1       0.702  10.806  20.237  0.00  0.00    +0.000 C 
ATOM     13  C   UNL     1       0.435  11.617  18.956  0.00  0.00    +0.000 C 
ATOM     14  N   UNL     1       1.747  14.180  18.791  0.00  0.00    +0.000 NA
ATOM     15  N   UNL     1       2.245  15.426  18.510  0.00  0.00    +0.000 N 
ENDROOT
BRANCH  12  16
ATOM     16  C   UNL     1       1.212   9.439  19.898  0.00  0.00    +0.000 A 
ATOM     17  N   UNL     1       1.813   9.081  18.781  0.00  0.00    +0.000 NA
ATOM     18  C   UNL     1       2.149   7.760  18.947  0.00  0.00    +0.000 A 
ATOM     19  C   UNL     1       2.830   6.891  18.082  0.00  0.00    +0.000 A 
ATOM     20  C   UNL     1       3.075   5.577  18.506  0.00  0.00    +0.000 A 
ATOM     21  C   UNL     1       2.645   5.139  19.761  0.00  0.00    +0.000 A 
ATOM     22  C   UNL     1       1.956   5.990  20.634  0.00  0.00    +0.000 A 
ATOM     23  C   UNL     1       1.730   7.294  20.187  0.00  0.00    +0.000 A 
ATOM     24  N   UNL     1       1.118   8.378  20.765  0.00  0.00    +0.000 N 
ATOM     25  H   UNL     1       0.696   8.397  21.683  0.00  0.00    +0.000 HD
ENDBRANCH  12  16
BRANCH   1  27
ATOM     26  F   UNL     1       4.260  13.596  17.868  0.00  0.00    +0.000 F 
ATOM     27  C   UNL     1       4.650  14.826  18.306  0.00  0.00    +0.000 C 
ATOM     28  F   UNL     1       5.162  14.634  19.551  0.00  0.00    +0.000 F 
ATOM     29  F   UNL     1       5.687  15.195  17.506  0.00  0.00    +0.000 F 
ENDBRANCH   1  27
TORSDOF 2
ENDMDL
MODEL 3
REMARK VINA RESULT:      -7.3      0.347      1.150
REMARK  Name = 
REMARK  2 active torsions:
REMARK  status: ('A' for Active; 'I' for Inactive)
REMARK    1  A    between atoms: C_2  and  C_5
REMARK    2  A    between atoms: C_16  and  C_17
REMARK                            x       y       z     vdW  Elec       q    Type
REMARK                         _______ _______ _______ _____ _____    ______ ____
ROOT
ATOM      1  C   UNL     1       1.772  15.247  18.659  0.00  0.00    +0.000 A 
ATOM      2  N   UNL     1       1.544  16.539  18.495  0.00  0.00    +0.000 NA
ATOM      3  N   UNL     1       0.324  16.828  19.048  0.00  0.00    +0.000 NA
ATOM      4  C   UNL     1      -0.160  15.714  19.541  0.00  0.00    +0.000 A 
ATOM      5  C   UNL     1      -1.370  15.424  20.192  0.00  0.00    +0.000 A 
ATOM      6  C   UNL     1      -1.596  14.168  20.584  0.00  0.00    +0.000 A 
ATOM      7  C   UNL     1      -0.554  13.106  20.351  0.00  0.00    +0.000 A 
ATOM      8  N   UNL     1      -0.798  11.820  20.821  0.00  0.00    +0.000 N 
ATOM      9  C   UNL     1      -1.659  11.526  21.970  0.00  0.00    +0.000 C 
ATOM     10  C   UNL     1      -0.839  10.851  23.064  0.00  0.00    +0.000 C 
ATOM     11  C   UNL     1      -0.156   9.592  22.543  0.00  0.00    +0.000 C 
ATOM     12  C   UNL     1       0.675   9.888  21.281  0.00  0.00    +0.000 C 
ATOM     13  C   UNL     1      -0.171  10.626  20.228  0.00  0.00    +0.000 C 
ATOM     14  N   UNL     1       0.565  13.366  19.713  0.00  0.00    +0.000 NA
ATOM     15  N   UNL     1       0.721  14.672  19.326  0.00  0.00    +0.000 N 
ENDROOT
BRANCH  12  16
ATOM     16  C   UNL     1       1.231   8.618  20.715  0.00  0.00    +0.000 A 
ATOM     17  N   UNL     1       1.211   7.430  21.285  0.00  0.00    +0.000 NA
ATOM     18  C   UNL     1       1.779   6.572  20.376  0.00  0.00    +0.000 A 
ATOM     19  C   UNL     1       1.982   5.186  20.453  0.00  0.00    +0.000 A 
ATOM     20  C   UNL     1       2.567   4.530  19.362  0.00  0.00    +0.000 A 
ATOM     21  C   UNL     1       2.947   5.242  18.221  0.00  0.00    +0.000 A 
ATOM     22  C   UNL     1       2.760   6.627  18.129  0.00  0.00    +0.000 A 
ATOM     23  C   UNL     1       2.170   7.253  19.230  0.00  0.00    +0.000 A 
ATOM     24  N   UNL     1       1.829   8.558  19.480  0.00  0.00    +0.000 N 
ATOM     25  H   UNL     1       1.969   9.335  18.850  0.00  0.00    +0.000 HD
ENDBRANCH  12  16
BRANCH   1  27
ATOM     26  F   UNL     1       3.725  14.087  19.270  0.00  0.00    +0.000 F 
ATOM     27  C   UNL     1       2.941  14.470  18.223  0.00  0.00    +0.000 C 
ATOM     28  F   UNL     1       3.752  15.169  17.385  0.00  0.00    +0.000 F 
ATOM     29  F   UNL     1       2.599  13.324  17.575  0.00  0.00    +0.000 F 
ENDBRANCH   1  27
TORSDOF 2
ENDMDL
MODEL 4
REMARK VINA RESULT:      -7.3      1.391      2.304
REMARK  Name = 
REMARK  2 active torsions:
REMARK  status: ('A' for Active; 'I' for Inactive)
REMARK    1  A    between atoms: C_2  and  C_5
REMARK    2  A    between atoms: C_16  and  C_17
REMARK                            x       y       z     vdW  Elec       q    Type
REMARK                         _______ _______ _______ _____ _____    ______ ____
ROOT
ATOM      1  C   UNL     1       3.486  15.901  18.342  0.00  0.00    +0.000 A 
ATOM      2  N   UNL     1       3.547  17.194  18.074  0.00  0.00    +0.000 NA
ATOM      3  N   UNL     1       2.271  17.694  18.095  0.00  0.00    +0.000 NA
ATOM      4  C   UNL     1       1.464  16.702  18.381  0.00  0.00    +0.000 A 
ATOM      5  C   UNL     1       0.067  16.635  18.509  0.00  0.00    +0.000 A 
ATOM      6  C   UNL     1      -0.489  15.459  18.806  0.00  0.00    +0.000 A 
ATOM      7  C   UNL     1       0.378  14.247  19.024  0.00  0.00    +0.000 A 
ATOM      8  N   UNL     1      -0.230  13.050  19.387  0.00  0.00    +0.000 N 
ATOM      9  C   UNL     1      -1.502  12.973  20.109  0.00  0.00    +0.000 C 
ATOM     10  C   UNL     1      -1.287  12.282  21.451  0.00  0.00    +0.000 C 
ATOM     11  C   UNL     1      -0.666  10.903  21.267  0.00  0.00    +0.000 C 
ATOM     12  C   UNL     1       0.623  10.977  20.429  0.00  0.00    +0.000 C 
ATOM     13  C   UNL     1       0.378  11.736  19.112  0.00  0.00    +0.000 C 
ATOM     14  N   UNL     1       1.682  14.297  18.873  0.00  0.00    +0.000 NA
ATOM     15  N   UNL     1       2.181  15.533  18.552  0.00  0.00    +0.000 N 
ENDROOT
BRANCH  12  16
ATOM     16  C   UNL     1       1.145   9.600  20.153  0.00  0.00    +0.000 A 
ATOM     17  N   UNL     1       1.123   8.573  20.980  0.00  0.00    +0.000 NA
ATOM     18  C   UNL     1       1.653   7.520  20.276  0.00  0.00    +0.000 A 
ATOM     19  C   UNL     1       1.837   6.184  20.662  0.00  0.00    +0.000 A 
ATOM     20  C   UNL     1       2.383   5.286  19.735  0.00  0.00    +0.000 A 
ATOM     21  C   UNL     1       2.743   5.712  18.454  0.00  0.00    +0.000 A 
ATOM     22  C   UNL     1       2.574   7.043  18.054  0.00  0.00    +0.000 A 
ATOM     23  C   UNL     1       2.024   7.915  18.997  0.00  0.00    +0.000 A 
ATOM     24  N   UNL     1       1.709   9.249  18.951  0.00  0.00    +0.000 N 
ATOM     25  H   UNL     1       1.843   9.860  18.158  0.00  0.00    +0.000 HD
ENDBRANCH  12  16
BRANCH   1  27
ATOM     26  F   UNL     1       5.722  15.403  17.812  0.00  0.00    +0.000 F 
ATOM     27  C   UNL     1       4.592  14.937  18.416  0.00  0.00    +0.000 C 
ATOM     28  F   UNL     1       4.303  13.757  17.807  0.00  0.00    +0.000 F 
ATOM     29  F   UNL     1       4.948  14.643  19.695  0.00  0.00    +0.000 F 
ENDBRANCH   1  27
TORSDOF 2
ENDMDL
MODEL 5
REMARK VINA RESULT:      -7.2      5.939      7.685
REMARK  Name = 
REMARK  2 active torsions:
REMARK  status: ('A' for Active; 'I' for Inactive)
REMARK    1  A    between atoms: C_2  and  C_5
REMARK    2  A    between atoms: C_16  and  C_17
REMARK                            x       y       z     vdW  Elec       q    Type
REMARK                         _______ _______ _______ _____ _____    ______ ____
ROOT
ATOM      1  C   UNL     1       5.947  16.153  18.752  0.00  0.00    +0.000 A 
ATOM      2  N   UNL     1       5.818  17.449  18.985  0.00  0.00    +0.000 NA
ATOM      3  N   UNL     1       6.971  17.891  19.579  0.00  0.00    +0.000 NA
ATOM      4  C   UNL     1       7.777  16.863  19.689  0.00  0.00    +0.000 A 
ATOM      5  C   UNL     1       9.064  16.734  20.236  0.00  0.00    +0.000 A 
ATOM      6  C   UNL     1       9.648  15.534  20.214  0.00  0.00    +0.000 A 
ATOM      7  C   UNL     1       8.939  14.362  19.587  0.00  0.00    +0.000 A 
ATOM      8  N   UNL     1       9.598  13.139  19.531  0.00  0.00    +0.000 N 
ATOM      9  C   UNL     1      11.056  13.003  19.495  0.00  0.00    +0.000 C 
ATOM     10  C   UNL     1      11.474  12.321  18.197  0.00  0.00    +0.000 C 
ATOM     11  C   UNL     1      10.786  10.971  18.038  0.00  0.00    +0.000 C 
ATOM     12  C   UNL     1       9.258  11.104  18.168  0.00  0.00    +0.000 C 
ATOM     13  C   UNL     1       8.880  11.853  19.459  0.00  0.00    +0.000 C 
ATOM     14  N   UNL     1       7.722  14.470  19.105  0.00  0.00    +0.000 NA
ATOM     15  N   UNL     1       7.180  15.728  19.177  0.00  0.00    +0.000 N 
ENDROOT
BRANCH  12  16
ATOM     16  C   UNL     1       8.613   9.752  18.137  0.00  0.00    +0.000 A 
ATOM     17  N   UNL     1       7.683   9.346  17.294  0.00  0.00    +0.000 NA
ATOM     18  C   UNL     1       7.446   8.031  17.610  0.00  0.00    +0.000 A 
ATOM     19  C   UNL     1       6.575   7.108  17.013  0.00  0.00    +0.000 A 
ATOM     20  C   UNL     1       6.538   5.799  17.513  0.00  0.00    +0.000 A 
ATOM     21  C   UNL     1       7.346   5.422  18.589  0.00  0.00    +0.000 A 
ATOM     22  C   UNL     1       8.215   6.333  19.202  0.00  0.00    +0.000 A 
ATOM     23  C   UNL     1       8.235   7.628  18.680  0.00  0.00    +0.000 A 
ATOM     24  N   UNL     1       8.954   8.748  19.010  0.00  0.00    +0.000 N 
ATOM     25  H   UNL     1       9.638   8.814  19.750  0.00  0.00    +0.000 HD
ENDBRANCH  12  16
BRANCH   1  27
ATOM     26  F   UNL     1       4.211  14.602  19.079  0.00  0.00    +0.000 F 
ATOM     27  C   UNL     1       4.971  15.240  18.144  0.00  0.00    +0.000 C 
ATOM     28  F   UNL     1       5.557  14.259  17.407  0.00  0.00    +0.000 F 
ATOM     29  F   UNL     1       4.093  15.878  17.324  0.00  0.00    +0.000 F 
ENDBRANCH   1  27
TORSDOF 2
ENDMDL
MODEL 6
REMARK VINA RESULT:      -7.1      4.636      6.065
REMARK  Name = 
REMARK  2 active torsions:
REMARK  status: ('A' for Active; 'I' for Inactive)
REMARK    1  A    between atoms: C_2  and  C_5
REMARK    2  A    between atoms: C_16  and  C_17
REMARK                            x       y       z     vdW  Elec       q    Type
REMARK                         _______ _______ _______ _____ _____    ______ ____
ROOT
ATOM      1  C   UNL     1      -6.747  12.737  20.873  0.00  0.00    +0.000 A 
ATOM      2  N   UNL     1      -7.888  13.270  21.275  0.00  0.00    +0.000 NA
ATOM      3  N   UNL     1      -7.652  13.949  22.442  0.00  0.00    +0.000 NA
ATOM      4  C   UNL     1      -6.378  13.822  22.722  0.00  0.00    +0.000 A 
ATOM      5  C   UNL     1      -5.602  14.287  23.796  0.00  0.00    +0.000 A 
ATOM      6  C   UNL     1      -4.302  13.989  23.817  0.00  0.00    +0.000 A 
ATOM      7  C   UNL     1      -3.691  13.195  22.692  0.00  0.00    +0.000 A 
ATOM      8  N   UNL     1      -2.323  12.949  22.718  0.00  0.00    +0.000 N 
ATOM      9  C   UNL     1      -1.354  13.822  23.387  0.00  0.00    +0.000 C 
ATOM     10  C   UNL     1      -0.371  14.374  22.360  0.00  0.00    +0.000 C 
ATOM     11  C   UNL     1       0.323  13.251  21.601  0.00  0.00    +0.000 C 
ATOM     12  C   UNL     1      -0.699  12.283  20.977  0.00  0.00    +0.000 C 
ATOM     13  C   UNL     1      -1.710  11.798  22.032  0.00  0.00    +0.000 C 
ATOM     14  N   UNL     1      -4.419  12.729  21.703  0.00  0.00    +0.000 NA
ATOM     15  N   UNL     1      -5.748  13.062  21.756  0.00  0.00    +0.000 N 
ENDROOT
BRANCH  12  16
ATOM     16  C   UNL     1       0.003  11.119  20.347  0.00  0.00    +0.000 A 
ATOM     17  N   UNL     1       0.372  11.015  19.086  0.00  0.00    +0.000 NA
ATOM     18  C   UNL     1       1.024   9.811  18.988  0.00  0.00    +0.000 A 
ATOM     19  C   UNL     1       1.646   9.213  17.882  0.00  0.00    +0.000 A 
ATOM     20  C   UNL     1       2.275   7.973  18.053  0.00  0.00    +0.000 A 
ATOM     21  C   UNL     1       2.279   7.339  19.299  0.00  0.00    +0.000 A 
ATOM     22  C   UNL     1       1.656   7.917  20.412  0.00  0.00    +0.000 A 
ATOM     23  C   UNL     1       1.041   9.156  20.213  0.00  0.00    +0.000 A 
ATOM     24  N   UNL     1       0.367  10.001  21.057  0.00  0.00    +0.000 N 
ATOM     25  H   UNL     1       0.192   9.839  22.039  0.00  0.00    +0.000 HD
ENDBRANCH  12  16
BRANCH   1  27
ATOM     26  F   UNL     1      -7.540  11.956  18.802  0.00  0.00    +0.000 F 
ATOM     27  C   UNL     1      -6.502  11.910  19.684  0.00  0.00    +0.000 C 
ATOM     28  F   UNL     1      -6.326  10.595  19.985  0.00  0.00    +0.000 F 
ATOM     29  F   UNL     1      -5.403  12.303  18.986  0.00  0.00    +0.000 F 
ENDBRANCH   1  27
TORSDOF 2
ENDMDL
MODEL 7
REMARK VINA RESULT:      -7.1      1.362      1.884
REMARK  Name = 
REMARK  2 active torsions:
REMARK  status: ('A' for Active; 'I' for Inactive)
REMARK    1  A    between atoms: C_2  and  C_5
REMARK    2  A    between atoms: C_16  and  C_17
REMARK                            x       y       z     vdW  Elec       q    Type
REMARK                         _______ _______ _______ _____ _____    ______ ____
ROOT
ATOM      1  C   UNL     1       1.702  14.550  18.850  0.00  0.00    +0.000 A 
ATOM      2  N   UNL     1       1.220  15.760  19.080  0.00  0.00    +0.000 NA
ATOM      3  N   UNL     1       0.009  15.623  19.707  0.00  0.00    +0.000 NA
ATOM      4  C   UNL     1      -0.217  14.341  19.852  0.00  0.00    +0.000 A 
ATOM      5  C   UNL     1      -1.301  13.635  20.400  0.00  0.00    +0.000 A 
ATOM      6  C   UNL     1      -1.255  12.302  20.404  0.00  0.00    +0.000 A 
ATOM      7  C   UNL     1      -0.048  11.586  19.855  0.00  0.00    +0.000 A 
ATOM      8  N   UNL     1      -0.009  10.198  19.924  0.00  0.00    +0.000 N 
ATOM      9  C   UNL     1      -0.716   9.416  20.943  0.00  0.00    +0.000 C 
ATOM     10  C   UNL     1       0.293   8.635  21.778  0.00  0.00    +0.000 C 
ATOM     11  C   UNL     1       1.164   7.746  20.900  0.00  0.00    +0.000 C 
ATOM     12  C   UNL     1       1.833   8.556  19.774  0.00  0.00    +0.000 C 
ATOM     13  C   UNL     1       0.790   9.379  18.996  0.00  0.00    +0.000 C 
ATOM     14  N   UNL     1       0.952  12.241  19.310  0.00  0.00    +0.000 NA
ATOM     15  N   UNL     1       0.829  13.606  19.328  0.00  0.00    +0.000 N 
ENDROOT
BRANCH  12  16
ATOM     16  C   UNL     1       2.580   7.644  18.850  0.00  0.00    +0.000 A 
ATOM     17  N   UNL     1       3.392   8.008  17.877  0.00  0.00    +0.000 NA
ATOM     18  C   UNL     1       3.883   6.839  17.348  0.00  0.00    +0.000 A 
ATOM     19  C   UNL     1       4.808   6.642  16.312  0.00  0.00    +0.000 A 
ATOM     20  C   UNL     1       5.170   5.330  15.975  0.00  0.00    +0.000 A 
ATOM     21  C   UNL     1       4.616   4.240  16.652  0.00  0.00    +0.000 A 
ATOM     22  C   UNL     1       3.685   4.418  17.683  0.00  0.00    +0.000 A 
ATOM     23  C   UNL     1       3.348   5.736  18.000  0.00  0.00    +0.000 A 
ATOM     24  N   UNL     1       2.505   6.276  18.939  0.00  0.00    +0.000 N 
ATOM     25  H   UNL     1       1.947   5.755  19.600  0.00  0.00    +0.000 HD
ENDBRANCH  12  16
BRANCH   1  27
ATOM     26  F   UNL     1       4.012  14.163  19.061  0.00  0.00    +0.000 F 
ATOM     27  C   UNL     1       2.963  14.186  18.190  0.00  0.00    +0.000 C 
ATOM     28  F   UNL     1       3.313  15.060  17.209  0.00  0.00    +0.000 F 
ATOM     29  F   UNL     1       2.923  12.952  17.622  0.00  0.00    +0.000 F 
ENDBRANCH   1  27
TORSDOF 2
ENDMDL
MODEL 8
REMARK VINA RESULT:      -7.1      6.097      9.573
REMARK  Name = 
REMARK  2 active torsions:
REMARK  status: ('A' for Active; 'I' for Inactive)
REMARK    1  A    between atoms: C_2  and  C_5
REMARK    2  A    between atoms: C_16  and  C_17
REMARK                            x       y       z     vdW  Elec       q    Type
REMARK                         _______ _______ _______ _____ _____    ______ ____
ROOT
ATOM      1  C   UNL     1      10.338  11.817  18.564  0.00  0.00    +0.000 A 
ATOM      2  N   UNL     1      11.626  11.551  18.435  0.00  0.00    +0.000 NA
ATOM      3  N   UNL     1      12.269  12.714  18.099  0.00  0.00    +0.000 NA
ATOM      4  C   UNL     1      11.365  13.661  18.038  0.00  0.00    +0.000 A 
ATOM      5  C   UNL     1      11.456  15.025  17.719  0.00  0.00    +0.000 A 
ATOM      6  C   UNL     1      10.340  15.757  17.733  0.00  0.00    +0.000 A 
ATOM      7  C   UNL     1       9.026  15.124  18.110  0.00  0.00    +0.000 A 
ATOM      8  N   UNL     1       7.892  15.926  18.167  0.00  0.00    +0.000 N 
ATOM      9  C   UNL     1       7.929  17.364  18.449  0.00  0.00    +0.000 C 
ATOM     10  C   UNL     1       7.156  17.653  19.731  0.00  0.00    +0.000 C 
ATOM     11  C   UNL     1       5.724  17.141  19.638  0.00  0.00    +0.000 C 
ATOM     12  C   UNL     1       5.687  15.651  19.251  0.00  0.00    +0.000 C 
ATOM     13  C   UNL     1       6.531  15.391  17.990  0.00  0.00    +0.000 C 
ATOM     14  N   UNL     1       8.931  13.840  18.376  0.00  0.00    +0.000 NA
ATOM     15  N   UNL     1      10.115  13.150  18.328  0.00  0.00    +0.000 N 
ENDROOT
BRANCH  12  16
ATOM     16  C   UNL     1       4.274  15.202  19.041  0.00  0.00    +0.000 A 
ATOM     17  N   UNL     1       3.882  14.014  18.624  0.00  0.00    +0.000 NA
ATOM     18  C   UNL     1       2.509  14.050  18.641  0.00  0.00    +0.000 A 
ATOM     19  C   UNL     1       1.581  13.048  18.322  0.00  0.00    +0.000 A 
ATOM     20  C   UNL     1       0.215  13.332  18.449  0.00  0.00    +0.000 A 
ATOM     21  C   UNL     1      -0.217  14.591  18.878  0.00  0.00    +0.000 A 
ATOM     22  C   UNL     1       0.696  15.606  19.192  0.00  0.00    +0.000 A 
ATOM     23  C   UNL     1       2.051  15.292  19.061  0.00  0.00    +0.000 A 
ATOM     24  N   UNL     1       3.194  16.014  19.289  0.00  0.00    +0.000 N 
ATOM     25  H   UNL     1       3.234  16.970  19.613  0.00  0.00    +0.000 HD
ENDBRANCH  12  16
BRANCH   1  27
ATOM     26  F   UNL     1       9.698   9.615  19.082  0.00  0.00    +0.000 F 
ATOM     27  C   UNL     1       9.250  10.889  18.901  0.00  0.00    +0.000 C 
ATOM     28  F   UNL     1       8.302  10.816  17.928  0.00  0.00    +0.000 F 
ATOM     29  F   UNL     1       8.607  11.226  20.051  0.00  0.00    +0.000 F 
ENDBRANCH   1  27
TORSDOF 2
ENDMDL
MODEL 9
REMARK VINA RESULT:      -7.0      6.132      9.593
REMARK  Name = 
REMARK  2 active torsions:
REMARK  status: ('A' for Active; 'I' for Inactive)
REMARK    1  A    between atoms: C_2  and  C_5
REMARK    2  A    between atoms: C_16  and  C_17
REMARK                            x       y       z     vdW  Elec       q    Type
REMARK                         _______ _______ _______ _____ _____    ______ ____
ROOT
ATOM      1  C   UNL     1      10.361  11.898  18.440  0.00  0.00    +0.000 A 
ATOM      2  N   UNL     1      11.637  11.619  18.235  0.00  0.00    +0.000 NA
ATOM      3  N   UNL     1      12.267  12.773  17.847  0.00  0.00    +0.000 NA
ATOM      4  C   UNL     1      11.369  13.727  17.831  0.00  0.00    +0.000 A 
ATOM      5  C   UNL     1      11.450  15.087  17.491  0.00  0.00    +0.000 A 
ATOM      6  C   UNL     1      10.343  15.828  17.564  0.00  0.00    +0.000 A 
ATOM      7  C   UNL     1       9.050  15.210  18.029  0.00  0.00    +0.000 A 
ATOM      8  N   UNL     1       7.928  16.023  18.146  0.00  0.00    +0.000 N 
ATOM      9  C   UNL     1       7.994  17.463  18.408  0.00  0.00    +0.000 C 
ATOM     10  C   UNL     1       7.303  17.773  19.732  0.00  0.00    +0.000 C 
ATOM     11  C   UNL     1       5.864  17.273  19.733  0.00  0.00    +0.000 C 
ATOM     12  C   UNL     1       5.792  15.779  19.367  0.00  0.00    +0.000 C 
ATOM     13  C   UNL     1       6.554  15.498  18.059  0.00  0.00    +0.000 C 
ATOM     14  N   UNL     1       8.961  13.931  18.316  0.00  0.00    +0.000 NA
ATOM     15  N   UNL     1      10.134  13.230  18.203  0.00  0.00    +0.000 N 
ENDROOT
BRANCH  12  16
ATOM     16  C   UNL     1       4.365  15.340  19.249  0.00  0.00    +0.000 A 
ATOM     17  N   UNL     1       3.296  16.075  19.487  0.00  0.00    +0.000 NA
ATOM     18  C   UNL     1       2.221  15.273  19.191  0.00  0.00    +0.000 A 
ATOM     19  C   UNL     1       0.849  15.558  19.237  0.00  0.00    +0.000 A 
ATOM     20  C   UNL     1      -0.058  14.560  18.854  0.00  0.00    +0.000 A 
ATOM     21  C   UNL     1       0.394  13.304  18.441  0.00  0.00    +0.000 A 
ATOM     22  C   UNL     1       1.760  12.999  18.397  0.00  0.00    +0.000 A 
ATOM     23  C   UNL     1       2.641  14.014  18.780  0.00  0.00    +0.000 A 
ATOM     24  N   UNL     1       4.009  14.076  18.845  0.00  0.00    +0.000 N 
ATOM     25  H   UNL     1       4.646  13.329  18.608  0.00  0.00    +0.000 HD
ENDBRANCH  12  16
BRANCH   1  27
ATOM     26  F   UNL     1       9.750   9.723  19.091  0.00  0.00    +0.000 F 
ATOM     27  C   UNL     1       9.288  10.983  18.854  0.00  0.00    +0.000 C 
ATOM     28  F   UNL     1       8.316  10.854  17.912  0.00  0.00    +0.000 F 
ATOM     29  F   UNL     1       8.674  11.377  20.002  0.00  0.00    +0.000 F 
ENDBRANCH   1  27
TORSDOF 2
ENDMDL
