MODEL 1
REMARK VINA RESULT:      -9.4      0.000      0.000
REMARK  Name = 
REMARK  4 active torsions:
REMARK  status: ('A' for Active; 'I' for Inactive)
REMARK    1  A    between atoms: C_1  and  C_2
REMARK    2  A    between atoms: C_2  and  N_3
REMARK    3  A    between atoms: C_2  and  C_18
REMARK    4  A    between atoms: C_4  and  C_6
REMARK                            x       y       z     vdW  Elec       q    Type
REMARK                         _______ _______ _______ _____ _____    ______ ____
ROOT
ATOM      1  N   UNL     1       4.823   4.924  18.103  0.00  0.00    +0.000 N 
ATOM      2  C   UNL     1       3.943   5.835  17.569  0.00  0.00    +0.000 C 
ATOM      3  O   UNL     1       4.314   6.779  16.873  0.00  0.00    +0.000 OA
ATOM      4  H   UNL     1       4.479   4.095  18.569  0.00  0.00    +0.000 HD
ENDROOT
BRANCH   2   5
ATOM      5  C   UNL     1       2.471   5.665  17.944  0.00  0.00    +0.000 C 
ATOM      6  C   UNL     1       1.856   7.013  18.302  0.00  0.00    +0.000 C 
ATOM      7  C   UNL     1       2.120   7.413  19.733  0.00  0.00    +0.000 C 
ATOM      8  O   UNL     1       2.212   8.590  20.079  0.00  0.00    +0.000 OA
ATOM      9  N   UNL     1       2.128   6.406  20.661  0.00  0.00    +0.000 N 
ATOM     10  C   UNL     1       2.092   5.047  20.355  0.00  0.00    +0.000 A 
ATOM     11  C   UNL     1       1.970   4.113  21.379  0.00  0.00    +0.000 A 
ATOM     12  C   UNL     1       1.984   2.759  21.063  0.00  0.00    +0.000 A 
ATOM     13  F   UNL     1       1.869   1.855  22.044  0.00  0.00    +0.000 F 
ATOM     14  C   UNL     1       2.125   2.325  19.749  0.00  0.00    +0.000 A 
ATOM     15  C   UNL     1       2.256   3.262  18.725  0.00  0.00    +0.000 A 
ATOM     16  C   UNL     1       2.236   4.632  19.024  0.00  0.00    +0.000 A 
ATOM     17  H   UNL     1       2.168   6.715  21.626  0.00  0.00    +0.000 HD
ENDBRANCH   2   5
BRANCH   1  19
ATOM     18  C   UNL     1       6.905   6.238  18.132  0.00  0.00    +0.000 C 
ATOM     19  C   UNL     1       6.230   4.920  17.752  0.00  0.00    +0.000 C 
BRANCH  19  20
ATOM     20  C   UNL     1       6.334   4.668  16.287  0.00  0.00    +0.000 A 
ATOM     21  C   UNL     1       5.735   3.751  15.445  0.00  0.00    +0.000 A 
ATOM     22  C   UNL     1       6.280   3.968  14.153  0.00  0.00    +0.000 A 
ATOM     23  C   UNL     1       6.130   3.374  12.888  0.00  0.00    +0.000 A 
ATOM     24  C   UNL     1       6.887   3.870  11.817  0.00  0.00    +0.000 A 
ATOM     25  C   UNL     1       7.767   4.942  11.993  0.00  0.00    +0.000 A 
ATOM     26  C   UNL     1       7.920   5.555  13.241  0.00  0.00    +0.000 A 
ATOM     27  C   UNL     1       7.163   5.031  14.286  0.00  0.00    +0.000 A 
ATOM     28  O   UNL     1       7.186   5.470  15.576  0.00  0.00    +0.000 OA
ENDBRANCH  19  20
ENDBRANCH   1  19
TORSDOF 3
ENDMDL
MODEL 2
REMARK VINA RESULT:      -9.1      0.632      1.197
REMARK  Name = 
REMARK  4 active torsions:
REMARK  status: ('A' for Active; 'I' for Inactive)
REMARK    1  A    between atoms: C_1  and  C_2
REMARK    2  A    between atoms: C_2  and  N_3
REMARK    3  A    between atoms: C_2  and  C_18
REMARK    4  A    between atoms: C_4  and  C_6
REMARK                            x       y       z     vdW  Elec       q    Type
REMARK                         _______ _______ _______ _____ _____    ______ ____
ROOT
ATOM      1  N   UNL     1       4.978   4.598  18.106  0.00  0.00    +0.000 N 
ATOM      2  C   UNL     1       4.204   5.660  17.706  0.00  0.00    +0.000 C 
ATOM      3  O   UNL     1       4.692   6.705  17.278  0.00  0.00    +0.000 OA
ATOM      4  H   UNL     1       4.547   3.712  18.341  0.00  0.00    +0.000 HD
ENDROOT
BRANCH   2   5
ATOM      5  C   UNL     1       2.693   5.515  17.890  0.00  0.00    +0.000 C 
ATOM      6  C   UNL     1       2.052   6.880  18.108  0.00  0.00    +0.000 C 
ATOM      7  C   UNL     1       2.129   7.339  19.543  0.00  0.00    +0.000 C 
ATOM      8  O   UNL     1       2.188   8.529  19.849  0.00  0.00    +0.000 OA
ATOM      9  N   UNL     1       2.004   6.373  20.505  0.00  0.00    +0.000 N 
ATOM     10  C   UNL     1       1.993   5.002  20.253  0.00  0.00    +0.000 A 
ATOM     11  C   UNL     1       1.727   4.112  21.289  0.00  0.00    +0.000 A 
ATOM     12  C   UNL     1       1.767   2.746  21.034  0.00  0.00    +0.000 A 
ATOM     13  F   UNL     1       1.514   1.886  22.028  0.00  0.00    +0.000 F 
ATOM     14  C   UNL     1       2.076   2.257  19.770  0.00  0.00    +0.000 A 
ATOM     15  C   UNL     1       2.351   3.149  18.734  0.00  0.00    +0.000 A 
ATOM     16  C   UNL     1       2.307   4.530  18.971  0.00  0.00    +0.000 A 
ATOM     17  H   UNL     1       1.919   6.722  21.453  0.00  0.00    +0.000 HD
ENDBRANCH   2   5
BRANCH   1  19
ATOM     18  C   UNL     1       7.094   5.771  18.564  0.00  0.00    +0.000 C 
ATOM     19  C   UNL     1       6.413   4.573  17.901  0.00  0.00    +0.000 C 
BRANCH  19  20
ATOM     20  C   UNL     1       6.664   4.559  16.433  0.00  0.00    +0.000 A 
ATOM     21  C   UNL     1       7.516   5.279  15.617  0.00  0.00    +0.000 A 
ATOM     22  C   UNL     1       7.259   4.859  14.287  0.00  0.00    +0.000 A 
ATOM     23  C   UNL     1       7.742   5.206  13.013  0.00  0.00    +0.000 A 
ATOM     24  C   UNL     1       7.203   4.561  11.890  0.00  0.00    +0.000 A 
ATOM     25  C   UNL     1       6.215   3.583  12.027  0.00  0.00    +0.000 A 
ATOM     26  C   UNL     1       5.732   3.214  13.287  0.00  0.00    +0.000 A 
ATOM     27  C   UNL     1       6.277   3.881  14.381  0.00  0.00    +0.000 A 
ATOM     28  O   UNL     1       5.927   3.684  15.682  0.00  0.00    +0.000 OA
ENDBRANCH  19  20
ENDBRANCH   1  19
TORSDOF 3
ENDMDL
MODEL 3
REMARK VINA RESULT:      -8.8      3.937      7.848
REMARK  Name = 
REMARK  4 active torsions:
REMARK  status: ('A' for Active; 'I' for Inactive)
REMARK    1  A    between atoms: C_1  and  C_2
REMARK    2  A    between atoms: C_2  and  N_3
REMARK    3  A    between atoms: C_2  and  C_18
REMARK    4  A    between atoms: C_4  and  C_6
REMARK                            x       y       z     vdW  Elec       q    Type
REMARK                         _______ _______ _______ _____ _____    ______ ____
ROOT
ATOM      1  N   UNL     1       1.468   8.314  19.151  0.00  0.00    +0.000 N 
ATOM      2  C   UNL     1       2.405   8.158  18.158  0.00  0.00    +0.000 C 
ATOM      3  O   UNL     1       2.928   9.117  17.590  0.00  0.00    +0.000 OA
ATOM      4  H   UNL     1       1.147   7.512  19.679  0.00  0.00    +0.000 HD
ENDROOT
BRANCH   2   5
ATOM      5  C   UNL     1       2.719   6.725  17.731  0.00  0.00    +0.000 C 
ATOM      6  C   UNL     1       1.791   5.745  18.438  0.00  0.00    +0.000 C 
ATOM      7  C   UNL     1       2.271   5.382  19.821  0.00  0.00    +0.000 C 
ATOM      8  O   UNL     1       1.494   5.084  20.728  0.00  0.00    +0.000 OA
ATOM      9  N   UNL     1       3.625   5.273  19.994  0.00  0.00    +0.000 N 
ATOM     10  C   UNL     1       4.576   5.646  19.044  0.00  0.00    +0.000 A 
ATOM     11  C   UNL     1       5.920   5.370  19.270  0.00  0.00    +0.000 A 
ATOM     12  C   UNL     1       6.863   5.791  18.339  0.00  0.00    +0.000 A 
ATOM     13  F   UNL     1       8.158   5.529  18.552  0.00  0.00    +0.000 F 
ATOM     14  C   UNL     1       6.486   6.487  17.196  0.00  0.00    +0.000 A 
ATOM     15  C   UNL     1       5.139   6.771  16.975  0.00  0.00    +0.000 A 
ATOM     16  C   UNL     1       4.174   6.348  17.899  0.00  0.00    +0.000 A 
ATOM     17  H   UNL     1       3.913   4.894  20.889  0.00  0.00    +0.000 HD
ENDBRANCH   2   5
BRANCH   1  19
ATOM     18  C   UNL     1       1.016   9.551  21.232  0.00  0.00    +0.000 C 
ATOM     19  C   UNL     1       1.149   9.614  19.709  0.00  0.00    +0.000 C 
BRANCH  19  20
ATOM     20  C   UNL     1      -0.118  10.081  19.080  0.00  0.00    +0.000 A 
ATOM     21  C   UNL     1      -1.141  10.900  19.520  0.00  0.00    +0.000 A 
ATOM     22  C   UNL     1      -2.113  10.928  18.487  0.00  0.00    +0.000 A 
ATOM     23  C   UNL     1      -3.373  11.525  18.311  0.00  0.00    +0.000 A 
ATOM     24  C   UNL     1      -4.068  11.291  17.115  0.00  0.00    +0.000 A 
ATOM     25  C   UNL     1      -3.520  10.490  16.109  0.00  0.00    +0.000 A 
ATOM     26  C   UNL     1      -2.262   9.898  16.261  0.00  0.00    +0.000 A 
ATOM     27  C   UNL     1      -1.602  10.141  17.463  0.00  0.00    +0.000 A 
ATOM     28  O   UNL     1      -0.385   9.639  17.813  0.00  0.00    +0.000 OA
ENDBRANCH  19  20
ENDBRANCH   1  19
TORSDOF 3
ENDMDL
MODEL 4
REMARK VINA RESULT:      -8.7      3.441      8.224
REMARK  Name = 
REMARK  4 active torsions:
REMARK  status: ('A' for Active; 'I' for Inactive)
REMARK    1  A    between atoms: C_1  and  C_2
REMARK    2  A    between atoms: C_2  and  N_3
REMARK    3  A    between atoms: C_2  and  C_18
REMARK    4  A    between atoms: C_4  and  C_6
REMARK                            x       y       z     vdW  Elec       q    Type
REMARK                         _______ _______ _______ _____ _____    ______ ____
ROOT
ATOM      1  N   UNL     1       1.979   8.269  18.997  0.00  0.00    +0.000 N 
ATOM      2  C   UNL     1       2.794   7.573  18.138  0.00  0.00    +0.000 C 
ATOM      3  O   UNL     1       2.859   7.833  16.937  0.00  0.00    +0.000 OA
ATOM      4  H   UNL     1       2.036   8.110  19.996  0.00  0.00    +0.000 HD
ENDROOT
BRANCH   2   5
ATOM      5  C   UNL     1       3.570   6.397  18.731  0.00  0.00    +0.000 C 
ATOM      6  C   UNL     1       4.897   6.216  18.005  0.00  0.00    +0.000 C 
ATOM      7  C   UNL     1       4.763   5.418  16.733  0.00  0.00    +0.000 C 
ATOM      8  O   UNL     1       5.504   5.593  15.767  0.00  0.00    +0.000 OA
ATOM      9  N   UNL     1       3.854   4.393  16.743  0.00  0.00    +0.000 N 
ATOM     10  C   UNL     1       2.936   4.160  17.766  0.00  0.00    +0.000 A 
ATOM     11  C   UNL     1       2.149   3.013  17.737  0.00  0.00    +0.000 A 
ATOM     12  C   UNL     1       1.204   2.817  18.738  0.00  0.00    +0.000 A 
ATOM     13  F   UNL     1       0.442   1.716  18.714  0.00  0.00    +0.000 F 
ATOM     14  C   UNL     1       1.027   3.748  19.755  0.00  0.00    +0.000 A 
ATOM     15  C   UNL     1       1.810   4.901  19.778  0.00  0.00    +0.000 A 
ATOM     16  C   UNL     1       2.774   5.111  18.782  0.00  0.00    +0.000 A 
ATOM     17  H   UNL     1       3.882   3.788  15.930  0.00  0.00    +0.000 HD
ENDBRANCH   2   5
BRANCH   1  19
ATOM     18  C   UNL     1       2.212  10.514  18.013  0.00  0.00    +0.000 C 
ATOM     19  C   UNL     1       1.262   9.459  18.582  0.00  0.00    +0.000 C 
BRANCH  19  20
ATOM     20  C   UNL     1       0.526   9.985  19.766  0.00  0.00    +0.000 A 
ATOM     21  C   UNL     1       0.495   9.612  21.096  0.00  0.00    +0.000 A 
ATOM     22  C   UNL     1      -0.447  10.460  21.735  0.00  0.00    +0.000 A 
ATOM     23  C   UNL     1      -0.963  10.585  23.037  0.00  0.00    +0.000 A 
ATOM     24  C   UNL     1      -1.936  11.565  23.283  0.00  0.00    +0.000 A 
ATOM     25  C   UNL     1      -2.379  12.412  22.264  0.00  0.00    +0.000 A 
ATOM     26  C   UNL     1      -1.868  12.311  20.965  0.00  0.00    +0.000 A 
ATOM     27  C   UNL     1      -0.912  11.321  20.750  0.00  0.00    +0.000 A 
ATOM     28  O   UNL     1      -0.312  11.047  19.558  0.00  0.00    +0.000 OA
ENDBRANCH  19  20
ENDBRANCH   1  19
TORSDOF 3
ENDMDL
MODEL 5
REMARK VINA RESULT:      -8.6      2.485      3.524
REMARK  Name = 
REMARK  4 active torsions:
REMARK  status: ('A' for Active; 'I' for Inactive)
REMARK    1  A    between atoms: C_1  and  C_2
REMARK    2  A    between atoms: C_2  and  N_3
REMARK    3  A    between atoms: C_2  and  C_18
REMARK    4  A    between atoms: C_4  and  C_6
REMARK                            x       y       z     vdW  Elec       q    Type
REMARK                         _______ _______ _______ _____ _____    ______ ____
ROOT
ATOM      1  N   UNL     1       5.275   5.101  18.306  0.00  0.00    +0.000 N 
ATOM      2  C   UNL     1       4.800   4.191  19.219  0.00  0.00    +0.000 C 
ATOM      3  O   UNL     1       5.450   3.205  19.564  0.00  0.00    +0.000 OA
ATOM      4  H   UNL     1       4.770   5.961  18.133  0.00  0.00    +0.000 HD
ENDROOT
BRANCH   2   5
ATOM      5  C   UNL     1       3.380   4.417  19.738  0.00  0.00    +0.000 C 
ATOM      6  C   UNL     1       2.527   3.176  19.508  0.00  0.00    +0.000 C 
ATOM      7  C   UNL     1       1.952   3.113  18.115  0.00  0.00    +0.000 C 
ATOM      8  O   UNL     1       1.719   2.046  17.548  0.00  0.00    +0.000 OA
ATOM      9  N   UNL     1       1.578   4.303  17.550  0.00  0.00    +0.000 N 
ATOM     10  C   UNL     1       1.857   5.558  18.091  0.00  0.00    +0.000 A 
ATOM     11  C   UNL     1       1.316   6.697  17.503  0.00  0.00    +0.000 A 
ATOM     12  C   UNL     1       1.641   7.945  18.023  0.00  0.00    +0.000 A 
ATOM     13  F   UNL     1       1.125   9.045  17.461  0.00  0.00    +0.000 F 
ATOM     14  C   UNL     1       2.500   8.073  19.109  0.00  0.00    +0.000 A 
ATOM     15  C   UNL     1       3.049   6.931  19.691  0.00  0.00    +0.000 A 
ATOM     16  C   UNL     1       2.726   5.664  19.185  0.00  0.00    +0.000 A 
ATOM     17  H   UNL     1       1.069   4.222  16.677  0.00  0.00    +0.000 HD
ENDBRANCH   2   5
BRANCH   1  19
ATOM     18  C   UNL     1       7.371   6.369  18.057  0.00  0.00    +0.000 C 
ATOM     19  C   UNL     1       6.636   5.052  17.808  0.00  0.00    +0.000 C 
BRANCH  19  20
ATOM     20  C   UNL     1       6.577   4.739  16.352  0.00  0.00    +0.000 A 
ATOM     21  C   UNL     1       5.845   3.828  15.614  0.00  0.00    +0.000 A 
ATOM     22  C   UNL     1       6.267   3.962  14.266  0.00  0.00    +0.000 A 
ATOM     23  C   UNL     1       5.957   3.330  13.049  0.00  0.00    +0.000 A 
ATOM     24  C   UNL     1       6.629   3.740  11.889  0.00  0.00    +0.000 A 
ATOM     25  C   UNL     1       7.580   4.762  11.929  0.00  0.00    +0.000 A 
ATOM     26  C   UNL     1       7.893   5.412  13.128  0.00  0.00    +0.000 A 
ATOM     27  C   UNL     1       7.218   4.975  14.265  0.00  0.00    +0.000 A 
ATOM     28  O   UNL     1       7.395   5.460  15.525  0.00  0.00    +0.000 OA
ENDBRANCH  19  20
ENDBRANCH   1  19
TORSDOF 3
ENDMDL
MODEL 6
REMARK VINA RESULT:      -8.5      3.996      7.984
REMARK  Name = 
REMARK  4 active torsions:
REMARK  status: ('A' for Active; 'I' for Inactive)
REMARK    1  A    between atoms: C_1  and  C_2
REMARK    2  A    between atoms: C_2  and  N_3
REMARK    3  A    between atoms: C_2  and  C_18
REMARK    4  A    between atoms: C_4  and  C_6
REMARK                            x       y       z     vdW  Elec       q    Type
REMARK                         _______ _______ _______ _____ _____    ______ ____
ROOT
ATOM      1  N   UNL     1       1.545   8.152  19.059  0.00  0.00    +0.000 N 
ATOM      2  C   UNL     1       2.428   7.996  18.018  0.00  0.00    +0.000 C 
ATOM      3  O   UNL     1       2.835   8.947  17.352  0.00  0.00    +0.000 OA
ATOM      4  H   UNL     1       1.323   7.369  19.661  0.00  0.00    +0.000 HD
ENDROOT
BRANCH   2   5
ATOM      5  C   UNL     1       2.828   6.562  17.668  0.00  0.00    +0.000 C 
ATOM      6  C   UNL     1       1.927   5.569  18.392  0.00  0.00    +0.000 C 
ATOM      7  C   UNL     1       2.379   5.294  19.805  0.00  0.00    +0.000 C 
ATOM      8  O   UNL     1       1.589   4.998  20.700  0.00  0.00    +0.000 OA
ATOM      9  N   UNL     1       3.730   5.264  20.024  0.00  0.00    +0.000 N 
ATOM     10  C   UNL     1       4.692   5.643  19.088  0.00  0.00    +0.000 A 
ATOM     11  C   UNL     1       6.041   5.448  19.368  0.00  0.00    +0.000 A 
ATOM     12  C   UNL     1       6.991   5.875  18.448  0.00  0.00    +0.000 A 
ATOM     13  F   UNL     1       8.290   5.692  18.713  0.00  0.00    +0.000 F 
ATOM     14  C   UNL     1       6.618   6.498  17.262  0.00  0.00    +0.000 A 
ATOM     15  C   UNL     1       5.266   6.701  16.986  0.00  0.00    +0.000 A 
ATOM     16  C   UNL     1       4.294   6.270  17.899  0.00  0.00    +0.000 A 
ATOM     17  H   UNL     1       4.008   4.942  20.944  0.00  0.00    +0.000 HD
ENDBRANCH   2   5
BRANCH   1  19
ATOM     18  C   UNL     1       0.978   9.459  21.067  0.00  0.00    +0.000 C 
ATOM     19  C   UNL     1       1.159   9.461  19.549  0.00  0.00    +0.000 C 
BRANCH  19  20
ATOM     20  C   UNL     1      -0.104   9.851  18.860  0.00  0.00    +0.000 A 
ATOM     21  C   UNL     1      -0.617   9.572  17.608  0.00  0.00    +0.000 A 
ATOM     22  C   UNL     1      -1.844  10.277  17.503  0.00  0.00    +0.000 A 
ATOM     23  C   UNL     1      -2.823  10.447  16.509  0.00  0.00    +0.000 A 
ATOM     24  C   UNL     1      -3.923  11.273  16.782  0.00  0.00    +0.000 A 
ATOM     25  C   UNL     1      -4.058  11.907  18.019  0.00  0.00    +0.000 A 
ATOM     26  C   UNL     1      -3.101  11.740  19.026  0.00  0.00    +0.000 A 
ATOM     27  C   UNL     1      -2.014  10.924  18.720  0.00  0.00    +0.000 A 
ATOM     28  O   UNL     1      -0.970  10.654  19.551  0.00  0.00    +0.000 OA
ENDBRANCH  19  20
ENDBRANCH   1  19
TORSDOF 3
ENDMDL
MODEL 7
REMARK VINA RESULT:      -8.5      2.793      6.982
REMARK  Name = 
REMARK  4 active torsions:
REMARK  status: ('A' for Active; 'I' for Inactive)
REMARK    1  A    between atoms: C_1  and  C_2
REMARK    2  A    between atoms: C_2  and  N_3
REMARK    3  A    between atoms: C_2  and  C_18
REMARK    4  A    between atoms: C_4  and  C_6
REMARK                            x       y       z     vdW  Elec       q    Type
REMARK                         _______ _______ _______ _____ _____    ______ ____
ROOT
ATOM      1  N   UNL     1       4.226   4.398  18.375  0.00  0.00    +0.000 N 
ATOM      2  C   UNL     1       5.374   4.919  18.922  0.00  0.00    +0.000 C 
ATOM      3  O   UNL     1       5.357   5.667  19.899  0.00  0.00    +0.000 OA
ATOM      4  H   UNL     1       4.281   3.695  17.649  0.00  0.00    +0.000 HD
ENDROOT
BRANCH   2   5
ATOM      5  C   UNL     1       6.685   4.587  18.208  0.00  0.00    +0.000 C 
ATOM      6  C   UNL     1       7.769   5.583  18.600  0.00  0.00    +0.000 C 
ATOM      7  C   UNL     1       7.712   6.855  17.790  0.00  0.00    +0.000 C 
ATOM      8  O   UNL     1       8.078   7.938  18.244  0.00  0.00    +0.000 OA
ATOM      9  N   UNL     1       7.352   6.731  16.475  0.00  0.00    +0.000 N 
ATOM     10  C   UNL     1       6.868   5.560  15.894  0.00  0.00    +0.000 A 
ATOM     11  C   UNL     1       6.657   5.508  14.520  0.00  0.00    +0.000 A 
ATOM     12  C   UNL     1       6.128   4.350  13.960  0.00  0.00    +0.000 A 
ATOM     13  F   UNL     1       5.922   4.295  12.639  0.00  0.00    +0.000 F 
ATOM     14  C   UNL     1       5.800   3.253  14.749  0.00  0.00    +0.000 A 
ATOM     15  C   UNL     1       6.003   3.309  16.127  0.00  0.00    +0.000 A 
ATOM     16  C   UNL     1       6.543   4.465  16.708  0.00  0.00    +0.000 A 
ATOM     17  H   UNL     1       7.456   7.574  15.922  0.00  0.00    +0.000 HD
ENDBRANCH   2   5
BRANCH   1  19
ATOM     18  C   UNL     1       1.886   3.632  18.390  0.00  0.00    +0.000 C 
ATOM     19  C   UNL     1       2.931   4.563  19.007  0.00  0.00    +0.000 C 
BRANCH  19  20
ATOM     20  C   UNL     1       2.530   5.990  18.859  0.00  0.00    +0.000 A 
ATOM     21  C   UNL     1       2.603   6.884  17.808  0.00  0.00    +0.000 A 
ATOM     22  C   UNL     1       2.112   8.124  18.292  0.00  0.00    +0.000 A 
ATOM     23  C   UNL     1       1.951   9.416  17.762  0.00  0.00    +0.000 A 
ATOM     24  C   UNL     1       1.436  10.423  18.591  0.00  0.00    +0.000 A 
ATOM     25  C   UNL     1       1.076  10.155  19.914  0.00  0.00    +0.000 A 
ATOM     26  C   UNL     1       1.217   8.872  20.455  0.00  0.00    +0.000 A 
ATOM     27  C   UNL     1       1.742   7.897  19.612  0.00  0.00    +0.000 A 
ATOM     28  O   UNL     1       1.978   6.599  19.953  0.00  0.00    +0.000 OA
ENDBRANCH  19  20
ENDBRANCH   1  19
TORSDOF 3
ENDMDL
MODEL 8
REMARK VINA RESULT:      -8.4      3.134      7.930
REMARK  Name = 
REMARK  4 active torsions:
REMARK  status: ('A' for Active; 'I' for Inactive)
REMARK    1  A    between atoms: C_1  and  C_2
REMARK    2  A    between atoms: C_2  and  N_3
REMARK    3  A    between atoms: C_2  and  C_18
REMARK    4  A    between atoms: C_4  and  C_6
REMARK                            x       y       z     vdW  Elec       q    Type
REMARK                         _______ _______ _______ _____ _____    ______ ____
ROOT
ATOM      1  N   UNL     1       2.123   7.960  18.860  0.00  0.00    +0.000 N 
ATOM      2  C   UNL     1       3.058   7.200  18.200  0.00  0.00    +0.000 C 
ATOM      3  O   UNL     1       3.361   7.404  17.026  0.00  0.00    +0.000 OA
ATOM      4  H   UNL     1       1.982   7.845  19.856  0.00  0.00    +0.000 HD
ENDROOT
BRANCH   2   5
ATOM      5  C   UNL     1       3.658   6.027  18.975  0.00  0.00    +0.000 C 
ATOM      6  C   UNL     1       5.077   5.746  18.497  0.00  0.00    +0.000 C 
ATOM      7  C   UNL     1       5.117   4.881  17.262  0.00  0.00    +0.000 C 
ATOM      8  O   UNL     1       6.018   4.967  16.429  0.00  0.00    +0.000 OA
ATOM      9  N   UNL     1       4.166   3.900  17.167  0.00  0.00    +0.000 N 
ATOM     10  C   UNL     1       3.077   3.768  18.028  0.00  0.00    +0.000 A 
ATOM     11  C   UNL     1       2.245   2.658  17.922  0.00  0.00    +0.000 A 
ATOM     12  C   UNL     1       1.135   2.563  18.754  0.00  0.00    +0.000 A 
ATOM     13  F   UNL     1       0.331   1.497  18.655  0.00  0.00    +0.000 F 
ATOM     14  C   UNL     1       0.840   3.558  19.679  0.00  0.00    +0.000 A 
ATOM     15  C   UNL     1       1.669   4.675  19.779  0.00  0.00    +0.000 A 
ATOM     16  C   UNL     1       2.797   4.783  18.953  0.00  0.00    +0.000 A 
ATOM     17  H   UNL     1       4.298   3.249  16.402  0.00  0.00    +0.000 HD
ENDBRANCH   2   5
BRANCH   1  19
ATOM     18  C   UNL     1       2.631  10.114  17.781  0.00  0.00    +0.000 C 
ATOM     19  C   UNL     1       1.547   9.153  18.270  0.00  0.00    +0.000 C 
BRANCH  19  20
ATOM     20  C   UNL     1       0.684   9.799  19.299  0.00  0.00    +0.000 A 
ATOM     21  C   UNL     1      -0.139  10.909  19.274  0.00  0.00    +0.000 A 
ATOM     22  C   UNL     1      -0.659  11.061  20.585  0.00  0.00    +0.000 A 
ATOM     23  C   UNL     1      -1.505  11.980  21.230  0.00  0.00    +0.000 A 
ATOM     24  C   UNL     1      -1.776  11.802  22.594  0.00  0.00    +0.000 A 
ATOM     25  C   UNL     1      -1.229  10.730  23.304  0.00  0.00    +0.000 A 
ATOM     26  C   UNL     1      -0.396   9.798  22.677  0.00  0.00    +0.000 A 
ATOM     27  C   UNL     1      -0.136  10.007  21.325  0.00  0.00    +0.000 A 
ATOM     28  O   UNL     1       0.664   9.231  20.543  0.00  0.00    +0.000 OA
ENDBRANCH  19  20
ENDBRANCH   1  19
TORSDOF 3
ENDMDL
MODEL 9
REMARK VINA RESULT:      -8.3      3.155      7.945
REMARK  Name = 
REMARK  4 active torsions:
REMARK  status: ('A' for Active; 'I' for Inactive)
REMARK    1  A    between atoms: C_1  and  C_2
REMARK    2  A    between atoms: C_2  and  N_3
REMARK    3  A    between atoms: C_2  and  C_18
REMARK    4  A    between atoms: C_4  and  C_6
REMARK                            x       y       z     vdW  Elec       q    Type
REMARK                         _______ _______ _______ _____ _____    ______ ____
ROOT
ATOM      1  N   UNL     1       2.704   8.231  18.664  0.00  0.00    +0.000 N 
ATOM      2  C   UNL     1       2.804   6.938  18.210  0.00  0.00    +0.000 C 
ATOM      3  O   UNL     1       1.883   6.374  17.622  0.00  0.00    +0.000 OA
ATOM      4  H   UNL     1       3.517   8.705  19.037  0.00  0.00    +0.000 HD
ENDROOT
BRANCH   2   5
ATOM      5  C   UNL     1       4.099   6.195  18.539  0.00  0.00    +0.000 C 
ATOM      6  C   UNL     1       5.198   6.584  17.558  0.00  0.00    +0.000 C 
ATOM      7  C   UNL     1       5.136   5.800  16.271  0.00  0.00    +0.000 C 
ATOM      8  O   UNL     1       5.518   6.267  15.199  0.00  0.00    +0.000 OA
ATOM      9  N   UNL     1       4.751   4.489  16.368  0.00  0.00    +0.000 N 
ATOM     10  C   UNL     1       4.247   3.896  17.525  0.00  0.00    +0.000 A 
ATOM     11  C   UNL     1       4.011   2.525  17.549  0.00  0.00    +0.000 A 
ATOM     12  C   UNL     1       3.463   1.954  18.692  0.00  0.00    +0.000 A 
ATOM     13  F   UNL     1       3.231   0.636  18.721  0.00  0.00    +0.000 F 
ATOM     14  C   UNL     1       3.140   2.728  19.801  0.00  0.00    +0.000 A 
ATOM     15  C   UNL     1       3.369   4.103  19.773  0.00  0.00    +0.000 A 
ATOM     16  C   UNL     1       3.928   4.695  18.631  0.00  0.00    +0.000 A 
ATOM     17  H   UNL     1       4.851   3.950  15.515  0.00  0.00    +0.000 HD
ENDBRANCH   2   5
BRANCH   1  19
ATOM     18  C   UNL     1       1.996  10.306  17.542  0.00  0.00    +0.000 C 
ATOM     19  C   UNL     1       1.569   9.073  18.341  0.00  0.00    +0.000 C 
BRANCH  19  20
ATOM     20  C   UNL     1       0.913   9.466  19.620  0.00  0.00    +0.000 A 
ATOM     21  C   UNL     1       0.828   8.859  20.859  0.00  0.00    +0.000 A 
ATOM     22  C   UNL     1       0.016   9.695  21.668  0.00  0.00    +0.000 A 
ATOM     23  C   UNL     1      -0.479   9.645  22.982  0.00  0.00    +0.000 A 
ATOM     24  C   UNL     1      -1.304  10.688  23.430  0.00  0.00    +0.000 A 
ATOM     25  C   UNL     1      -1.622  11.763  22.597  0.00  0.00    +0.000 A 
ATOM     26  C   UNL     1      -1.128  11.837  21.290  0.00  0.00    +0.000 A 
ATOM     27  C   UNL     1      -0.322  10.781  20.871  0.00  0.00    +0.000 A 
ATOM     28  O   UNL     1       0.234  10.654  19.634  0.00  0.00    +0.000 OA
ENDBRANCH  19  20
ENDBRANCH   1  19
TORSDOF 3
ENDMDL
