MODEL 1
REMARK VINA RESULT:      -9.0      0.000      0.000
REMARK  Name = 
REMARK  6 active torsions:
REMARK  status: ('A' for Active; 'I' for Inactive)
REMARK    1  A    between atoms: C_1  and  C_2
REMARK    2  A    between atoms: C_5  and  C_6
REMARK    3  A    between atoms: C_8  and  N_9
REMARK    4  A    between atoms: N_9  and  S_10
REMARK    5  A    between atoms: S_10  and  C_13
REMARK    6  A    between atoms: N_25  and  C_26
REMARK                            x       y       z     vdW  Elec       q    Type
REMARK                         _______ _______ _______ _____ _____    ______ ____
ROOT
ATOM      1  S   UNL     1       5.443   5.437  15.572  0.00  0.00    +0.000 S 
ATOM      2  O   UNL     1       5.420   6.751  14.964  0.00  0.00    +0.000 OA
ATOM      3  O   UNL     1       5.100   4.278  14.773  0.00  0.00    +0.000 OA
ENDROOT
BRANCH   1   4
ATOM      4  C   UNL     1       4.308   5.487  16.948  0.00  0.00    +0.000 A 
ATOM      5  C   UNL     1       3.902   6.755  17.442  0.00  0.00    +0.000 A 
ATOM      6  C   UNL     1       3.051   6.876  18.558  0.00  0.00    +0.000 A 
ATOM      7  C   UNL     1       2.643   5.688  19.137  0.00  0.00    +0.000 A 
ATOM      8  C   UNL     1       3.045   4.469  18.638  0.00  0.00    +0.000 A 
ATOM      9  C   UNL     1       2.497   3.470  19.426  0.00  0.00    +0.000 A 
ATOM     10  C   UNL     1       2.766   2.135  19.141  0.00  0.00    +0.000 A 
ATOM     11  C   UNL     1       3.604   1.881  18.045  0.00  0.00    +0.000 A 
ATOM     12  C   UNL     1       4.150   2.922  17.265  0.00  0.00    +0.000 A 
ATOM     13  C   UNL     1       3.871   4.282  17.563  0.00  0.00    +0.000 A 
ATOM     14  C   UNL     1       1.699   4.049  20.491  0.00  0.00    +0.000 C 
ATOM     15  O   UNL     1       1.056   3.529  21.387  0.00  0.00    +0.000 OA
ATOM     16  N   UNL     1       1.835   5.436  20.248  0.00  0.00    +0.000 N 
ATOM     17  C   UNL     1       1.231   6.440  21.087  0.00  0.00    +0.000 C 
ENDBRANCH   1   4
BRANCH   1  18
ATOM     18  N   UNL     1       6.910   5.214  16.275  0.00  0.00    +0.000 N 
ATOM     19  H   UNL     1       7.090   4.238  16.453  0.00  0.00    +0.000 HD
BRANCH  18  22
ATOM     20  C   UNL     1       8.181   7.936  18.186  0.00  0.00    +0.000 A 
ATOM     21  C   UNL     1       7.640   7.474  16.959  0.00  0.00    +0.000 A 
ATOM     22  C   UNL     1       7.423   6.135  17.168  0.00  0.00    +0.000 A 
ATOM     23  N   UNL     1       7.768   5.884  18.464  0.00  0.00    +0.000 N 
ATOM     24  N   UNL     1       8.262   6.955  19.095  0.00  0.00    +0.000 NA
ATOM     25  H   UNL     1       7.670   5.020  18.991  0.00  0.00    +0.000 HD
BRANCH  20  30
ATOM     26  C   UNL     1      10.363  11.696  20.535  0.00  0.00    +0.000 C 
ATOM     27  C   UNL     1       9.559  11.064  19.470  0.00  0.00    +0.000 A 
ATOM     28  C   UNL     1       8.990  11.545  18.311  0.00  0.00    +0.000 A 
ATOM     29  C   UNL     1       8.389  10.433  17.676  0.00  0.00    +0.000 A 
ATOM     30  C   UNL     1       8.616   9.335  18.485  0.00  0.00    +0.000 A 
ATOM     31  O   UNL     1       9.317   9.726  19.593  0.00  0.00    +0.000 OA
ENDBRANCH  20  30
ENDBRANCH  18  22
ENDBRANCH   1  18
TORSDOF 4
ENDMDL
MODEL 2
REMARK VINA RESULT:      -8.7      0.618      1.000
REMARK  Name = 
REMARK  6 active torsions:
REMARK  status: ('A' for Active; 'I' for Inactive)
REMARK    1  A    between atoms: C_1  and  C_2
REMARK    2  A    between atoms: C_5  and  C_6
REMARK    3  A    between atoms: C_8  and  N_9
REMARK    4  A    between atoms: N_9  and  S_10
REMARK    5  A    between atoms: S_10  and  C_13
REMARK    6  A    between atoms: N_25  and  C_26
REMARK                            x       y       z     vdW  Elec       q    Type
REMARK                         _______ _______ _______ _____ _____    ______ ____
ROOT
ATOM      1  S   UNL     1       5.507   5.365  15.543  0.00  0.00    +0.000 S 
ATOM      2  O   UNL     1       5.435   6.649  14.876  0.00  0.00    +0.000 OA
ATOM      3  O   UNL     1       5.208   4.159  14.797  0.00  0.00    +0.000 OA
ENDROOT
BRANCH   1   4
ATOM      4  C   UNL     1       4.371   5.435  16.917  0.00  0.00    +0.000 A 
ATOM      5  C   UNL     1       3.983   6.710  17.408  0.00  0.00    +0.000 A 
ATOM      6  C   UNL     1       3.133   6.846  18.522  0.00  0.00    +0.000 A 
ATOM      7  C   UNL     1       2.705   5.666  19.102  0.00  0.00    +0.000 A 
ATOM      8  C   UNL     1       3.090   4.440  18.607  0.00  0.00    +0.000 A 
ATOM      9  C   UNL     1       2.525   3.451  19.395  0.00  0.00    +0.000 A 
ATOM     10  C   UNL     1       2.774   2.111  19.114  0.00  0.00    +0.000 A 
ATOM     11  C   UNL     1       3.610   1.842  18.020  0.00  0.00    +0.000 A 
ATOM     12  C   UNL     1       4.173   2.874  17.238  0.00  0.00    +0.000 A 
ATOM     13  C   UNL     1       3.914   4.238  17.534  0.00  0.00    +0.000 A 
ATOM     14  C   UNL     1       1.734   4.044  20.458  0.00  0.00    +0.000 C 
ATOM     15  O   UNL     1       1.082   3.535  21.354  0.00  0.00    +0.000 OA
ATOM     16  N   UNL     1       1.892   5.428  20.212  0.00  0.00    +0.000 N 
ATOM     17  C   UNL     1       1.302   6.443  21.049  0.00  0.00    +0.000 C 
ENDBRANCH   1   4
BRANCH   1  18
ATOM     18  N   UNL     1       6.982   5.230  16.253  0.00  0.00    +0.000 N 
ATOM     19  H   UNL     1       7.204   4.268  16.462  0.00  0.00    +0.000 HD
BRANCH  18  22
ATOM     20  C   UNL     1       8.154   8.060  18.068  0.00  0.00    +0.000 A 
ATOM     21  C   UNL     1       7.663   7.530  16.847  0.00  0.00    +0.000 A 
ATOM     22  C   UNL     1       7.452   6.200  17.116  0.00  0.00    +0.000 A 
ATOM     23  N   UNL     1       7.753   6.018  18.435  0.00  0.00    +0.000 N 
ATOM     24  N   UNL     1       8.213   7.126  19.027  0.00  0.00    +0.000 NA
ATOM     25  H   UNL     1       7.645   5.181  19.000  0.00  0.00    +0.000 HD
BRANCH  20  30
ATOM     26  C   UNL     1       8.348  12.969  17.546  0.00  0.00    +0.000 C 
ATOM     27  C   UNL     1       8.707  11.667  18.144  0.00  0.00    +0.000 A 
ATOM     28  C   UNL     1       9.497  11.311  19.214  0.00  0.00    +0.000 A 
ATOM     29  C   UNL     1       9.401   9.904  19.325  0.00  0.00    +0.000 A 
ATOM     30  C   UNL     1       8.563   9.477  18.311  0.00  0.00    +0.000 A 
ATOM     31  O   UNL     1       8.153  10.556  17.577  0.00  0.00    +0.000 OA
ENDBRANCH  20  30
ENDBRANCH  18  22
ENDBRANCH   1  18
TORSDOF 4
ENDMDL
MODEL 3
REMARK VINA RESULT:      -8.5      1.570      2.158
REMARK  Name = 
REMARK  6 active torsions:
REMARK  status: ('A' for Active; 'I' for Inactive)
REMARK    1  A    between atoms: C_1  and  C_2
REMARK    2  A    between atoms: C_5  and  C_6
REMARK    3  A    between atoms: C_8  and  N_9
REMARK    4  A    between atoms: N_9  and  S_10
REMARK    5  A    between atoms: S_10  and  C_13
REMARK    6  A    between atoms: N_25  and  C_26
REMARK                            x       y       z     vdW  Elec       q    Type
REMARK                         _______ _______ _______ _____ _____    ______ ____
ROOT
ATOM      1  S   UNL     1       5.396   4.851  16.854  0.00  0.00    +0.000 S 
ATOM      2  O   UNL     1       4.746   4.255  15.706  0.00  0.00    +0.000 OA
ATOM      3  O   UNL     1       5.930   3.995  17.894  0.00  0.00    +0.000 OA
ENDROOT
BRANCH   1   4
ATOM      4  C   UNL     1       4.199   5.931  17.620  0.00  0.00    +0.000 A 
ATOM      5  C   UNL     1       4.024   7.234  17.082  0.00  0.00    +0.000 A 
ATOM      6  C   UNL     1       3.139   8.161  17.663  0.00  0.00    +0.000 A 
ATOM      7  C   UNL     1       2.457   7.723  18.784  0.00  0.00    +0.000 A 
ATOM      8  C   UNL     1       2.638   6.454  19.286  0.00  0.00    +0.000 A 
ATOM      9  C   UNL     1       1.843   6.309  20.411  0.00  0.00    +0.000 A 
ATOM     10  C   UNL     1       1.856   5.113  21.121  0.00  0.00    +0.000 A 
ATOM     11  C   UNL     1       2.701   4.102  20.639  0.00  0.00    +0.000 A 
ATOM     12  C   UNL     1       3.501   4.283  19.490  0.00  0.00    +0.000 A 
ATOM     13  C   UNL     1       3.483   5.508  18.773  0.00  0.00    +0.000 A 
ATOM     14  C   UNL     1       1.105   7.533  20.667  0.00  0.00    +0.000 C 
ATOM     15  O   UNL     1       0.307   7.821  21.544  0.00  0.00    +0.000 OA
ATOM     16  N   UNL     1       1.537   8.370  19.612  0.00  0.00    +0.000 N 
ATOM     17  C   UNL     1       1.091   9.732  19.463  0.00  0.00    +0.000 C 
ENDBRANCH   1   4
BRANCH   1  18
ATOM     18  N   UNL     1       6.566   5.871  16.318  0.00  0.00    +0.000 N 
ATOM     19  H   UNL     1       7.074   5.475  15.542  0.00  0.00    +0.000 HD
BRANCH  18  22
ATOM     20  C   UNL     1       8.251   8.358  18.230  0.00  0.00    +0.000 A 
ATOM     21  C   UNL     1       7.487   8.035  17.080  0.00  0.00    +0.000 A 
ATOM     22  C   UNL     1       7.261   6.685  17.192  0.00  0.00    +0.000 A 
ATOM     23  N   UNL     1       7.819   6.295  18.375  0.00  0.00    +0.000 N 
ATOM     24  N   UNL     1       8.455   7.287  19.009  0.00  0.00    +0.000 NA
ATOM     25  H   UNL     1       7.784   5.384  18.823  0.00  0.00    +0.000 HD
BRANCH  20  30
ATOM     26  C   UNL     1      10.543  11.896  20.808  0.00  0.00    +0.000 C 
ATOM     27  C   UNL     1       9.784  11.343  19.668  0.00  0.00    +0.000 A 
ATOM     28  C   UNL     1       9.369  11.877  18.468  0.00  0.00    +0.000 A 
ATOM     29  C   UNL     1       8.730  10.827  17.769  0.00  0.00    +0.000 A 
ATOM     30  C   UNL     1       8.782   9.710  18.583  0.00  0.00    +0.000 A 
ATOM     31  O   UNL     1       9.412  10.032  19.754  0.00  0.00    +0.000 OA
ENDBRANCH  20  30
ENDBRANCH  18  22
ENDBRANCH   1  18
TORSDOF 4
ENDMDL
MODEL 4
REMARK VINA RESULT:      -8.4      0.939      2.352
REMARK  Name = 
REMARK  6 active torsions:
REMARK  status: ('A' for Active; 'I' for Inactive)
REMARK    1  A    between atoms: C_1  and  C_2
REMARK    2  A    between atoms: C_5  and  C_6
REMARK    3  A    between atoms: C_8  and  N_9
REMARK    4  A    between atoms: N_9  and  S_10
REMARK    5  A    between atoms: S_10  and  C_13
REMARK    6  A    between atoms: N_25  and  C_26
REMARK                            x       y       z     vdW  Elec       q    Type
REMARK                         _______ _______ _______ _____ _____    ______ ____
ROOT
ATOM      1  S   UNL     1       5.605   5.065  15.620  0.00  0.00    +0.000 S 
ATOM      2  O   UNL     1       5.299   6.347  15.019  0.00  0.00    +0.000 OA
ATOM      3  O   UNL     1       5.371   3.852  14.863  0.00  0.00    +0.000 OA
ENDROOT
BRANCH   1   4
ATOM      4  C   UNL     1       4.635   4.954  17.114  0.00  0.00    +0.000 A 
ATOM      5  C   UNL     1       4.564   3.702  17.780  0.00  0.00    +0.000 A 
ATOM      6  C   UNL     1       3.778   3.521  18.934  0.00  0.00    +0.000 A 
ATOM      7  C   UNL     1       3.083   4.635  19.371  0.00  0.00    +0.000 A 
ATOM      8  C   UNL     1       3.170   5.841  18.711  0.00  0.00    +0.000 A 
ATOM      9  C   UNL     1       2.360   6.756  19.363  0.00  0.00    +0.000 A 
ATOM     10  C   UNL     1       2.257   8.058  18.882  0.00  0.00    +0.000 A 
ATOM     11  C   UNL     1       2.999   8.366  17.733  0.00  0.00    +0.000 A 
ATOM     12  C   UNL     1       3.813   7.408  17.090  0.00  0.00    +0.000 A 
ATOM     13  C   UNL     1       3.911   6.082  17.587  0.00  0.00    +0.000 A 
ATOM     14  C   UNL     1       1.708   6.133  20.500  0.00  0.00    +0.000 C 
ATOM     15  O   UNL     1       0.928   6.581  21.324  0.00  0.00    +0.000 OA
ATOM     16  N   UNL     1       2.207   4.811  20.444  0.00  0.00    +0.000 N 
ATOM     17  C   UNL     1       1.807   3.784  21.373  0.00  0.00    +0.000 C 
ENDBRANCH   1   4
BRANCH   1  18
ATOM     18  N   UNL     1       7.157   5.098  16.154  0.00  0.00    +0.000 N 
ATOM     19  H   UNL     1       7.546   4.169  16.216  0.00  0.00    +0.000 HD
BRANCH  18  22
ATOM     20  C   UNL     1       8.197   7.854  18.154  0.00  0.00    +0.000 A 
ATOM     21  C   UNL     1       7.760   7.379  16.891  0.00  0.00    +0.000 A 
ATOM     22  C   UNL     1       7.574   6.032  17.083  0.00  0.00    +0.000 A 
ATOM     23  N   UNL     1       7.836   5.788  18.400  0.00  0.00    +0.000 N 
ATOM     24  N   UNL     1       8.249   6.873  19.065  0.00  0.00    +0.000 NA
ATOM     25  H   UNL     1       7.732   4.919  18.917  0.00  0.00    +0.000 HD
BRANCH  20  30
ATOM     26  C   UNL     1      10.081  11.676  20.655  0.00  0.00    +0.000 C 
ATOM     27  C   UNL     1       9.375  11.021  19.536  0.00  0.00    +0.000 A 
ATOM     28  C   UNL     1       8.872  11.487  18.341  0.00  0.00    +0.000 A 
ATOM     29  C   UNL     1       8.356  10.359  17.663  0.00  0.00    +0.000 A 
ATOM     30  C   UNL     1       8.563   9.266  18.485  0.00  0.00    +0.000 A 
ATOM     31  O   UNL     1       9.171   9.676  19.640  0.00  0.00    +0.000 OA
ENDBRANCH  20  30
ENDBRANCH  18  22
ENDBRANCH   1  18
TORSDOF 4
ENDMDL
MODEL 5
REMARK VINA RESULT:      -8.3      1.514      2.759
REMARK  Name = 
REMARK  6 active torsions:
REMARK  status: ('A' for Active; 'I' for Inactive)
REMARK    1  A    between atoms: C_1  and  C_2
REMARK    2  A    between atoms: C_5  and  C_6
REMARK    3  A    between atoms: C_8  and  N_9
REMARK    4  A    between atoms: N_9  and  S_10
REMARK    5  A    between atoms: S_10  and  C_13
REMARK    6  A    between atoms: N_25  and  C_26
REMARK                            x       y       z     vdW  Elec       q    Type
REMARK                         _______ _______ _______ _____ _____    ______ ____
ROOT
ATOM      1  S   UNL     1       6.498   5.824  16.245  0.00  0.00    +0.000 S 
ATOM      2  O   UNL     1       5.765   5.606  15.015  0.00  0.00    +0.000 OA
ATOM      3  O   UNL     1       7.722   5.085  16.483  0.00  0.00    +0.000 OA
ENDROOT
BRANCH   1   4
ATOM      4  C   UNL     1       5.380   5.445  17.583  0.00  0.00    +0.000 A 
ATOM      5  C   UNL     1       5.557   4.223  18.285  0.00  0.00    +0.000 A 
ATOM      6  C   UNL     1       4.683   3.830  19.317  0.00  0.00    +0.000 A 
ATOM      7  C   UNL     1       3.650   4.705  19.599  0.00  0.00    +0.000 A 
ATOM      8  C   UNL     1       3.499   5.887  18.908  0.00  0.00    +0.000 A 
ATOM      9  C   UNL     1       2.378   6.539  19.394  0.00  0.00    +0.000 A 
ATOM     10  C   UNL     1       1.994   7.760  18.848  0.00  0.00    +0.000 A 
ATOM     11  C   UNL     1       2.789   8.263  17.808  0.00  0.00    +0.000 A 
ATOM     12  C   UNL     1       3.925   7.571  17.334  0.00  0.00    +0.000 A 
ATOM     13  C   UNL     1       4.308   6.325  17.896  0.00  0.00    +0.000 A 
ATOM     14  C   UNL     1       1.757   5.757  20.448  0.00  0.00    +0.000 C 
ATOM     15  O   UNL     1       0.767   5.969  21.128  0.00  0.00    +0.000 OA
ATOM     16  N   UNL     1       2.605   4.628  20.522  0.00  0.00    +0.000 N 
ATOM     17  C   UNL     1       2.367   3.530  21.425  0.00  0.00    +0.000 C 
ENDBRANCH   1   4
BRANCH   1  18
ATOM     18  N   UNL     1       6.779   7.433  16.405  0.00  0.00    +0.000 N 
ATOM     19  H   UNL     1       6.826   7.891  15.508  0.00  0.00    +0.000 HD
BRANCH  18  22
ATOM     20  C   UNL     1       8.789   9.161  18.784  0.00  0.00    +0.000 A 
ATOM     21  C   UNL     1       7.978   9.220  17.621  0.00  0.00    +0.000 A 
ATOM     22  C   UNL     1       7.582   7.922  17.418  0.00  0.00    +0.000 A 
ATOM     23  N   UNL     1       8.098   7.193  18.451  0.00  0.00    +0.000 N 
ATOM     24  N   UNL     1       8.862   7.917  19.276  0.00  0.00    +0.000 NA
ATOM     25  H   UNL     1       7.951   6.212  18.670  0.00  0.00    +0.000 HD
BRANCH  20  30
ATOM     26  C   UNL     1      11.918  12.946  19.323  0.00  0.00    +0.000 C 
ATOM     27  C   UNL     1      10.855  12.012  19.746  0.00  0.00    +0.000 A 
ATOM     28  C   UNL     1      10.069  11.933  20.874  0.00  0.00    +0.000 A 
ATOM     29  C   UNL     1       9.190  10.845  20.666  0.00  0.00    +0.000 A 
ATOM     30  C   UNL     1       9.493  10.313  19.426  0.00  0.00    +0.000 A 
ATOM     31  O   UNL     1      10.526  11.018  18.870  0.00  0.00    +0.000 OA
ENDBRANCH  20  30
ENDBRANCH  18  22
ENDBRANCH   1  18
TORSDOF 4
ENDMDL
MODEL 6
REMARK VINA RESULT:      -8.3      3.545      6.976
REMARK  Name = 
REMARK  6 active torsions:
REMARK  status: ('A' for Active; 'I' for Inactive)
REMARK    1  A    between atoms: C_1  and  C_2
REMARK    2  A    between atoms: C_5  and  C_6
REMARK    3  A    between atoms: C_8  and  N_9
REMARK    4  A    between atoms: N_9  and  S_10
REMARK    5  A    between atoms: S_10  and  C_13
REMARK    6  A    between atoms: N_25  and  C_26
REMARK                            x       y       z     vdW  Elec       q    Type
REMARK                         _______ _______ _______ _____ _____    ______ ____
ROOT
ATOM      1  S   UNL     1       2.577   4.089  19.978  0.00  0.00    +0.000 S 
ATOM      2  O   UNL     1       3.196   3.024  20.739  0.00  0.00    +0.000 OA
ATOM      3  O   UNL     1       1.163   4.013  19.668  0.00  0.00    +0.000 OA
ENDROOT
BRANCH   1   4
ATOM      4  C   UNL     1       3.455   4.192  18.428  0.00  0.00    +0.000 A 
ATOM      5  C   UNL     1       2.820   3.697  17.258  0.00  0.00    +0.000 A 
ATOM      6  C   UNL     1       3.470   3.695  16.009  0.00  0.00    +0.000 A 
ATOM      7  C   UNL     1       4.757   4.201  15.997  0.00  0.00    +0.000 A 
ATOM      8  C   UNL     1       5.352   4.679  17.143  0.00  0.00    +0.000 A 
ATOM      9  C   UNL     1       6.634   5.100  16.829  0.00  0.00    +0.000 A 
ATOM     10  C   UNL     1       7.459   5.615  17.823  0.00  0.00    +0.000 A 
ATOM     11  C   UNL     1       6.924   5.674  19.119  0.00  0.00    +0.000 A 
ATOM     12  C   UNL     1       5.614   5.233  19.406  0.00  0.00    +0.000 A 
ATOM     13  C   UNL     1       4.780   4.707  18.385  0.00  0.00    +0.000 A 
ATOM     14  C   UNL     1       6.902   4.890  15.417  0.00  0.00    +0.000 C 
ATOM     15  O   UNL     1       7.892   5.121  14.745  0.00  0.00    +0.000 OA
ATOM     16  N   UNL     1       5.686   4.328  14.962  0.00  0.00    +0.000 N 
ATOM     17  C   UNL     1       5.480   3.911  13.598  0.00  0.00    +0.000 C 
ENDBRANCH   1   4
BRANCH   1  18
ATOM     18  N   UNL     1       2.908   5.517  20.718  0.00  0.00    +0.000 N 
ATOM     19  H   UNL     1       3.066   5.393  21.707  0.00  0.00    +0.000 HD
BRANCH  18  22
ATOM     20  C   UNL     1       1.161   8.566  20.140  0.00  0.00    +0.000 A 
ATOM     21  C   UNL     1       1.504   7.525  21.041  0.00  0.00    +0.000 A 
ATOM     22  C   UNL     1       2.309   6.692  20.306  0.00  0.00    +0.000 A 
ATOM     23  N   UNL     1       2.454   7.275  19.080  0.00  0.00    +0.000 N 
ATOM     24  N   UNL     1       1.740   8.398  18.943  0.00  0.00    +0.000 NA
ATOM     25  H   UNL     1       3.039   6.981  18.303  0.00  0.00    +0.000 HD
BRANCH  20  30
ATOM     26  C   UNL     1      -1.366  11.897  22.773  0.00  0.00    +0.000 C 
ATOM     27  C   UNL     1      -0.878  11.252  21.537  0.00  0.00    +0.000 A 
ATOM     28  C   UNL     1      -1.007  11.563  20.202  0.00  0.00    +0.000 A 
ATOM     29  C   UNL     1      -0.262  10.590  19.496  0.00  0.00    +0.000 A 
ATOM     30  C   UNL     1       0.275   9.732  20.438  0.00  0.00    +0.000 A 
ATOM     31  O   UNL     1      -0.118  10.128  21.688  0.00  0.00    +0.000 OA
ENDBRANCH  20  30
ENDBRANCH  18  22
ENDBRANCH   1  18
TORSDOF 4
ENDMDL
MODEL 7
REMARK VINA RESULT:      -8.3      1.031      2.461
REMARK  Name = 
REMARK  6 active torsions:
REMARK  status: ('A' for Active; 'I' for Inactive)
REMARK    1  A    between atoms: C_1  and  C_2
REMARK    2  A    between atoms: C_5  and  C_6
REMARK    3  A    between atoms: C_8  and  N_9
REMARK    4  A    between atoms: N_9  and  S_10
REMARK    5  A    between atoms: S_10  and  C_13
REMARK    6  A    between atoms: N_25  and  C_26
REMARK                            x       y       z     vdW  Elec       q    Type
REMARK                         _______ _______ _______ _____ _____    ______ ____
ROOT
ATOM      1  S   UNL     1       5.686   5.486  15.320  0.00  0.00    +0.000 S 
ATOM      2  O   UNL     1       5.290   6.866  15.132  0.00  0.00    +0.000 OA
ATOM      3  O   UNL     1       5.619   4.568  14.200  0.00  0.00    +0.000 OA
ENDROOT
BRANCH   1   4
ATOM      4  C   UNL     1       4.647   4.824  16.611  0.00  0.00    +0.000 A 
ATOM      5  C   UNL     1       4.552   3.413  16.745  0.00  0.00    +0.000 A 
ATOM      6  C   UNL     1       3.712   2.816  17.704  0.00  0.00    +0.000 A 
ATOM      7  C   UNL     1       2.991   3.687  18.500  0.00  0.00    +0.000 A 
ATOM      8  C   UNL     1       3.101   5.052  18.357  0.00  0.00    +0.000 A 
ATOM      9  C   UNL     1       2.256   5.659  19.270  0.00  0.00    +0.000 A 
ATOM     10  C   UNL     1       2.168   7.047  19.319  0.00  0.00    +0.000 A 
ATOM     11  C   UNL     1       2.962   7.761  18.410  0.00  0.00    +0.000 A 
ATOM     12  C   UNL     1       3.811   7.111  17.489  0.00  0.00    +0.000 A 
ATOM     13  C   UNL     1       3.894   5.695  17.445  0.00  0.00    +0.000 A 
ATOM     14  C   UNL     1       1.554   4.657  20.051  0.00  0.00    +0.000 C 
ATOM     15  O   UNL     1       0.733   4.766  20.946  0.00  0.00    +0.000 OA
ATOM     16  N   UNL     1       2.063   3.450  19.517  0.00  0.00    +0.000 N 
ATOM     17  C   UNL     1       1.625   2.152  19.964  0.00  0.00    +0.000 C 
ENDBRANCH   1   4
BRANCH   1  18
ATOM     18  N   UNL     1       7.193   5.461  15.970  0.00  0.00    +0.000 N 
ATOM     19  H   UNL     1       7.538   4.517  16.067  0.00  0.00    +0.000 HD
BRANCH  18  22
ATOM     20  C   UNL     1       8.191   8.190  18.028  0.00  0.00    +0.000 A 
ATOM     21  C   UNL     1       7.830   7.722  16.738  0.00  0.00    +0.000 A 
ATOM     22  C   UNL     1       7.577   6.385  16.922  0.00  0.00    +0.000 A 
ATOM     23  N   UNL     1       7.730   6.142  18.257  0.00  0.00    +0.000 N 
ATOM     24  N   UNL     1       8.134   7.215  18.945  0.00  0.00    +0.000 NA
ATOM     25  H   UNL     1       7.552   5.283  18.769  0.00  0.00    +0.000 HD
BRANCH  20  30
ATOM     26  C   UNL     1       8.557  13.107  17.707  0.00  0.00    +0.000 C 
ATOM     27  C   UNL     1       8.796  11.779  18.307  0.00  0.00    +0.000 A 
ATOM     28  C   UNL     1       9.410  11.372  19.471  0.00  0.00    +0.000 A 
ATOM     29  C   UNL     1       9.270   9.965  19.519  0.00  0.00    +0.000 A 
ATOM     30  C   UNL     1       8.586   9.589  18.377  0.00  0.00    +0.000 A 
ATOM     31  O   UNL     1       8.312  10.700  17.627  0.00  0.00    +0.000 OA
ENDBRANCH  20  30
ENDBRANCH  18  22
ENDBRANCH   1  18
TORSDOF 4
ENDMDL
MODEL 8
REMARK VINA RESULT:      -8.3      5.009      8.201
REMARK  Name = 
REMARK  6 active torsions:
REMARK  status: ('A' for Active; 'I' for Inactive)
REMARK    1  A    between atoms: C_1  and  C_2
REMARK    2  A    between atoms: C_5  and  C_6
REMARK    3  A    between atoms: C_8  and  N_9
REMARK    4  A    between atoms: N_9  and  S_10
REMARK    5  A    between atoms: S_10  and  C_13
REMARK    6  A    between atoms: N_25  and  C_26
REMARK                            x       y       z     vdW  Elec       q    Type
REMARK                         _______ _______ _______ _____ _____    ______ ____
ROOT
ATOM      1  S   UNL     1       1.269   8.251  20.845  0.00  0.00    +0.000 S 
ATOM      2  O   UNL     1       2.090   8.430  22.024  0.00  0.00    +0.000 OA
ATOM      3  O   UNL     1      -0.082   7.747  20.989  0.00  0.00    +0.000 OA
ENDROOT
BRANCH   1   4
ATOM      4  C   UNL     1       2.145   7.124  19.775  0.00  0.00    +0.000 A 
ATOM      5  C   UNL     1       2.863   7.660  18.673  0.00  0.00    +0.000 A 
ATOM      6  C   UNL     1       3.534   6.831  17.754  0.00  0.00    +0.000 A 
ATOM      7  C   UNL     1       3.448   5.471  17.992  0.00  0.00    +0.000 A 
ATOM      8  C   UNL     1       2.749   4.973  19.070  0.00  0.00    +0.000 A 
ATOM      9  C   UNL     1       2.824   3.591  19.040  0.00  0.00    +0.000 A 
ATOM     10  C   UNL     1       2.181   2.839  20.018  0.00  0.00    +0.000 A 
ATOM     11  C   UNL     1       1.476   3.552  20.999  0.00  0.00    +0.000 A 
ATOM     12  C   UNL     1       1.417   4.962  20.999  0.00  0.00    +0.000 A 
ATOM     13  C   UNL     1       2.074   5.721  19.995  0.00  0.00    +0.000 A 
ATOM     14  C   UNL     1       3.602   3.152  17.895  0.00  0.00    +0.000 C 
ATOM     15  O   UNL     1       3.903   2.036  17.509  0.00  0.00    +0.000 OA
ATOM     16  N   UNL     1       3.959   4.379  17.288  0.00  0.00    +0.000 N 
ATOM     17  C   UNL     1       4.725   4.454  16.070  0.00  0.00    +0.000 C 
ENDBRANCH   1   4
BRANCH   1  18
ATOM     18  N   UNL     1       1.249   9.662  20.006  0.00  0.00    +0.000 N 
ATOM     19  H   UNL     1       1.905  10.327  20.386  0.00  0.00    +0.000 HD
BRANCH  18  22
ATOM     20  C   UNL     1      -1.630  10.665  18.166  0.00  0.00    +0.000 A 
ATOM     21  C   UNL     1      -0.425   9.918  18.205  0.00  0.00    +0.000 A 
ATOM     22  C   UNL     1       0.079  10.154  19.460  0.00  0.00    +0.000 A 
ATOM     23  N   UNL     1      -0.832  10.942  20.102  0.00  0.00    +0.000 N 
ATOM     24  N   UNL     1      -1.864  11.294  19.326  0.00  0.00    +0.000 NA
ATOM     25  H   UNL     1      -0.830  11.255  21.069  0.00  0.00    +0.000 HD
BRANCH  20  30
ATOM     26  C   UNL     1      -3.464   9.956  13.633  0.00  0.00    +0.000 C 
ATOM     27  C   UNL     1      -3.449  10.502  15.006  0.00  0.00    +0.000 A 
ATOM     28  C   UNL     1      -4.354  11.245  15.731  0.00  0.00    +0.000 A 
ATOM     29  C   UNL     1      -3.788  11.412  17.016  0.00  0.00    +0.000 A 
ATOM     30  C   UNL     1      -2.564  10.769  17.003  0.00  0.00    +0.000 A 
ATOM     31  O   UNL     1      -2.349  10.228  15.765  0.00  0.00    +0.000 OA
ENDBRANCH  20  30
ENDBRANCH  18  22
ENDBRANCH   1  18
TORSDOF 4
ENDMDL
MODEL 9
REMARK VINA RESULT:      -8.2      6.825      9.112
REMARK  Name = 
REMARK  6 active torsions:
REMARK  status: ('A' for Active; 'I' for Inactive)
REMARK    1  A    between atoms: C_1  and  C_2
REMARK    2  A    between atoms: C_5  and  C_6
REMARK    3  A    between atoms: C_8  and  N_9
REMARK    4  A    between atoms: N_9  and  S_10
REMARK    5  A    between atoms: S_10  and  C_13
REMARK    6  A    between atoms: N_25  and  C_26
REMARK                            x       y       z     vdW  Elec       q    Type
REMARK                         _______ _______ _______ _____ _____    ______ ____
ROOT
ATOM      1  S   UNL     1       0.148  11.536  20.184  0.00  0.00    +0.000 S 
ATOM      2  O   UNL     1       0.508  11.858  21.549  0.00  0.00    +0.000 OA
ATOM      3  O   UNL     1       0.865  12.163  19.092  0.00  0.00    +0.000 OA
ENDROOT
BRANCH   1   4
ATOM      4  C   UNL     1      -1.576  11.954  19.995  0.00  0.00    +0.000 A 
ATOM      5  C   UNL     1      -2.235  12.607  21.071  0.00  0.00    +0.000 A 
ATOM      6  C   UNL     1      -3.606  12.921  21.017  0.00  0.00    +0.000 A 
ATOM      7  C   UNL     1      -4.265  12.552  19.858  0.00  0.00    +0.000 A 
ATOM      8  C   UNL     1      -3.606  11.923  18.825  0.00  0.00    +0.000 A 
ATOM      9  C   UNL     1      -4.518  11.665  17.816  0.00  0.00    +0.000 A 
ATOM     10  C   UNL     1      -4.106  11.015  16.657  0.00  0.00    +0.000 A 
ATOM     11  C   UNL     1      -2.753  10.650  16.586  0.00  0.00    +0.000 A 
ATOM     12  C   UNL     1      -1.850  10.926  17.635  0.00  0.00    +0.000 A 
ATOM     13  C   UNL     1      -2.280  11.588  18.815  0.00  0.00    +0.000 A 
ATOM     14  C   UNL     1      -5.837  12.140  18.194  0.00  0.00    +0.000 C 
ATOM     15  O   UNL     1      -6.902  12.109  17.601  0.00  0.00    +0.000 OA
ATOM     16  N   UNL     1      -5.603  12.682  19.479  0.00  0.00    +0.000 N 
ATOM     17  C   UNL     1      -6.649  13.256  20.288  0.00  0.00    +0.000 C 
ENDBRANCH   1   4
BRANCH   1  18
ATOM     18  N   UNL     1       0.183   9.904  20.009  0.00  0.00    +0.000 N 
ATOM     19  H   UNL     1      -0.048   9.434  20.871  0.00  0.00    +0.000 HD
BRANCH  18  22
ATOM     20  C   UNL     1       2.608   7.988  18.240  0.00  0.00    +0.000 A 
ATOM     21  C   UNL     1       1.838   8.166  19.418  0.00  0.00    +0.000 A 
ATOM     22  C   UNL     1       1.096   9.294  19.170  0.00  0.00    +0.000 A 
ATOM     23  N   UNL     1       1.395   9.683  17.897  0.00  0.00    +0.000 N 
ATOM     24  N   UNL     1       2.336   8.925  17.322  0.00  0.00    +0.000 NA
ATOM     25  H   UNL     1       0.983  10.433  17.349  0.00  0.00    +0.000 HD
BRANCH  20  30
ATOM     26  C   UNL     1       5.065   3.745  18.851  0.00  0.00    +0.000 C 
ATOM     27  C   UNL     1       4.752   5.034  18.200  0.00  0.00    +0.000 A 
ATOM     28  C   UNL     1       5.229   5.654  17.068  0.00  0.00    +0.000 A 
ATOM     29  C   UNL     1       4.491   6.853  16.934  0.00  0.00    +0.000 A 
ATOM     30  C   UNL     1       3.608   6.904  17.998  0.00  0.00    +0.000 A 
ATOM     31  O   UNL     1       3.782   5.797  18.783  0.00  0.00    +0.000 OA
ENDBRANCH  20  30
ENDBRANCH  18  22
ENDBRANCH   1  18
TORSDOF 4
ENDMDL
