MODEL 1
REMARK VINA RESULT:      -8.0      0.000      0.000
REMARK  Name = 
REMARK  7 active torsions:
REMARK  status: ('A' for Active; 'I' for Inactive)
REMARK    1  A    between atoms: C_1  and  C_2
REMARK    2  A    between atoms: C_3  and  C_4
REMARK    3  A    between atoms: C_8  and  N_9
REMARK    4  A    between atoms: C_14  and  C_15
REMARK    5  A    between atoms: N_24  and  C_25
REMARK    6  A    between atoms: C_25  and  C_26
REMARK    7  A    between atoms: N_30  and  C_31
REMARK                            x       y       z     vdW  Elec       q    Type
REMARK                         _______ _______ _______ _____ _____    ______ ____
ROOT
ATOM      1  C   UNL     1       2.057   7.331  20.038  0.00  0.00    +0.000 A 
ATOM      2  C   UNL     1       2.459   7.602  18.725  0.00  0.00    +0.000 A 
ATOM      3  C   UNL     1       2.203   6.671  17.733  0.00  0.00    +0.000 A 
ATOM      4  C   UNL     1       1.747   5.411  18.086  0.00  0.00    +0.000 A 
ATOM      5  C   UNL     1       1.833   5.012  19.427  0.00  0.00    +0.000 A 
ATOM      6  C   UNL     1       1.780   6.009  20.407  0.00  0.00    +0.000 A 
ENDROOT
BRANCH   5   7
ATOM      7  N   UNL     1       2.449   3.703  19.705  0.00  0.00    +0.000 N 
ATOM      8  C   UNL     1       3.780   3.788  20.339  0.00  0.00    +0.000 C 
ATOM      9  C   UNL     1       4.659   4.025  19.149  0.00  0.00    +0.000 A 
ATOM     10  C   UNL     1       5.734   4.880  18.997  0.00  0.00    +0.000 A 
ATOM     11  C   UNL     1       6.152   5.176  17.693  0.00  0.00    +0.000 A 
ATOM     12  C   UNL     1       5.506   4.620  16.560  0.00  0.00    +0.000 A 
ATOM     13  C   UNL     1       4.435   3.724  16.740  0.00  0.00    +0.000 A 
ATOM     14  C   UNL     1       4.040   3.448  18.038  0.00  0.00    +0.000 A 
ATOM     15  C   UNL     1       2.705   2.984  18.486  0.00  0.00    +0.000 C 
ATOM     16  O   UNL     1       1.944   2.314  17.814  0.00  0.00    +0.000 OA
BRANCH  12  17
ATOM     17  C   UNL     1       5.897   5.049  15.164  0.00  0.00    +0.000 C 
ATOM     18  F   UNL     1       5.551   4.148  14.200  0.00  0.00    +0.000 F 
ATOM     19  F   UNL     1       5.319   6.226  14.800  0.00  0.00    +0.000 F 
ATOM     20  F   UNL     1       7.241   5.231  15.029  0.00  0.00    +0.000 F 
ENDBRANCH  12  17
ENDBRANCH   5   7
BRANCH   1  23
ATOM     21  C   UNL     1      -0.619   7.533  21.034  0.00  0.00    +0.000 C 
ATOM     22  C   UNL     1       0.472   8.499  21.359  0.00  0.00    +0.000 C 
ATOM     23  C   UNL     1       1.734   8.466  20.922  0.00  0.00    +0.000 C 
ATOM     24  N   UNL     1       0.915   9.496  20.542  0.00  0.00    +0.000 N 
BRANCH  24  25
ATOM     25  C   UNL     1       1.065  10.856  21.056  0.00  0.00    +0.000 C 
BRANCH  25  26
ATOM     26  C   UNL     1      -0.175  11.452  21.656  0.00  0.00    +0.000 A 
ATOM     27  N   UNL     1      -0.469  11.482  22.941  0.00  0.00    +0.000 NA
ATOM     28  N   UNL     1      -1.698  12.089  23.073  0.00  0.00    +0.000 NA
ATOM     29  C   UNL     1      -2.117  12.404  21.880  0.00  0.00    +0.000 A 
ATOM     30  N   UNL     1      -1.202  12.017  20.949  0.00  0.00    +0.000 N 
ATOM     31  C   UNL     1      -1.330  12.169  19.528  0.00  0.00    +0.000 C 
ENDBRANCH  25  26
ENDBRANCH  24  25
ENDBRANCH   1  23
TORSDOF 5
ENDMDL
MODEL 2
REMARK VINA RESULT:      -7.9      3.232      4.242
REMARK  Name = 
REMARK  7 active torsions:
REMARK  status: ('A' for Active; 'I' for Inactive)
REMARK    1  A    between atoms: C_1  and  C_2
REMARK    2  A    between atoms: C_3  and  C_4
REMARK    3  A    between atoms: C_8  and  N_9
REMARK    4  A    between atoms: C_14  and  C_15
REMARK    5  A    between atoms: N_24  and  C_25
REMARK    6  A    between atoms: C_25  and  C_26
REMARK    7  A    between atoms: N_30  and  C_31
REMARK                            x       y       z     vdW  Elec       q    Type
REMARK                         _______ _______ _______ _____ _____    ______ ____
ROOT
ATOM      1  C   UNL     1       2.521   7.301  17.942  0.00  0.00    +0.000 A 
ATOM      2  C   UNL     1       1.558   6.298  18.107  0.00  0.00    +0.000 A 
ATOM      3  C   UNL     1       1.960   5.031  18.492  0.00  0.00    +0.000 A 
ATOM      4  C   UNL     1       3.311   4.721  18.504  0.00  0.00    +0.000 A 
ATOM      5  C   UNL     1       4.208   5.583  17.858  0.00  0.00    +0.000 A 
ATOM      6  C   UNL     1       3.863   6.937  17.773  0.00  0.00    +0.000 A 
ENDROOT
BRANCH   5   7
ATOM      7  N   UNL     1       5.164   4.980  16.914  0.00  0.00    +0.000 N 
ATOM      8  C   UNL     1       6.319   4.328  17.562  0.00  0.00    +0.000 C 
ATOM      9  C   UNL     1       7.213   5.503  17.822  0.00  0.00    +0.000 A 
ATOM     10  C   UNL     1       7.979   5.806  18.931  0.00  0.00    +0.000 A 
ATOM     11  C   UNL     1       8.433   7.124  19.070  0.00  0.00    +0.000 A 
ATOM     12  C   UNL     1       8.127   8.121  18.109  0.00  0.00    +0.000 A 
ATOM     13  C   UNL     1       7.375   7.780  16.969  0.00  0.00    +0.000 A 
ATOM     14  C   UNL     1       6.937   6.472  16.855  0.00  0.00    +0.000 A 
ATOM     15  C   UNL     1       5.770   5.984  16.081  0.00  0.00    +0.000 C 
ATOM     16  O   UNL     1       5.339   6.512  15.073  0.00  0.00    +0.000 OA
BRANCH  12  17
ATOM     17  C   UNL     1       8.525   9.561  18.342  0.00  0.00    +0.000 C 
ATOM     18  F   UNL     1       8.796   9.848  19.647  0.00  0.00    +0.000 F 
ATOM     19  F   UNL     1       9.637   9.913  17.642  0.00  0.00    +0.000 F 
ATOM     20  F   UNL     1       7.551  10.439  17.970  0.00  0.00    +0.000 F 
ENDBRANCH  12  17
ENDBRANCH   5   7
BRANCH   1  23
ATOM     21  C   UNL     1       1.617   8.034  20.557  0.00  0.00    +0.000 C 
ATOM     22  C   UNL     1       1.718   8.982  19.409  0.00  0.00    +0.000 C 
ATOM     23  C   UNL     1       2.122   8.702  18.166  0.00  0.00    +0.000 C 
ATOM     24  N   UNL     1       0.824   9.081  18.384  0.00  0.00    +0.000 N 
BRANCH  24  25
ATOM     25  C   UNL     1       0.304  10.388  17.984  0.00  0.00    +0.000 C 
BRANCH  25  26
ATOM     26  C   UNL     1      -1.191  10.478  17.891  0.00  0.00    +0.000 A 
ATOM     27  N   UNL     1      -1.963   9.707  17.149  0.00  0.00    +0.000 NA
ATOM     28  N   UNL     1      -3.262  10.128  17.324  0.00  0.00    +0.000 NA
ATOM     29  C   UNL     1      -3.248  11.133  18.153  0.00  0.00    +0.000 A 
ATOM     30  N   UNL     1      -1.969  11.403  18.534  0.00  0.00    +0.000 N 
ATOM     31  C   UNL     1      -1.557  12.459  19.414  0.00  0.00    +0.000 C 
ENDBRANCH  25  26
ENDBRANCH  24  25
ENDBRANCH   1  23
TORSDOF 5
ENDMDL
MODEL 3
REMARK VINA RESULT:      -7.8      3.049      3.953
REMARK  Name = 
REMARK  7 active torsions:
REMARK  status: ('A' for Active; 'I' for Inactive)
REMARK    1  A    between atoms: C_1  and  C_2
REMARK    2  A    between atoms: C_3  and  C_4
REMARK    3  A    between atoms: C_8  and  N_9
REMARK    4  A    between atoms: C_14  and  C_15
REMARK    5  A    between atoms: N_24  and  C_25
REMARK    6  A    between atoms: C_25  and  C_26
REMARK    7  A    between atoms: N_30  and  C_31
REMARK                            x       y       z     vdW  Elec       q    Type
REMARK                         _______ _______ _______ _____ _____    ______ ____
ROOT
ATOM      1  C   UNL     1       2.604   7.122  17.924  0.00  0.00    +0.000 A 
ATOM      2  C   UNL     1       1.663   6.099  18.092  0.00  0.00    +0.000 A 
ATOM      3  C   UNL     1       2.087   4.852  18.517  0.00  0.00    +0.000 A 
ATOM      4  C   UNL     1       3.444   4.576  18.565  0.00  0.00    +0.000 A 
ATOM      5  C   UNL     1       4.334   5.445  17.918  0.00  0.00    +0.000 A 
ATOM      6  C   UNL     1       3.958   6.787  17.793  0.00  0.00    +0.000 A 
ENDROOT
BRANCH   5   7
ATOM      7  N   UNL     1       5.325   4.844  17.009  0.00  0.00    +0.000 N 
ATOM      8  C   UNL     1       6.494   4.261  17.696  0.00  0.00    +0.000 C 
ATOM      9  C   UNL     1       7.340   5.477  17.922  0.00  0.00    +0.000 A 
ATOM     10  C   UNL     1       8.078   5.850  19.029  0.00  0.00    +0.000 A 
ATOM     11  C   UNL     1       8.480   7.189  19.123  0.00  0.00    +0.000 A 
ATOM     12  C   UNL     1       8.151   8.137  18.122  0.00  0.00    +0.000 A 
ATOM     13  C   UNL     1       7.429   7.726  16.986  0.00  0.00    +0.000 A 
ATOM     14  C   UNL     1       7.041   6.398  16.916  0.00  0.00    +0.000 A 
ATOM     15  C   UNL     1       5.905   5.838  16.147  0.00  0.00    +0.000 C 
ATOM     16  O   UNL     1       5.468   6.311  15.114  0.00  0.00    +0.000 OA
BRANCH  12  17
ATOM     17  C   UNL     1       8.491   9.599  18.305  0.00  0.00    +0.000 C 
ATOM     18  F   UNL     1       7.523  10.445  17.848  0.00  0.00    +0.000 F 
ATOM     19  F   UNL     1       8.691   9.928  19.609  0.00  0.00    +0.000 F 
ATOM     20  F   UNL     1       9.630   9.958  17.647  0.00  0.00    +0.000 F 
ENDBRANCH  12  17
ENDBRANCH   5   7
BRANCH   1  23
ATOM     21  C   UNL     1       1.750   7.928  20.535  0.00  0.00    +0.000 C 
ATOM     22  C   UNL     1       1.788   8.833  19.348  0.00  0.00    +0.000 C 
ATOM     23  C   UNL     1       2.166   8.517  18.105  0.00  0.00    +0.000 C 
ATOM     24  N   UNL     1       0.863   8.863  18.347  0.00  0.00    +0.000 N 
BRANCH  24  25
ATOM     25  C   UNL     1       0.290  10.136  17.913  0.00  0.00    +0.000 C 
BRANCH  25  26
ATOM     26  C   UNL     1      -0.043  11.096  19.018  0.00  0.00    +0.000 A 
ATOM     27  N   UNL     1      -1.121  11.049  19.778  0.00  0.00    +0.000 NA
ATOM     28  N   UNL     1      -1.063  12.114  20.648  0.00  0.00    +0.000 NA
ATOM     29  C   UNL     1       0.031  12.777  20.395  0.00  0.00    +0.000 A 
ATOM     30  N   UNL     1       0.706  12.185  19.371  0.00  0.00    +0.000 N 
ATOM     31  C   UNL     1       1.936  12.648  18.795  0.00  0.00    +0.000 C 
ENDBRANCH  25  26
ENDBRANCH  24  25
ENDBRANCH   1  23
TORSDOF 5
ENDMDL
MODEL 4
REMARK VINA RESULT:      -7.7      0.574      1.290
REMARK  Name = 
REMARK  7 active torsions:
REMARK  status: ('A' for Active; 'I' for Inactive)
REMARK    1  A    between atoms: C_1  and  C_2
REMARK    2  A    between atoms: C_3  and  C_4
REMARK    3  A    between atoms: C_8  and  N_9
REMARK    4  A    between atoms: C_14  and  C_15
REMARK    5  A    between atoms: N_24  and  C_25
REMARK    6  A    between atoms: C_25  and  C_26
REMARK    7  A    between atoms: N_30  and  C_31
REMARK                            x       y       z     vdW  Elec       q    Type
REMARK                         _______ _______ _______ _____ _____    ______ ____
ROOT
ATOM      1  C   UNL     1       2.090   7.305  20.007  0.00  0.00    +0.000 A 
ATOM      2  C   UNL     1       2.483   7.558  18.687  0.00  0.00    +0.000 A 
ATOM      3  C   UNL     1       2.199   6.624  17.705  0.00  0.00    +0.000 A 
ATOM      4  C   UNL     1       1.724   5.376  18.073  0.00  0.00    +0.000 A 
ATOM      5  C   UNL     1       1.818   4.985  19.416  0.00  0.00    +0.000 A 
ATOM      6  C   UNL     1       1.793   5.991  20.389  0.00  0.00    +0.000 A 
ENDROOT
BRANCH   5   7
ATOM      7  N   UNL     1       2.412   3.668  19.698  0.00  0.00    +0.000 N 
ATOM      8  C   UNL     1       3.731   3.733  20.359  0.00  0.00    +0.000 C 
ATOM      9  C   UNL     1       4.637   3.967  19.188  0.00  0.00    +0.000 A 
ATOM     10  C   UNL     1       5.725   4.810  19.063  0.00  0.00    +0.000 A 
ATOM     11  C   UNL     1       6.172   5.109  17.770  0.00  0.00    +0.000 A 
ATOM     12  C   UNL     1       5.542   4.568  16.620  0.00  0.00    +0.000 A 
ATOM     13  C   UNL     1       4.458   3.684  16.774  0.00  0.00    +0.000 A 
ATOM     14  C   UNL     1       4.033   3.404  18.062  0.00  0.00    +0.000 A 
ATOM     15  C   UNL     1       2.684   2.953  18.480  0.00  0.00    +0.000 C 
ATOM     16  O   UNL     1       1.929   2.296  17.788  0.00  0.00    +0.000 OA
BRANCH  12  17
ATOM     17  C   UNL     1       5.965   5.001  15.235  0.00  0.00    +0.000 C 
ATOM     18  F   UNL     1       7.298   5.271  15.132  0.00  0.00    +0.000 F 
ATOM     19  F   UNL     1       5.700   4.058  14.292  0.00  0.00    +0.000 F 
ATOM     20  F   UNL     1       5.330   6.135  14.824  0.00  0.00    +0.000 F 
ENDBRANCH  12  17
ENDBRANCH   5   7
BRANCH   1  23
ATOM     21  C   UNL     1      -0.573   7.568  21.022  0.00  0.00    +0.000 C 
ATOM     22  C   UNL     1       0.540   8.514  21.332  0.00  0.00    +0.000 C 
ATOM     23  C   UNL     1       1.798   8.452  20.884  0.00  0.00    +0.000 C 
ATOM     24  N   UNL     1       0.996   9.496  20.504  0.00  0.00    +0.000 N 
BRANCH  24  25
ATOM     25  C   UNL     1       1.179  10.856  21.007  0.00  0.00    +0.000 C 
BRANCH  25  26
ATOM     26  C   UNL     1      -0.004  11.764  20.835  0.00  0.00    +0.000 A 
ATOM     27  N   UNL     1      -0.206  12.580  19.818  0.00  0.00    +0.000 NA
ATOM     28  N   UNL     1      -1.385  13.251  20.049  0.00  0.00    +0.000 NA
ATOM     29  C   UNL     1      -1.863  12.835  21.188  0.00  0.00    +0.000 A 
ATOM     30  N   UNL     1      -1.029  11.906  21.731  0.00  0.00    +0.000 N 
ATOM     31  C   UNL     1      -1.208  11.248  22.994  0.00  0.00    +0.000 C 
ENDBRANCH  25  26
ENDBRANCH  24  25
ENDBRANCH   1  23
TORSDOF 5
ENDMDL
MODEL 5
REMARK VINA RESULT:      -7.7      1.109      1.579
REMARK  Name = 
REMARK  7 active torsions:
REMARK  status: ('A' for Active; 'I' for Inactive)
REMARK    1  A    between atoms: C_1  and  C_2
REMARK    2  A    between atoms: C_3  and  C_4
REMARK    3  A    between atoms: C_8  and  N_9
REMARK    4  A    between atoms: C_14  and  C_15
REMARK    5  A    between atoms: N_24  and  C_25
REMARK    6  A    between atoms: C_25  and  C_26
REMARK    7  A    between atoms: N_30  and  C_31
REMARK                            x       y       z     vdW  Elec       q    Type
REMARK                         _______ _______ _______ _____ _____    ______ ____
ROOT
ATOM      1  C   UNL     1       2.060   7.394  20.018  0.00  0.00    +0.000 A 
ATOM      2  C   UNL     1       2.449   7.624  18.692  0.00  0.00    +0.000 A 
ATOM      3  C   UNL     1       2.159   6.675  17.728  0.00  0.00    +0.000 A 
ATOM      4  C   UNL     1       1.683   5.434  18.117  0.00  0.00    +0.000 A 
ATOM      5  C   UNL     1       1.780   5.065  19.467  0.00  0.00    +0.000 A 
ATOM      6  C   UNL     1       1.761   6.087  20.423  0.00  0.00    +0.000 A 
ENDROOT
BRANCH   5   7
ATOM      7  N   UNL     1       2.373   3.751  19.768  0.00  0.00    +0.000 N 
ATOM      8  C   UNL     1       3.702   3.825  20.406  0.00  0.00    +0.000 C 
ATOM      9  C   UNL     1       4.591   4.028  19.216  0.00  0.00    +0.000 A 
ATOM     10  C   UNL     1       5.680   4.862  19.056  0.00  0.00    +0.000 A 
ATOM     11  C   UNL     1       6.108   5.131  17.749  0.00  0.00    +0.000 A 
ATOM     12  C   UNL     1       5.457   4.568  16.622  0.00  0.00    +0.000 A 
ATOM     13  C   UNL     1       4.372   3.693  16.812  0.00  0.00    +0.000 A 
ATOM     14  C   UNL     1       3.966   3.443  18.112  0.00  0.00    +0.000 A 
ATOM     15  C   UNL     1       2.622   3.009  18.561  0.00  0.00    +0.000 C 
ATOM     16  O   UNL     1       1.853   2.341  17.896  0.00  0.00    +0.000 OA
BRANCH  12  17
ATOM     17  C   UNL     1       5.861   4.969  15.221  0.00  0.00    +0.000 C 
ATOM     18  F   UNL     1       5.451   4.088  14.264  0.00  0.00    +0.000 F 
ATOM     19  F   UNL     1       5.355   6.178  14.859  0.00  0.00    +0.000 F 
ATOM     20  F   UNL     1       7.213   5.066  15.074  0.00  0.00    +0.000 F 
ENDBRANCH  12  17
ENDBRANCH   5   7
BRANCH   1  23
ATOM     21  C   UNL     1      -0.587   7.653  21.078  0.00  0.00    +0.000 C 
ATOM     22  C   UNL     1       0.523   8.615  21.347  0.00  0.00    +0.000 C 
ATOM     23  C   UNL     1       1.773   8.555  20.878  0.00  0.00    +0.000 C 
ATOM     24  N   UNL     1       0.955   9.584  20.491  0.00  0.00    +0.000 N 
BRANCH  24  25
ATOM     25  C   UNL     1       1.134  10.956  20.964  0.00  0.00    +0.000 C 
BRANCH  25  26
ATOM     26  C   UNL     1       0.931  12.020  19.924  0.00  0.00    +0.000 A 
ATOM     27  N   UNL     1       1.888  12.701  19.324  0.00  0.00    +0.000 NA
ATOM     28  N   UNL     1       1.287  13.593  18.464  0.00  0.00    +0.000 NA
ATOM     29  C   UNL     1      -0.003  13.437  18.565  0.00  0.00    +0.000 A 
ATOM     30  N   UNL     1      -0.284  12.467  19.478  0.00  0.00    +0.000 N 
ATOM     31  C   UNL     1      -1.594  12.041  19.879  0.00  0.00    +0.000 C 
ENDBRANCH  25  26
ENDBRANCH  24  25
ENDBRANCH   1  23
TORSDOF 5
ENDMDL
MODEL 6
REMARK VINA RESULT:      -7.7      3.098      3.989
REMARK  Name = 
REMARK  7 active torsions:
REMARK  status: ('A' for Active; 'I' for Inactive)
REMARK    1  A    between atoms: C_1  and  C_2
REMARK    2  A    between atoms: C_3  and  C_4
REMARK    3  A    between atoms: C_8  and  N_9
REMARK    4  A    between atoms: C_14  and  C_15
REMARK    5  A    between atoms: N_24  and  C_25
REMARK    6  A    between atoms: C_25  and  C_26
REMARK    7  A    between atoms: N_30  and  C_31
REMARK                            x       y       z     vdW  Elec       q    Type
REMARK                         _______ _______ _______ _____ _____    ______ ____
ROOT
ATOM      1  C   UNL     1       2.655   7.297  17.984  0.00  0.00    +0.000 A 
ATOM      2  C   UNL     1       1.644   6.334  18.093  0.00  0.00    +0.000 A 
ATOM      3  C   UNL     1       1.975   5.048  18.483  0.00  0.00    +0.000 A 
ATOM      4  C   UNL     1       3.309   4.681  18.554  0.00  0.00    +0.000 A 
ATOM      5  C   UNL     1       4.271   5.511  17.960  0.00  0.00    +0.000 A 
ATOM      6  C   UNL     1       3.986   6.878  17.873  0.00  0.00    +0.000 A 
ENDROOT
BRANCH   5   7
ATOM      7  N   UNL     1       5.244   4.876  17.055  0.00  0.00    +0.000 N 
ATOM      8  C   UNL     1       6.403   4.275  17.745  0.00  0.00    +0.000 C 
ATOM      9  C   UNL     1       7.277   5.474  17.953  0.00  0.00    +0.000 A 
ATOM     10  C   UNL     1       8.028   5.843  19.053  0.00  0.00    +0.000 A 
ATOM     11  C   UNL     1       8.461   7.174  19.130  0.00  0.00    +0.000 A 
ATOM     12  C   UNL     1       8.149   8.117  18.118  0.00  0.00    +0.000 A 
ATOM     13  C   UNL     1       7.413   7.709  16.990  0.00  0.00    +0.000 A 
ATOM     14  C   UNL     1       6.996   6.390  16.937  0.00  0.00    +0.000 A 
ATOM     15  C   UNL     1       5.843   5.847  16.179  0.00  0.00    +0.000 C 
ATOM     16  O   UNL     1       5.413   6.317  15.142  0.00  0.00    +0.000 OA
BRANCH  12  17
ATOM     17  C   UNL     1       8.523   9.573  18.283  0.00  0.00    +0.000 C 
ATOM     18  F   UNL     1       9.638   9.932  17.584  0.00  0.00    +0.000 F 
ATOM     19  F   UNL     1       7.536  10.413  17.871  0.00  0.00    +0.000 F 
ATOM     20  F   UNL     1       8.783   9.903  19.579  0.00  0.00    +0.000 F 
ENDBRANCH  12  17
ENDBRANCH   5   7
BRANCH   1  23
ATOM     21  C   UNL     1       1.519   8.017  20.511  0.00  0.00    +0.000 C 
ATOM     22  C   UNL     1       1.785   8.984  19.405  0.00  0.00    +0.000 C 
ATOM     23  C   UNL     1       2.304   8.711  18.203  0.00  0.00    +0.000 C 
ATOM     24  N   UNL     1       1.010   9.151  18.296  0.00  0.00    +0.000 N 
BRANCH  24  25
ATOM     25  C   UNL     1       0.599  10.492  17.882  0.00  0.00    +0.000 C 
BRANCH  25  26
ATOM     26  C   UNL     1      -0.692  10.976  18.475  0.00  0.00    +0.000 A 
ATOM     27  N   UNL     1      -0.820  11.610  19.625  0.00  0.00    +0.000 NA
ATOM     28  N   UNL     1      -2.160  11.855  19.818  0.00  0.00    +0.000 NA
ATOM     29  C   UNL     1      -2.806  11.368  18.796  0.00  0.00    +0.000 A 
ATOM     30  N   UNL     1      -1.932  10.793  17.925  0.00  0.00    +0.000 N 
ATOM     31  C   UNL     1      -2.277  10.126  16.702  0.00  0.00    +0.000 C 
ENDBRANCH  25  26
ENDBRANCH  24  25
ENDBRANCH   1  23
TORSDOF 5
ENDMDL
MODEL 7
REMARK VINA RESULT:      -7.6      1.245      1.653
REMARK  Name = 
REMARK  7 active torsions:
REMARK  status: ('A' for Active; 'I' for Inactive)
REMARK    1  A    between atoms: C_1  and  C_2
REMARK    2  A    between atoms: C_3  and  C_4
REMARK    3  A    between atoms: C_8  and  N_9
REMARK    4  A    between atoms: C_14  and  C_15
REMARK    5  A    between atoms: N_24  and  C_25
REMARK    6  A    between atoms: C_25  and  C_26
REMARK    7  A    between atoms: N_30  and  C_31
REMARK                            x       y       z     vdW  Elec       q    Type
REMARK                         _______ _______ _______ _____ _____    ______ ____
ROOT
ATOM      1  C   UNL     1       2.083   7.376  19.986  0.00  0.00    +0.000 A 
ATOM      2  C   UNL     1       2.429   7.586  18.645  0.00  0.00    +0.000 A 
ATOM      3  C   UNL     1       2.152   6.602  17.713  0.00  0.00    +0.000 A 
ATOM      4  C   UNL     1       1.734   5.354  18.146  0.00  0.00    +0.000 A 
ATOM      5  C   UNL     1       1.880   5.025  19.501  0.00  0.00    +0.000 A 
ATOM      6  C   UNL     1       1.845   6.070  20.431  0.00  0.00    +0.000 A 
ENDROOT
BRANCH   5   7
ATOM      7  N   UNL     1       2.531   3.743  19.820  0.00  0.00    +0.000 N 
ATOM      8  C   UNL     1       3.875   3.884  20.415  0.00  0.00    +0.000 C 
ATOM      9  C   UNL     1       4.719   4.085  19.192  0.00  0.00    +0.000 A 
ATOM     10  C   UNL     1       5.770   4.954  18.974  0.00  0.00    +0.000 A 
ATOM     11  C   UNL     1       6.149   5.201  17.648  0.00  0.00    +0.000 A 
ATOM     12  C   UNL     1       5.486   4.582  16.558  0.00  0.00    +0.000 A 
ATOM     13  C   UNL     1       4.440   3.673  16.806  0.00  0.00    +0.000 A 
ATOM     14  C   UNL     1       4.083   3.447  18.125  0.00  0.00    +0.000 A 
ATOM     15  C   UNL     1       2.771   2.976  18.627  0.00  0.00    +0.000 C 
ATOM     16  O   UNL     1       2.008   2.261  18.006  0.00  0.00    +0.000 OA
BRANCH  12  17
ATOM     17  C   UNL     1       5.831   4.957  15.134  0.00  0.00    +0.000 C 
ATOM     18  F   UNL     1       5.321   4.098  14.206  0.00  0.00    +0.000 F 
ATOM     19  F   UNL     1       5.373   6.191  14.795  0.00  0.00    +0.000 F 
ATOM     20  F   UNL     1       7.176   4.979  14.911  0.00  0.00    +0.000 F 
ENDBRANCH  12  17
ENDBRANCH   5   7
BRANCH   1  23
ATOM     21  C   UNL     1      -0.573   7.610  21.030  0.00  0.00    +0.000 C 
ATOM     22  C   UNL     1       0.520   8.595  21.286  0.00  0.00    +0.000 C 
ATOM     23  C   UNL     1       1.773   8.549  20.823  0.00  0.00    +0.000 C 
ATOM     24  N   UNL     1       0.939   9.556  20.415  0.00  0.00    +0.000 N 
BRANCH  24  25
ATOM     25  C   UNL     1       1.093  10.940  20.862  0.00  0.00    +0.000 C 
BRANCH  25  26
ATOM     26  C   UNL     1       0.555  11.978  19.922  0.00  0.00    +0.000 A 
ATOM     27  N   UNL     1      -0.624  11.944  19.331  0.00  0.00    +0.000 NA
ATOM     28  N   UNL     1      -0.723  13.062  18.534  0.00  0.00    +0.000 NA
ATOM     29  C   UNL     1       0.385  13.737  18.654  0.00  0.00    +0.000 A 
ATOM     30  N   UNL     1       1.230  13.095  19.508  0.00  0.00    +0.000 N 
ATOM     31  C   UNL     1       2.554  13.520  19.862  0.00  0.00    +0.000 C 
ENDBRANCH  25  26
ENDBRANCH  24  25
ENDBRANCH   1  23
TORSDOF 5
ENDMDL
MODEL 8
REMARK VINA RESULT:      -7.6      1.067      1.271
REMARK  Name = 
REMARK  7 active torsions:
REMARK  status: ('A' for Active; 'I' for Inactive)
REMARK    1  A    between atoms: C_1  and  C_2
REMARK    2  A    between atoms: C_3  and  C_4
REMARK    3  A    between atoms: C_8  and  N_9
REMARK    4  A    between atoms: C_14  and  C_15
REMARK    5  A    between atoms: N_24  and  C_25
REMARK    6  A    between atoms: C_25  and  C_26
REMARK    7  A    between atoms: N_30  and  C_31
REMARK                            x       y       z     vdW  Elec       q    Type
REMARK                         _______ _______ _______ _____ _____    ______ ____
ROOT
ATOM      1  C   UNL     1       2.344   6.639  19.091  0.00  0.00    +0.000 A 
ATOM      2  C   UNL     1       1.810   6.319  17.837  0.00  0.00    +0.000 A 
ATOM      3  C   UNL     1       1.273   5.060  17.631  0.00  0.00    +0.000 A 
ATOM      4  C   UNL     1       1.460   4.078  18.590  0.00  0.00    +0.000 A 
ATOM      5  C   UNL     1       2.418   4.284  19.593  0.00  0.00    +0.000 A 
ATOM      6  C   UNL     1       2.693   5.604  19.967  0.00  0.00    +0.000 A 
ENDROOT
BRANCH   5   7
ATOM      7  N   UNL     1       3.394   3.207  19.828  0.00  0.00    +0.000 N 
ATOM      8  C   UNL     1       4.717   3.682  20.278  0.00  0.00    +0.000 C 
ATOM      9  C   UNL     1       5.352   4.065  18.975  0.00  0.00    +0.000 A 
ATOM     10  C   UNL     1       6.129   5.162  18.656  0.00  0.00    +0.000 A 
ATOM     11  C   UNL     1       6.294   5.472  17.300  0.00  0.00    +0.000 A 
ATOM     12  C   UNL     1       5.692   4.692  16.280  0.00  0.00    +0.000 A 
ATOM     13  C   UNL     1       4.934   3.558  16.628  0.00  0.00    +0.000 A 
ATOM     14  C   UNL     1       4.785   3.272  17.975  0.00  0.00    +0.000 A 
ATOM     15  C   UNL     1       3.688   2.502  18.609  0.00  0.00    +0.000 C 
ATOM     16  O   UNL     1       3.063   1.612  18.064  0.00  0.00    +0.000 OA
BRANCH  12  17
ATOM     17  C   UNL     1       5.784   5.116  14.832  0.00  0.00    +0.000 C 
ATOM     18  F   UNL     1       5.188   4.243  13.970  0.00  0.00    +0.000 F 
ATOM     19  F   UNL     1       5.200   6.323  14.606  0.00  0.00    +0.000 F 
ATOM     20  F   UNL     1       7.072   5.234  14.402  0.00  0.00    +0.000 F 
ENDBRANCH  12  17
ENDBRANCH   5   7
BRANCH   1  23
ATOM     21  C   UNL     1       0.584   7.349  21.234  0.00  0.00    +0.000 C 
ATOM     22  C   UNL     1       1.485   8.312  20.535  0.00  0.00    +0.000 C 
ATOM     23  C   UNL     1       2.321   8.047  19.526  0.00  0.00    +0.000 C 
ATOM     24  N   UNL     1       1.249   8.874  19.316  0.00  0.00    +0.000 N 
BRANCH  24  25
ATOM     25  C   UNL     1       1.388  10.318  19.131  0.00  0.00    +0.000 C 
BRANCH  25  26
ATOM     26  C   UNL     1       0.638  11.162  20.119  0.00  0.00    +0.000 A 
ATOM     27  N   UNL     1       1.138  11.676  21.227  0.00  0.00    +0.000 NA
ATOM     28  N   UNL     1       0.125  12.359  21.863  0.00  0.00    +0.000 NA
ATOM     29  C   UNL     1      -0.951  12.241  21.138  0.00  0.00    +0.000 A 
ATOM     30  N   UNL     1      -0.688  11.489  20.034  0.00  0.00    +0.000 N 
ATOM     31  C   UNL     1      -1.635  11.119  19.021  0.00  0.00    +0.000 C 
ENDBRANCH  25  26
ENDBRANCH  24  25
ENDBRANCH   1  23
TORSDOF 5
ENDMDL
MODEL 9
REMARK VINA RESULT:      -7.5      1.341      1.760
REMARK  Name = 
REMARK  7 active torsions:
REMARK  status: ('A' for Active; 'I' for Inactive)
REMARK    1  A    between atoms: C_1  and  C_2
REMARK    2  A    between atoms: C_3  and  C_4
REMARK    3  A    between atoms: C_8  and  N_9
REMARK    4  A    between atoms: C_14  and  C_15
REMARK    5  A    between atoms: N_24  and  C_25
REMARK    6  A    between atoms: C_25  and  C_26
REMARK    7  A    between atoms: N_30  and  C_31
REMARK                            x       y       z     vdW  Elec       q    Type
REMARK                         _______ _______ _______ _____ _____    ______ ____
ROOT
ATOM      1  C   UNL     1       2.335   6.587  18.931  0.00  0.00    +0.000 A 
ATOM      2  C   UNL     1       1.747   6.175  17.729  0.00  0.00    +0.000 A 
ATOM      3  C   UNL     1       1.228   4.896  17.632  0.00  0.00    +0.000 A 
ATOM      4  C   UNL     1       1.482   3.982  18.642  0.00  0.00    +0.000 A 
ATOM      5  C   UNL     1       2.483   4.271  19.580  0.00  0.00    +0.000 A 
ATOM      6  C   UNL     1       2.747   5.617  19.854  0.00  0.00    +0.000 A 
ENDROOT
BRANCH   5   7
ATOM      7  N   UNL     1       3.492   3.229  19.835  0.00  0.00    +0.000 N 
ATOM      8  C   UNL     1       4.804   3.756  20.262  0.00  0.00    +0.000 C 
ATOM      9  C   UNL     1       5.418   4.122  18.944  0.00  0.00    +0.000 A 
ATOM     10  C   UNL     1       6.160   5.232  18.590  0.00  0.00    +0.000 A 
ATOM     11  C   UNL     1       6.305   5.511  17.225  0.00  0.00    +0.000 A 
ATOM     12  C   UNL     1       5.719   4.687  16.231  0.00  0.00    +0.000 A 
ATOM     13  C   UNL     1       4.998   3.541  16.615  0.00  0.00    +0.000 A 
ATOM     14  C   UNL     1       4.867   3.287  17.970  0.00  0.00    +0.000 A 
ATOM     15  C   UNL     1       3.799   2.502  18.633  0.00  0.00    +0.000 C 
ATOM     16  O   UNL     1       3.196   1.579  18.117  0.00  0.00    +0.000 OA
BRANCH  12  17
ATOM     17  C   UNL     1       5.787   5.075  14.771  0.00  0.00    +0.000 C 
ATOM     18  F   UNL     1       7.060   5.154  14.287  0.00  0.00    +0.000 F 
ATOM     19  F   UNL     1       5.135   4.193  13.967  0.00  0.00    +0.000 F 
ATOM     20  F   UNL     1       5.227   6.294  14.528  0.00  0.00    +0.000 F 
ENDBRANCH  12  17
ENDBRANCH   5   7
BRANCH   1  23
ATOM     21  C   UNL     1       0.792   7.381  21.208  0.00  0.00    +0.000 C 
ATOM     22  C   UNL     1       1.571   8.324  20.353  0.00  0.00    +0.000 C 
ATOM     23  C   UNL     1       2.302   8.019  19.275  0.00  0.00    +0.000 C 
ATOM     24  N   UNL     1       1.181   8.794  19.134  0.00  0.00    +0.000 N 
BRANCH  24  25
ATOM     25  C   UNL     1       1.241  10.225  18.843  0.00  0.00    +0.000 C 
BRANCH  25  26
ATOM     26  C   UNL     1       0.020  11.007  19.231  0.00  0.00    +0.000 A 
ATOM     27  N   UNL     1      -0.067  11.843  20.248  0.00  0.00    +0.000 NA
ATOM     28  N   UNL     1      -1.354  12.331  20.277  0.00  0.00    +0.000 NA
ATOM     29  C   UNL     1      -2.010  11.784  19.293  0.00  0.00    +0.000 A 
ATOM     30  N   UNL     1      -1.197  10.933  18.608  0.00  0.00    +0.000 N 
ATOM     31  C   UNL     1      -1.577  10.128  17.483  0.00  0.00    +0.000 C 
ENDBRANCH  25  26
ENDBRANCH  24  25
ENDBRANCH   1  23
TORSDOF 5
ENDMDL
